MODEL        4
REMARK 921   NORMALIZED FREE ENERGY PREDICTED BY IDOCK:   -8.04 KCAL/MOL
REMARK 922        TOTAL FREE ENERGY PREDICTED BY IDOCK:  -10.56 KCAL/MOL
REMARK 923 INTER-LIGAND FREE ENERGY PREDICTED BY IDOCK:   -9.76 KCAL/MOL
REMARK 924 INTRA-LIGAND FREE ENERGY PREDICTED BY IDOCK:   -0.81 KCAL/MOL
REMARK 927      BINDING AFFINITY PREDICTED BY RF-SCORE:    0.00 PKD
ROOT
HETATM    1  O   UNL     1     -12.973  14.358  65.670  1.00  0.00    -0.447 OA 
HETATM    2  S   UNL     1     -12.078  13.460  64.677  1.00  0.00    -0.423 S  
HETATM    3  N   UNL     2     -12.206  15.614  69.136  1.00  0.00    -0.589 NA 
HETATM    4  H1  UNL     2     -12.569  16.148  68.347  1.00  0.00     0.000 HD 
HETATM    5  H2  UNL     2     -12.816  15.280  69.883  1.00  0.00     0.000 HD 
HETATM    6  C   UNL     2     -10.885  15.373  69.144  1.00  0.00    -0.249 C  
HETATM    7  N   UNL     3     -12.521  12.762  68.034  1.00  0.00     0.139 NA 
HETATM    8  O   UNL     1     -12.659  12.000  64.998  1.00  0.00    -0.415 OA 
HETATM    9  O   UNL     1     -12.416  13.829  63.323  1.00  0.00    -0.819 OA 
HETATM   10  O   UNL     1     -10.731  13.505  65.175  1.00  0.00    -0.309 OA 
HETATM   11  C   UNL     3     -11.416  11.985  68.032  1.00  0.00    -0.328 C  
HETATM   12  H1  UNL     3     -13.425  12.452  67.678  1.00  0.00     0.000 HD 
HETATM   13  H2  UNL     3     -12.447  13.708  68.409  1.00  0.00     0.000 HD 
HETATM   14  N   UNL     2     -10.168  15.611  68.039  1.00  0.00    -0.225 NA 
HETATM   15  N   UNL     2     -10.428  14.701  70.138  1.00  0.00    -0.454 NA 
HETATM   16  H2  UNL     2     -11.038  14.367  70.885  1.00  0.00     0.000 HD 
HETATM   17  H   UNL     2      -9.224  15.224  68.043  1.00  0.00     0.000 HD 
HETATM   18  N   UNL     3     -10.282  12.374  68.478  1.00  0.00    -0.279 NA 
HETATM   19  N   UNL     3     -11.591  10.784  67.436  1.00  0.00    -0.489 NA 
HETATM   20  H2  UNL     3     -10.208  13.319  68.853  1.00  0.00     0.000 HD 
HETATM   21  H1  UNL     2      -9.424  14.518  70.145  1.00  0.00     0.000 HD 
HETATM   22  H1  UNL     3      -9.448  11.787  68.477  1.00  0.00     0.000 HD 
HETATM   23  H   UNL     3     -12.319  10.625  66.740  1.00  0.00     0.000 HD 
ENDROOT
BRANCH  14  24
HETATM   24  C   UNL     2     -10.534  16.337  66.837  1.00  0.00    -0.302 C  
BRANCH  24  25
HETATM   25  C   UNL     2      -9.944  17.737  66.864  1.00  0.00    -0.332 A  
HETATM   26  I   UNL     2      -6.807  19.835  69.050  1.00  0.00    -0.270 I  
HETATM   27  C   UNL     2     -10.449  18.745  66.025  1.00  0.00    -0.483 A  
HETATM   28  C   UNL     2      -8.876  18.053  67.726  1.00  0.00    -0.255 A  
HETATM   29  C   UNL     2      -9.958  20.046  66.088  1.00  0.00    -0.580 A  
HETATM   30  C   UNL     2      -8.373  19.355  67.766  1.00  0.00    -0.305 A  
HETATM   31  C   UNL     2      -8.917  20.355  66.958  1.00  0.00    -0.423 A  
ENDBRANCH  24  25
ENDBRANCH  14  24
BRANCH  19  32
HETATM   32  C   UNL     3     -10.673   9.731  67.850  1.00  0.00    -0.258 C  
BRANCH  32  33
HETATM   33  C   UNL     3      -9.706   9.348  66.767  1.00  0.00    -0.257 A  
HETATM   34  C   UNL     3      -8.230   8.435  64.554  1.00  0.00    -0.149 A  
HETATM   35  C   UNL     3      -9.693  10.073  65.576  1.00  0.00    -0.355 A  
HETATM   36  I   UNL     3      -9.130  10.627  62.668  1.00  0.00    -0.371 I  
HETATM   37  C   UNL     3      -8.177   7.736  65.758  1.00  0.00    -0.132 A  
HETATM   38  C   UNL     3      -8.982   9.606  64.471  1.00  0.00    -0.235 A  
HETATM   39  C   UNL     3      -8.915   8.183  66.858  1.00  0.00    -0.163 A  
ENDBRANCH  32  33
ENDBRANCH  19  32
TORSDOF 4
ENDMDL
