MODEL       61
REMARK 921   NORMALIZED FREE ENERGY PREDICTED BY IDOCK:   -4.96 KCAL/MOL
REMARK 922        TOTAL FREE ENERGY PREDICTED BY IDOCK:   -8.21 KCAL/MOL
REMARK 923 INTER-LIGAND FREE ENERGY PREDICTED BY IDOCK:   -7.69 KCAL/MOL
REMARK 924 INTRA-LIGAND FREE ENERGY PREDICTED BY IDOCK:   -0.52 KCAL/MOL
REMARK 927      BINDING AFFINITY PREDICTED BY RF-SCORE:    0.00 PKD
ROOT
HETATM    1  C   UNL     1      -8.864  16.193  67.803  1.00  0.00    -0.184 C  
HETATM    2  C   UNL     1      -9.643  15.052  67.130  1.00  0.00    -0.222 C  
HETATM    3  C   UNL     1      -9.447  13.724  67.868  1.00  0.00    -0.214 C  
HETATM    4  C   UNL     1      -8.085  18.593  67.428  1.00  0.00    -0.258 A  
HETATM    5  C   UNL     1      -7.935  13.462  67.969  1.00  0.00    -0.148 C  
HETATM    6  C   UNL     1      -6.467  20.726  68.279  1.00  0.00    -0.302 A  
HETATM    7  N   UNL     1      -7.243  14.521  68.725  1.00  0.00    -0.119 NA 
HETATM    8  O   UNL     1      -9.273  20.103  66.020  1.00  0.00    -0.566 OA 
HETATM    9  C   UNL     1      -7.377  15.837  68.060  1.00  0.00    -0.125 C  
HETATM   10  C   UNL     1      -6.246  19.440  68.769  1.00  0.00    -0.279 A  
HETATM   11  C   UNL     1      -7.481  20.952  67.355  1.00  0.00    -0.339 A  
HETATM   12  C   UNL     1      -7.037  18.362  68.335  1.00  0.00    -0.276 A  
HETATM   13  C   UNL     1      -8.279  19.891  66.934  1.00  0.00    -0.318 A  
HETATM   14  H   UNL     1      -9.817  19.380  65.733  1.00  0.00     0.000 HD 
HETATM   15  C   UNL     1      -8.953  17.460  66.937  1.00  0.00    -0.260 C  
HETATM   16  C   UNL     1      -6.766  16.985  68.898  1.00  0.00    -0.203 C  
ENDROOT
BRANCH   3  17
HETATM   17  N   UNL     1     -10.135  13.782  69.210  1.00  0.00    -0.414 N  
HETATM   18  H   UNL     1      -9.705  14.201  70.035  1.00  0.00     0.000 HD 
BRANCH  17  19
HETATM   19  S   UNL     1     -11.672  13.096  69.231  1.00  0.00    -0.325 S  
HETATM   20  O   UNL     1     -11.637  11.777  69.802  1.00  0.00    -0.295 OA 
HETATM   21  O   UNL     1     -12.214  13.341  67.916  1.00  0.00    -0.275 OA 
BRANCH  19  22
HETATM   22  N   UNL     1     -12.432  14.145  70.345  1.00  0.00    -0.349 N  
BRANCH  22  23
HETATM   23  C   UNL     1     -11.745  15.468  70.483  1.00  0.00    -0.349 C  
HETATM   24  C   UNL     1     -11.574  15.924  71.926  1.00  0.00    -0.542 C  
ENDBRANCH  22  23
BRANCH  22  25
HETATM   25  C   UNL     1     -12.807  13.475  71.624  1.00  0.00    -0.329 C  
HETATM   26  C   UNL     1     -14.185  13.871  72.128  1.00  0.00    -0.595 C  
ENDBRANCH  22  25
ENDBRANCH  19  22
ENDBRANCH  17  19
ENDBRANCH   3  17
BRANCH   7  27
HETATM   27  C   UNL     1      -5.877  14.110  69.074  1.00  0.00    -0.089 C  
BRANCH  27  28
HETATM   28  C   UNL     1      -5.710  13.475  70.461  1.00  0.00    -0.170 C  
HETATM   29  C   UNL     1      -5.527  11.968  70.364  1.00  0.00    -0.148 C  
ENDBRANCH  27  28
ENDBRANCH   7  27
TORSDOF 7
ENDMDL
