MODEL       38
REMARK 921   NORMALIZED FREE ENERGY PREDICTED BY IDOCK:   -6.53 KCAL/MOL
REMARK 922        TOTAL FREE ENERGY PREDICTED BY IDOCK:   -9.59 KCAL/MOL
REMARK 923 INTER-LIGAND FREE ENERGY PREDICTED BY IDOCK:   -8.42 KCAL/MOL
REMARK 924 INTRA-LIGAND FREE ENERGY PREDICTED BY IDOCK:   -1.17 KCAL/MOL
REMARK 927      BINDING AFFINITY PREDICTED BY RF-SCORE:    0.00 PKD
ROOT
HETATM    1  C   UNL     1     -11.135  16.023  67.913  1.00  0.00    -0.307 C  
HETATM    2  C   UNL     1     -10.750  14.638  67.446  1.00  0.00    -0.280 C  
HETATM    3  C   UNL     1     -11.585  13.485  68.087  1.00  0.00    -0.333 C  
HETATM    4  O   UNL     1     -10.565  16.108  64.769  1.00  0.00    -0.630 OA 
HETATM    5  C   UNL     1     -11.834  13.056  66.581  1.00  0.00    -0.393 C  
HETATM    6  N   UNL     1     -11.270  14.239  66.141  1.00  0.00    -0.325 N  
HETATM    7  O   UNL     1     -11.062  13.958  63.720  1.00  0.00     0.080 OA 
HETATM    8  O   UNL     1     -12.886  15.317  64.684  1.00  0.00    -0.100 OA 
HETATM    9  O   UNL     1     -12.326  12.148  65.958  1.00  0.00    -0.550 OA 
HETATM   10  S   UNL     1     -11.473  14.965  64.685  1.00  0.00    -0.345 S  
ENDROOT
BRANCH   3  11
HETATM   11  N   UNL     1     -10.902  12.501  68.984  1.00  0.00    -0.376 N  
HETATM   12  O   UNL     1     -12.509  10.843  68.928  1.00  0.00    -0.431 OA 
HETATM   13  C   UNL     1     -11.395  11.236  69.247  1.00  0.00    -0.287 C  
HETATM   14  H   UNL     1     -10.025  12.779  69.424  1.00  0.00     0.000 HD 
BRANCH  13  15
HETATM   15  C   UNL     1     -10.495  10.279  70.024  1.00  0.00    -0.241 C  
BRANCH  15  16
HETATM   16  C   UNL     1     -11.077   9.436  71.079  1.00  0.00    -0.344 A  
HETATM   17  C   UNL     1     -12.666   8.727  72.443  1.00  0.00    -0.368 A  
HETATM   18  N   UNL     1     -13.950   8.747  73.007  1.00  0.00    -1.092 NA 
HETATM   19  H2  UNL     1     -13.828   8.750  74.020  1.00  0.00     0.000 HD 
HETATM   20  C   UNL     1     -10.438   8.349  71.664  1.00  0.00    -0.252 A  
HETATM   21  H1  UNL     1     -14.667   9.439  72.794  1.00  0.00     0.000 HD 
HETATM   22  S   UNL     1     -11.477   7.579  72.796  1.00  0.00    -0.253 SA 
HETATM   23  N   UNL     1     -12.368   9.654  71.577  1.00  0.00    -0.364 NA 
ENDBRANCH  15  16
BRANCH  15  24
HETATM   24  N   UNL     1      -9.215  10.130  69.821  1.00  0.00    -0.364 NA 
HETATM   25  H   UNL     1      -8.549   9.885  70.554  1.00  0.00     0.000 HD 
BRANCH  24  26
HETATM   26  O   UNL     1      -8.857  10.344  68.488  1.00  0.00    -0.130 OA 
HETATM   27  O   UNL     1      -8.478  12.127  66.707  1.00  0.00    -0.185 OA 
HETATM   28  O   UNL     1      -6.233  12.061  66.758  1.00  0.00    -0.129 OA 
HETATM   29  C   UNL     1      -6.836  11.301  69.578  1.00  0.00    -0.115 C  
HETATM   30  C   UNL     1      -6.725   9.359  67.943  1.00  0.00    -0.067 C  
HETATM   31  C   UNL     1      -7.448  10.643  68.335  1.00  0.00    -0.093 C  
HETATM   32  C   UNL     1      -7.449  11.659  67.185  1.00  0.00    -0.146 C  
ENDBRANCH  24  26
ENDBRANCH  15  24
ENDBRANCH  13  15
ENDBRANCH   3  11
TORSDOF 5
ENDMDL
