MODEL       91
REMARK 921   NORMALIZED FREE ENERGY PREDICTED BY IDOCK:   -0.50 KCAL/MOL
REMARK 922        TOTAL FREE ENERGY PREDICTED BY IDOCK:   -3.44 KCAL/MOL
REMARK 923 INTER-LIGAND FREE ENERGY PREDICTED BY IDOCK:   -4.00 KCAL/MOL
REMARK 924 INTRA-LIGAND FREE ENERGY PREDICTED BY IDOCK:    0.56 KCAL/MOL
REMARK 927      BINDING AFFINITY PREDICTED BY RF-SCORE:    0.00 PKD
ROOT
HETATM    1  I   UNL     1     -12.744  15.699  71.955  1.00  0.00    -0.532 I  
HETATM    2  I   UNL     2      -9.806  18.827  68.942  1.00  0.00    -0.112 I  
HETATM    3  I   UNL     3     -11.002  13.065  69.456  1.00  0.00     0.434 I  
HETATM    4  C   UNL     4      -7.276  12.277  69.900  1.00  0.00     0.850 C  
HETATM    5  C   UNL     4      -5.990  12.845  69.261  1.00  0.00    -0.093 C  
ENDROOT
BRANCH   5   6
HETATM    6  N   UNL     4      -6.151  13.532  67.933  1.00  0.00    -0.139 N  
BRANCH   6   7
HETATM    7  C   UNL     4      -5.225  14.724  67.897  1.00  0.00    -0.071 C  
HETATM    8  C   UNL     4      -5.127  15.556  69.191  1.00  0.00    -0.096 C  
ENDBRANCH   6   7
BRANCH   6   9
HETATM    9  C   UNL     4      -5.829  12.549  66.841  1.00  0.00     0.313 C  
BRANCH   9  10
HETATM   10  C   UNL     4      -5.902  11.019  67.133  1.00  0.00    -0.064 C  
BRANCH  10  11
HETATM   11  O   UNL     4      -7.131  10.404  66.967  1.00  0.00    -0.087 OA 
BRANCH  11  12
HETATM   12  C   UNL     4      -7.503   9.116  67.179  1.00  0.00    -0.087 A  
HETATM   13  C   UNL     4      -6.534   8.107  67.087  1.00  0.00    -0.057 A  
HETATM   14  C   UNL     4      -6.858   6.787  67.252  1.00  0.00    -0.072 A  
HETATM   15  C   UNL     4      -8.142   6.429  67.570  1.00  0.00    -0.117 A  
HETATM   16  C   UNL     4      -9.188   7.385  67.719  1.00  0.00    -0.131 A  
HETATM   17  C   UNL     4      -8.876   8.770  67.503  1.00  0.00    -0.134 A  
BRANCH  16  18
HETATM   18  O   UNL     4     -10.449   6.957  68.094  1.00  0.00    -0.179 OA 
BRANCH  18  19
HETATM   19  C   UNL     4     -10.608   6.335  69.338  1.00  0.00    -0.271 C  
BRANCH  19  20
HETATM   20  C   UNL     4      -9.375   5.862  70.149  1.00  0.00    -0.156 C  
BRANCH  20  21
HETATM   21  N   UNL     4      -9.398   6.348  71.600  1.00  0.00    -0.145 N  
BRANCH  21  22
HETATM   22  C   UNL     4     -10.816   6.440  72.110  1.00  0.00    -0.237 C  
HETATM   23  C   UNL     4     -11.285   5.322  73.057  1.00  0.00    -0.387 C  
ENDBRANCH  21  22
BRANCH  21  24
HETATM   24  C   UNL     4      -8.793   7.730  71.685  1.00  0.00    -0.118 C  
HETATM   25  C   UNL     4      -7.398   7.932  71.054  1.00  0.00    -0.062 C  
ENDBRANCH  21  24
BRANCH  21  26
HETATM   26  C   UNL     4      -8.655   5.384  72.480  1.00  0.00    -0.118 C  
HETATM   27  C   UNL     4      -8.016   4.174  71.778  1.00  0.00    -0.083 C  
ENDBRANCH  21  26
ENDBRANCH  20  21
ENDBRANCH  19  20
ENDBRANCH  18  19
ENDBRANCH  16  18
BRANCH  17  28
HETATM   28  O   UNL     4      -9.873   9.723  67.618  1.00  0.00    -0.155 OA 
BRANCH  28  29
HETATM   29  C   UNL     4     -10.911   9.886  66.699  1.00  0.00     0.149 C  
BRANCH  29  30
HETATM   30  C   UNL     4     -10.493   9.868  65.212  1.00  0.00     0.349 C  
BRANCH  30  31
HETATM   31  N   UNL     4     -10.233  11.237  64.599  1.00  0.00    -0.279 N  
BRANCH  31  32
HETATM   32  C   UNL     4      -9.344  11.146  63.388  1.00  0.00    -0.268 C  
HETATM   33  C   UNL     4      -9.484   9.890  62.515  1.00  0.00    -0.166 C  
ENDBRANCH  31  32
BRANCH  31  34
HETATM   34  C   UNL     4      -9.557  12.102  65.627  1.00  0.00    -0.165 C  
HETATM   35  C   UNL     4     -10.391  13.276  66.186  1.00  0.00    -0.290 C  
ENDBRANCH  31  34
BRANCH  31  36
HETATM   36  C   UNL     4     -11.533  11.870  64.147  1.00  0.00    -0.370 C  
HETATM   37  C   UNL     4     -11.575  13.412  64.080  1.00  0.00    -0.440 C  
ENDBRANCH  31  36
ENDBRANCH  30  31
ENDBRANCH  29  30
ENDBRANCH  28  29
ENDBRANCH  17  28
ENDBRANCH  11  12
ENDBRANCH  10  11
ENDBRANCH   9  10
ENDBRANCH   6   9
BRANCH   6  38
HETATM   38  C   UNL     4      -7.559  14.034  67.750  1.00  0.00    -0.170 C  
HETATM   39  C   UNL     4      -7.711  15.460  67.180  1.00  0.00    -0.246 C  
ENDBRANCH   6  38
ENDBRANCH   5   6
TORSDOF 21
ENDMDL
