MODEL       27
REMARK 921   NORMALIZED FREE ENERGY PREDICTED BY IDOCK:   -3.81 KCAL/MOL
REMARK 922        TOTAL FREE ENERGY PREDICTED BY IDOCK:  -15.68 KCAL/MOL
REMARK 923 INTER-LIGAND FREE ENERGY PREDICTED BY IDOCK:  -11.89 KCAL/MOL
REMARK 924 INTRA-LIGAND FREE ENERGY PREDICTED BY IDOCK:   -3.79 KCAL/MOL
REMARK 927      BINDING AFFINITY PREDICTED BY RF-SCORE:    0.00 PKD
ROOT
HETATM    1  C   UNL     1     -12.423  11.825  63.669  1.00  0.00    -0.482 C  
HETATM    2  C   UNL     1     -11.093  12.516  63.918  1.00  0.00    -0.476 C  
ENDROOT
BRANCH   2   3
HETATM    3  C   UNL     1     -11.301  13.923  64.473  1.00  0.00    -0.381 C  
BRANCH   3   4
HETATM    4  C   UNL     1     -12.560  13.997  65.335  1.00  0.00    -0.529 C  
BRANCH   4   5
HETATM    5  C   UNL     1     -12.197  14.089  66.815  1.00  0.00    -0.439 C  
BRANCH   5   6
HETATM    6  C   UNL     1     -11.163  15.182  67.055  1.00  0.00    -0.308 C  
BRANCH   6   7
HETATM    7  C   UNL     1     -11.165  15.615  68.518  1.00  0.00    -0.342 C  
BRANCH   7   8
HETATM    8  C   UNL     1     -10.767  17.079  68.645  1.00  0.00    -0.333 C  
BRANCH   8   9
HETATM    9  C   UNL     1     -10.649  17.734  67.273  1.00  0.00    -0.322 C  
BRANCH   9  10
HETATM   10  C   UNL     1     -10.602  19.250  67.415  1.00  0.00    -0.594 C  
BRANCH  10  11
HETATM   11  C   UNL     1      -9.844  19.888  66.261  1.00  0.00    -0.570 C  
BRANCH  11  12
HETATM   12  C   UNL     1      -8.345  19.763  66.480  1.00  0.00    -0.342 C  
BRANCH  12  13
HETATM   13  O   UNL     1      -7.848  18.777  65.584  1.00  0.00    -0.465 OA 
BRANCH  13  14
HETATM   14  C   UNL     1      -6.747  18.083  66.161  1.00  0.00    -0.268 C  
BRANCH  14  15
HETATM   15  C   UNL     1      -7.209  16.713  66.627  1.00  0.00    -0.241 C  
BRANCH  15  16
HETATM   16  O   UNL     1      -7.317  16.740  68.046  1.00  0.00    -0.154 OA 
BRANCH  16  17
HETATM   17  C   UNL     1      -7.350  15.423  68.587  1.00  0.00    -0.127 C  
BRANCH  17  18
HETATM   18  C   UNL     1      -7.671  14.449  67.465  1.00  0.00    -0.192 C  
BRANCH  18  19
HETATM   19  O   UNL     1      -8.321  13.310  68.015  1.00  0.00    -0.142 OA 
BRANCH  19  20
HETATM   20  C   UNL     1      -8.665  12.363  67.003  1.00  0.00    -0.207 C  
BRANCH  20  21
HETATM   21  C   UNL     1      -9.890  11.583  67.464  1.00  0.00    -0.190 C  
BRANCH  21  22
HETATM   22  O   UNL     1     -10.187  11.952  68.814  1.00  0.00    -0.207 OA 
BRANCH  22  23
HETATM   23  C   UNL     1     -11.394  11.350  69.267  1.00  0.00    -0.289 C  
BRANCH  23  24
HETATM   24  C   UNL     1     -12.105  12.313  70.205  1.00  0.00    -0.287 C  
BRANCH  24  25
HETATM   25  O   UNL     1     -12.756  11.561  71.225  1.00  0.00    -0.398 OA 
BRANCH  25  26
HETATM   26  C   UNL     1     -12.830  10.183  70.884  1.00  0.00    -0.355 C  
BRANCH  26  27
HETATM   27  C   UNL     1     -12.873   9.362  72.164  1.00  0.00    -0.401 C  
BRANCH  27  28
HETATM   28  O   UNL     1     -13.715   8.231  71.964  1.00  0.00    -0.351 OA 
BRANCH  28  29
HETATM   29  C   UNL     1     -13.007   7.170  71.330  1.00  0.00    -0.368 C  
BRANCH  29  30
HETATM   30  C   UNL     1     -11.666   6.989  72.024  1.00  0.00    -0.295 C  
BRANCH  30  31
HETATM   31  O   UNL     1     -10.682   6.656  71.049  1.00  0.00    -0.225 OA 
BRANCH  31  32
HETATM   32  C   UNL     1     -11.283   6.308  69.804  1.00  0.00    -0.430 C  
BRANCH  32  33
HETATM   33  C   UNL     1     -10.367   6.750  68.672  1.00  0.00    -0.186 C  
BRANCH  33  34
HETATM   34  O   UNL     1      -9.238   5.883  68.618  1.00  0.00    -0.118 OA 
BRANCH  34  35
HETATM   35  C   UNL     1      -8.265   6.354  67.688  1.00  0.00    -0.118 C  
BRANCH  35  36
HETATM   36  C   UNL     1      -7.978   7.821  67.974  1.00  0.00    -0.122 C  
BRANCH  36  37
HETATM   37  O   UNL     1      -6.706   7.948  68.611  1.00  0.00    -0.055 OA 
BRANCH  37  38
HETATM   38  C   UNL     1      -6.827   8.639  69.861  1.00  0.00    -0.042 C  
BRANCH  38  39
HETATM   39  C   UNL     1      -7.944   9.670  69.732  1.00  0.00    -0.151 C  
HETATM   40  O   UNL     1      -7.425  10.979  69.962  1.00  0.00    -0.387 OA 
HETATM   41  H   UNL     1      -8.120  11.620  69.881  1.00  0.00     0.000 HD 
ENDBRANCH  38  39
ENDBRANCH  37  38
ENDBRANCH  36  37
ENDBRANCH  35  36
ENDBRANCH  34  35
ENDBRANCH  33  34
ENDBRANCH  32  33
ENDBRANCH  31  32
ENDBRANCH  30  31
ENDBRANCH  29  30
ENDBRANCH  28  29
ENDBRANCH  27  28
ENDBRANCH  26  27
ENDBRANCH  25  26
ENDBRANCH  24  25
ENDBRANCH  23  24
ENDBRANCH  22  23
ENDBRANCH  21  22
ENDBRANCH  20  21
ENDBRANCH  19  20
ENDBRANCH  18  19
ENDBRANCH  17  18
ENDBRANCH  16  17
ENDBRANCH  15  16
ENDBRANCH  14  15
ENDBRANCH  13  14
ENDBRANCH  12  13
ENDBRANCH  11  12
ENDBRANCH  10  11
ENDBRANCH   9  10
ENDBRANCH   8   9
ENDBRANCH   7   8
ENDBRANCH   6   7
ENDBRANCH   5   6
ENDBRANCH   4   5
ENDBRANCH   3   4
ENDBRANCH   2   3
TORSDOF 37
ENDMDL
