MODEL      259
REMARK 921   NORMALIZED FREE ENERGY PREDICTED BY IDOCK:    6.61 KCAL/MOL
REMARK 922        TOTAL FREE ENERGY PREDICTED BY IDOCK:    7.06 KCAL/MOL
REMARK 923 INTER-LIGAND FREE ENERGY PREDICTED BY IDOCK:    7.50 KCAL/MOL
REMARK 924 INTRA-LIGAND FREE ENERGY PREDICTED BY IDOCK:   -0.44 KCAL/MOL
REMARK 927      BINDING AFFINITY PREDICTED BY RF-SCORE:    0.00 PKD
ROOT
HETATM    1  O5* UNL     1     -12.650  19.709  65.629  1.00  0.00     4.943 OA 
HETATM    2  H5* UNL     1     -12.975  20.595  65.526  1.00  0.00     0.000 HD 
HETATM    3  C5* UNL     1     -11.476  19.672  66.439  1.00  0.00     0.799 C  
ENDROOT
BRANCH   3   4
HETATM    4  C4* UNL     1     -10.953  18.246  66.605  1.00  0.00     0.169 C  
HETATM    5  O4* UNL     1     -10.742  17.921  67.992  1.00  0.00    -0.378 OA 
HETATM    6  C1* UNL     1     -10.728  16.486  68.043  1.00  0.00    -0.343 C  
HETATM    7  H3* UNL     1     -12.074  16.112  64.416  1.00  0.00     0.000 HD 
HETATM    8  C2* UNL     1     -11.785  16.028  67.042  1.00  0.00     0.603 C  
HETATM    9  C3* UNL     1     -11.896  17.177  66.060  1.00  0.00     2.502 C  
HETATM   10  O3* UNL     1     -11.487  16.777  64.755  1.00  0.00    -0.425 OA 
BRANCH   6  11
HETATM   11  N   UNL     1     -10.933  15.982  69.399  1.00  0.00    -0.296 N  
HETATM   12  C   UNL     1     -12.386  15.590  71.261  1.00  0.00    -0.408 C  
HETATM   13  C   UNL     1     -12.189  15.946  69.984  1.00  0.00    -0.188 C  
HETATM   14  I   UNL     1     -14.237  15.592  72.129  1.00  0.00    -0.100 I  
HETATM   15  C   UNL     1     -11.193  15.211  72.067  1.00  0.00    -0.146 C  
HETATM   16  O   UNL     1     -11.239  14.935  73.260  1.00  0.00     0.160 OA 
HETATM   17  N   UNL     1     -10.002  15.197  71.392  1.00  0.00     0.789 N  
HETATM   18  C   UNL     1      -9.794  15.623  70.109  1.00  0.00     0.052 C  
HETATM   19  H   UNL     1      -9.192  14.834  71.894  1.00  0.00     0.000 HD 
HETATM   20  O   UNL     1      -8.653  15.678  69.656  1.00  0.00    -0.230 OA 
ENDBRANCH   6  11
ENDBRANCH   3   4
TORSDOF 2
ENDMDL
