MODEL       28
REMARK 921   NORMALIZED FREE ENERGY PREDICTED BY IDOCK:   -6.42 KCAL/MOL
REMARK 922        TOTAL FREE ENERGY PREDICTED BY IDOCK:  -12.14 KCAL/MOL
REMARK 923 INTER-LIGAND FREE ENERGY PREDICTED BY IDOCK:  -10.37 KCAL/MOL
REMARK 924 INTRA-LIGAND FREE ENERGY PREDICTED BY IDOCK:   -1.77 KCAL/MOL
REMARK 927      BINDING AFFINITY PREDICTED BY RF-SCORE:    0.00 PKD
ROOT
HETATM    1  C   UNL     1      -8.887  18.674  66.696  1.00  0.00    -0.302 C  
HETATM    2  O   UNL     1      -9.547  17.707  65.860  1.00  0.00    -0.514 OA 
ENDROOT
BRANCH   2   3
HETATM    3  C   UNL     1      -9.610  16.459  66.410  1.00  0.00    -0.288 C  
HETATM    4  N   UNL     1     -10.259  16.491  67.626  1.00  0.00    -0.271 N  
HETATM    5  O   UNL     1      -9.136  15.463  65.882  1.00  0.00    -0.311 OA 
HETATM    6  H   UNL     1     -10.614  17.385  67.968  1.00  0.00     0.000 HD 
BRANCH   4   7
HETATM    7  C   UNL     1     -10.461  15.287  68.452  1.00  0.00    -0.236 C  
HETATM    8  C   UNL     1     -10.435  15.723  69.952  1.00  0.00    -0.324 C  
BRANCH   7   9
HETATM    9  C   UNL     1     -11.810  14.482  68.230  1.00  0.00    -0.312 C  
BRANCH   9  10
HETATM   10  N   UNL     1     -12.533  14.410  66.917  1.00  0.00    -0.510 NA 
HETATM   11  H   UNL     1     -13.379  14.967  66.802  1.00  0.00     0.000 HD 
BRANCH  10  12
HETATM   12  C   UNL     1     -12.108  13.615  65.834  1.00  0.00    -0.439 A  
HETATM   13  N   UNL     1     -12.612  13.911  64.635  1.00  0.00    -0.658 NA 
HETATM   14  C   UNL     1     -12.299  13.070  63.644  1.00  0.00    -0.417 A  
HETATM   15  C   UNL     1     -11.432  11.999  63.747  1.00  0.00    -0.547 A  
HETATM   16  C   UNL     1     -10.889  11.722  64.989  1.00  0.00    -0.295 A  
HETATM   17  N   UNL     1     -11.290  12.514  66.061  1.00  0.00    -0.325 NA 
BRANCH  16  18
HETATM   18  C   UNL     1      -9.897  10.545  65.074  1.00  0.00    -0.369 A  
HETATM   19  C   UNL     1      -9.357   9.980  63.904  1.00  0.00    -0.263 A  
HETATM   20  N   UNL     1      -8.426   9.039  64.247  1.00  0.00    -0.181 NA 
HETATM   21  C   UNL     1      -9.144   9.809  66.105  1.00  0.00    -0.161 A  
HETATM   22  N   UNL     1      -8.311   8.895  65.558  1.00  0.00    -0.128 NA 
BRANCH  20  23
HETATM   23  C   UNL     1      -7.542   8.249  63.371  1.00  0.00    -0.131 C  
HETATM   24  C   UNL     1      -7.377   6.797  63.838  1.00  0.00    -0.079 C  
HETATM   25  C   UNL     1      -6.148   8.880  63.221  1.00  0.00    -0.089 C  
ENDBRANCH  20  23
BRANCH  21  26
HETATM   26  C   UNL     1      -9.145   9.824  67.568  1.00  0.00    -0.142 A  
HETATM   27  C   UNL     1      -7.967   9.932  68.347  1.00  0.00    -0.096 A  
HETATM   28  C   UNL     1      -8.010   9.761  69.735  1.00  0.00    -0.164 A  
HETATM   29 CL   UNL     1      -6.620  10.038  70.707  1.00  0.00    -0.082 Cl 
HETATM   30  C   UNL     1      -9.198   9.352  70.356  1.00  0.00    -0.305 A  
HETATM   31  C   UNL     1     -10.328   9.260  69.566  1.00  0.00    -0.216 A  
HETATM   32  C   UNL     1     -10.321   9.652  68.242  1.00  0.00    -0.204 A  
HETATM   33  F   UNL     1     -11.497   9.905  67.671  1.00  0.00    -0.296 F  
BRANCH  31  34
HETATM   34  N   UNL     1     -11.579   8.796  70.071  1.00  0.00    -0.448 N  
HETATM   35  H   UNL     1     -12.189   8.174  69.540  1.00  0.00     0.000 HD 
BRANCH  34  36
HETATM   36  S   UNL     1     -11.979   9.353  71.615  1.00  0.00    -0.401 S  
HETATM   37  O   UNL     1     -11.304   8.565  72.619  1.00  0.00    -0.343 OA 
HETATM   38  O   UNL     1     -11.834  10.791  71.538  1.00  0.00    -0.126 OA 
HETATM   39  C   UNL     1     -13.703   8.937  71.594  1.00  0.00    -0.395 C  
ENDBRANCH  34  36
ENDBRANCH  31  34
ENDBRANCH  21  26
ENDBRANCH  16  18
ENDBRANCH  10  12
ENDBRANCH   9  10
ENDBRANCH   7   9
ENDBRANCH   4   7
ENDBRANCH   2   3
TORSDOF 10
ENDMDL
