MODEL      151
REMARK 921   NORMALIZED FREE ENERGY PREDICTED BY IDOCK:   -4.36 KCAL/MOL
REMARK 922        TOTAL FREE ENERGY PREDICTED BY IDOCK:   -5.58 KCAL/MOL
REMARK 923 INTER-LIGAND FREE ENERGY PREDICTED BY IDOCK:   -5.25 KCAL/MOL
REMARK 924 INTRA-LIGAND FREE ENERGY PREDICTED BY IDOCK:   -0.33 KCAL/MOL
REMARK 927      BINDING AFFINITY PREDICTED BY RF-SCORE:    0.00 PKD
ROOT
HETATM    1  C   UNL     1     -12.388  12.515  64.050  1.00  0.00    -0.557 C  
HETATM    2  C   UNL     1     -10.872  12.577  63.998  1.00  0.00    -0.446 C  
ENDROOT
BRANCH   2   3
HETATM    3  C   UNL     1     -10.259  12.581  65.384  1.00  0.00    -0.283 C  
HETATM    4  O   UNL     1      -9.384  11.801  65.744  1.00  0.00    -0.232 OA 
HETATM    5  N   UNL     1     -10.789  13.552  66.207  1.00  0.00    -0.288 N  
HETATM    6  H   UNL     1     -11.506  14.178  65.840  1.00  0.00     0.000 HD 
BRANCH   5   7
HETATM    7  C   UNL     1     -10.351  13.704  67.582  1.00  0.00    -0.239 C  
BRANCH   7   8
HETATM    8  C   UNL     1      -9.292  14.800  67.715  1.00  0.00    -0.199 C  
BRANCH   8   9
HETATM    9  C   UNL     1      -9.748  16.054  68.472  1.00  0.00    -0.214 C  
HETATM   10  C   UNL     1     -11.084  16.660  67.954  1.00  0.00    -0.212 C  
HETATM   11  C   UNL     1     -10.768  17.995  67.236  1.00  0.00    -0.305 C  
HETATM   12  C   UNL     1      -9.350  18.292  67.635  1.00  0.00    -0.271 A  
HETATM   13  C   UNL     1      -8.794  17.200  68.333  1.00  0.00    -0.255 A  
HETATM   14  C   UNL     1      -7.478  17.386  68.759  1.00  0.00    -0.258 A  
HETATM   15  C   UNL     1      -6.902  18.603  68.400  1.00  0.00    -0.249 A  
HETATM   16  O   UNL     1      -5.590  18.695  68.845  1.00  0.00    -0.194 OA 
HETATM   17  C   UNL     1      -7.455  19.658  67.699  1.00  0.00    -0.304 A  
HETATM   18  C   UNL     1      -8.758  19.499  67.297  1.00  0.00    -0.348 A  
HETATM   19  C   UNL     1      -5.309  17.452  69.540  1.00  0.00    -0.178 C  
HETATM   20  C   UNL     1      -6.544  16.545  69.511  1.00  0.00    -0.217 C  
ENDBRANCH   8   9
ENDBRANCH   7   8
ENDBRANCH   5   7
ENDBRANCH   2   3
TORSDOF 4
ENDMDL
