MODEL       98
REMARK 921   NORMALIZED FREE ENERGY PREDICTED BY IDOCK:   -4.34 KCAL/MOL
REMARK 922        TOTAL FREE ENERGY PREDICTED BY IDOCK:   -8.82 KCAL/MOL
REMARK 923 INTER-LIGAND FREE ENERGY PREDICTED BY IDOCK:   -8.03 KCAL/MOL
REMARK 924 INTRA-LIGAND FREE ENERGY PREDICTED BY IDOCK:   -0.80 KCAL/MOL
REMARK 927      BINDING AFFINITY PREDICTED BY RF-SCORE:    0.00 PKD
ROOT
HETATM    1  C   UNK     1     -14.313   8.471  71.986  1.00  0.00    -0.447 C  
HETATM    2  O   UNK     1     -13.901   7.238  71.413  1.00  0.00    -0.394 OA 
ENDROOT
BRANCH   2   3
HETATM    3  C   UNK     1     -12.483   7.181  71.259  1.00  0.00    -0.386 C  
BRANCH   3   4
HETATM    4  C   UNK     1     -11.827   7.981  72.378  1.00  0.00    -0.372 C  
BRANCH   4   5
HETATM    5  O   UNK     1     -10.887   8.896  71.817  1.00  0.00    -0.317 OA 
BRANCH   5   6
HETATM    6  C   UNK     1     -10.922   8.874  70.392  1.00  0.00    -0.244 C  
BRANCH   6   7
HETATM    7  C   UNK     1     -10.798  10.299  69.867  1.00  0.00    -0.355 C  
BRANCH   7   8
HETATM    8  C   UNK     1     -12.045  11.139  70.163  1.00  0.00    -0.443 C  
BRANCH   8   9
HETATM    9  C   UNK     1     -11.863  12.567  69.657  1.00  0.00    -0.382 C  
BRANCH   9  10
HETATM   10  C   UNK     1     -10.778  12.670  68.588  1.00  0.00    -0.269 C  
BRANCH  10  11
HETATM   11  C   UNK     1     -11.386  12.926  67.221  1.00  0.00    -0.310 C  
HETATM   12  O   UNK     1     -11.970  12.069  66.566  1.00  0.00    -0.616 OA 
HETATM   13  N   UNK     1     -11.215  14.220  66.782  1.00  0.00    -0.322 N  
HETATM   14  H   UNK     1     -10.684  14.878  67.353  1.00  0.00     0.000 HD 
BRANCH  13  15
HETATM   15  C   UNK     1     -11.779  14.663  65.522  1.00  0.00    -0.316 C  
BRANCH  15  16
HETATM   16  C   UNK     1     -11.023  15.851  64.922  1.00  0.00    -0.427 C  
BRANCH  16  17
HETATM   17  C   UNK     1      -9.936  16.358  65.869  1.00  0.00    -0.358 C  
BRANCH  17  18
HETATM   18  C   UNK     1     -10.392  17.572  66.692  1.00  0.00    -0.319 C  
BRANCH  18  19
HETATM   19  C   UNK     1      -9.774  17.626  68.097  1.00  0.00    -0.310 C  
HETATM   20  N   UNK     1     -10.773  17.253  69.141  1.00  0.00    -0.350 NA 
HETATM   21  C   UNK     1      -9.256  19.040  68.402  1.00  0.00    -0.352 C  
HETATM   22  O   UNK     1      -8.209  19.510  68.000  1.00  0.00    -0.301 OA 
HETATM   23  O   UNK     1     -10.155  19.736  69.153  1.00  0.00    -0.438 OA 
HETATM   24  H1  UNK     1     -10.363  17.288  70.074  1.00  0.00     0.000 HD 
HETATM   25  H2  UNK     1     -11.192  16.342  68.950  1.00  0.00     0.000 HD 
ENDBRANCH  18  19
ENDBRANCH  17  18
ENDBRANCH  16  17
ENDBRANCH  15  16
ENDBRANCH  13  15
ENDBRANCH  10  11
ENDBRANCH   9  10
ENDBRANCH   8   9
ENDBRANCH   7   8
ENDBRANCH   6   7
ENDBRANCH   5   6
ENDBRANCH   4   5
ENDBRANCH   3   4
ENDBRANCH   2   3
TORSDOF 14
ENDMDL
