MODEL      148
REMARK 921   NORMALIZED FREE ENERGY PREDICTED BY IDOCK:   -4.92 KCAL/MOL
REMARK 922        TOTAL FREE ENERGY PREDICTED BY IDOCK:   -8.57 KCAL/MOL
REMARK 923 INTER-LIGAND FREE ENERGY PREDICTED BY IDOCK:   -8.59 KCAL/MOL
REMARK 924 INTRA-LIGAND FREE ENERGY PREDICTED BY IDOCK:    0.02 KCAL/MOL
REMARK 927      BINDING AFFINITY PREDICTED BY RF-SCORE:    0.00 PKD
ROOT
HETATM    1  C   UNL     1      -9.699  12.480  65.893  1.00  0.00    -0.219 C  
ENDROOT
BRANCH   1   2
HETATM    2  N   UNL     1     -10.077  13.575  66.802  1.00  0.00    -0.262 N  
HETATM    3  C   UNL     1      -9.670  16.986  67.886  1.00  0.00    -0.263 A  
HETATM    4  C   UNL     1     -10.247  17.617  68.974  1.00  0.00    -0.314 A  
HETATM    5  O   UNL     1     -11.772  12.713  68.146  1.00  0.00    -0.315 OA 
HETATM    6  C   UNL     1     -11.227  16.950  69.733  1.00  0.00     0.273 A  
HETATM    7  C   UNL     1      -9.549  14.816  66.597  1.00  0.00    -0.272 C  
HETATM    8  C   UNL     1     -11.045  13.621  67.791  1.00  0.00    -0.272 C  
HETATM    9  C   UNL     1     -11.701  15.657  69.406  1.00  0.00    -0.383 A  
HETATM   10  C   UNL     1     -11.037  15.005  68.360  1.00  0.00    -0.284 A  
HETATM   11  C   UNL     1     -10.073  15.694  67.626  1.00  0.00    -0.248 A  
HETATM   12  O   UNL     1      -8.797  15.186  65.712  1.00  0.00     0.025 OA 
BRANCH   9  13
HETATM   13  N   UNL     1     -12.719  15.038  70.159  1.00  0.00    -0.584 NA 
HETATM   14  H   UNL     1     -13.662  15.061  69.772  1.00  0.00     0.000 HD 
BRANCH  13  15
HETATM   15  C   UNL     1     -12.564  14.443  71.298  1.00  0.00    -0.351 C  
HETATM   16  C   UNL     1     -12.636  14.892  72.728  1.00  0.00    -0.477 C  
HETATM   17  O   UNL     1     -12.239  13.140  71.240  1.00  0.00    -0.341 OA 
HETATM   18  H   UNL     1     -12.125  12.703  72.076  1.00  0.00     0.000 HD 
ENDBRANCH  13  15
ENDBRANCH   9  13
ENDBRANCH   1   2
BRANCH   1  19
HETATM   19  C   UNL     1      -9.802  11.069  66.501  1.00  0.00    -0.241 A  
HETATM   20  C   UNL     1     -10.176   9.975  65.712  1.00  0.00    -0.270 A  
HETATM   21  C   UNL     1      -9.399   8.417  67.408  1.00  0.00    -0.148 A  
HETATM   22  C   UNL     1      -9.326  10.813  67.810  1.00  0.00    -0.158 A  
HETATM   23  C   UNL     1      -9.970   8.665  66.157  1.00  0.00    -0.204 A  
HETATM   24  C   UNL     1      -9.118   9.498  68.265  1.00  0.00    -0.127 A  
BRANCH  24  25
HETATM   25  O   UNL     1      -8.602   9.158  69.492  1.00  0.00    -0.126 OA 
BRANCH  25  26
HETATM   26  C   UNL     1      -9.298   9.555  70.669  1.00  0.00    -0.199 C  
HETATM   27  C   UNL     1     -10.353   8.500  70.978  1.00  0.00    -0.261 C  
ENDBRANCH  25  26
ENDBRANCH  24  25
BRANCH  21  28
HETATM   28  O   UNL     1      -9.072   7.165  67.870  1.00  0.00    -0.129 OA 
HETATM   29  C   UNL     1     -10.142   6.270  68.148  1.00  0.00    -0.152 C  
ENDBRANCH  21  28
ENDBRANCH   1  19
BRANCH   1  30
HETATM   30  C   UNL     1     -10.366  12.468  64.517  1.00  0.00    -0.336 C  
BRANCH  30  31
HETATM   31  S   UNL     1     -12.086  12.903  64.488  1.00  0.00    -0.438 S  
HETATM   32  O   UNL     1     -12.602  12.451  63.210  1.00  0.00    -0.661 OA 
HETATM   33  C   UNL     1     -12.177  14.679  64.466  1.00  0.00    -0.456 C  
HETATM   34  O   UNL     1     -12.696  12.454  65.722  1.00  0.00    -0.392 OA 
ENDBRANCH  30  31
ENDBRANCH   1  30
TORSDOF 9
ENDMDL
