MODEL      377
REMARK 921   NORMALIZED FREE ENERGY PREDICTED BY IDOCK:    4.76 KCAL/MOL
REMARK 922        TOTAL FREE ENERGY PREDICTED BY IDOCK:    5.88 KCAL/MOL
REMARK 923 INTER-LIGAND FREE ENERGY PREDICTED BY IDOCK:    0.23 KCAL/MOL
REMARK 924 INTRA-LIGAND FREE ENERGY PREDICTED BY IDOCK:    5.65 KCAL/MOL
REMARK 927      BINDING AFFINITY PREDICTED BY RF-SCORE:    0.00 PKD
ROOT
HETATM    1  C   UNL     1      -9.464   7.591  69.735  1.00  0.00    -0.156 C  
HETATM    2  O   UNL     1      -8.481   7.489  68.710  1.00  0.00    -0.128 OA 
ENDROOT
BRANCH   2   3
HETATM    3  C   UNL     1      -7.678   8.589  68.525  1.00  0.00    -0.103 A  
HETATM    4  C   UNL     1      -6.720   9.096  69.418  1.00  0.00    -0.048 A  
HETATM    5  C   UNL     1      -7.245  10.448  67.013  1.00  0.00    -0.093 A  
HETATM    6  C   UNL     1      -6.028  10.274  69.084  1.00  0.00    -0.037 A  
HETATM    7  C   UNL     1      -6.274  10.957  67.884  1.00  0.00    -0.054 A  
HETATM    8  C   UNL     1      -7.942   9.279  67.336  1.00  0.00    -0.106 A  
BRANCH   4   9
HETATM    9  O   UNL     1      -6.545   8.442  70.608  1.00  0.00    -0.036 OA 
HETATM   10  C   UNL     1      -5.954   9.164  71.680  1.00  0.00    -0.072 C  
ENDBRANCH   4   9
BRANCH   7  11
HETATM   11  C   UNL     1      -5.621  12.317  67.644  1.00  0.00    -0.107 C  
BRANCH  11  12
HETATM   12  C   UNL     1      -5.959  13.200  68.853  1.00  0.00    -0.079 C  
BRANCH  12  13
HETATM   13  N   UNL     1      -7.310  13.700  69.129  1.00  0.00    -0.017 NA 
HETATM   14  C   UNL     1      -7.364  15.157  69.228  1.00  0.00    -0.188 C  
BRANCH  13  15
HETATM   15  C   UNL     1      -8.300  13.206  68.135  1.00  0.00    -0.161 C  
BRANCH  15  16
HETATM   16  C   UNL     1      -9.831  13.300  68.427  1.00  0.00    -0.218 C  
BRANCH  16  17
HETATM   17  C   UNL     1     -10.618  14.244  67.490  1.00  0.00    -0.261 C  
BRANCH  17  18
HETATM   18  C   UNL     1     -10.519  15.782  67.691  1.00  0.00    -0.282 C  
HETATM   19  N   UNL     1     -12.155  16.856  65.880  1.00  0.00     2.603 NA 
HETATM   20  C   UNL     1     -11.102  16.215  69.121  1.00  0.00    -0.329 C  
HETATM   21  C   UNL     1     -11.434  16.402  66.670  1.00  0.00     0.661 C  
HETATM   22  C   UNL     1     -10.360  15.673  70.354  1.00  0.00    -0.106 C  
HETATM   23  C   UNL     1     -12.585  15.831  69.316  1.00  0.00     0.343 C  
BRANCH  18  24
HETATM   24  C   UNL     1      -9.055  16.184  67.478  1.00  0.00    -0.207 A  
HETATM   25  C   UNL     1      -8.547  17.404  67.959  1.00  0.00    -0.240 A  
HETATM   26  C   UNL     1      -7.274  17.865  67.608  1.00  0.00    -0.201 A  
HETATM   27  C   UNL     1      -8.213  15.408  66.663  1.00  0.00    -0.199 A  
HETATM   28  C   UNL     1      -6.464  17.072  66.779  1.00  0.00    -0.223 A  
HETATM   29  C   UNL     1      -6.932  15.840  66.337  1.00  0.00     1.089 A  
BRANCH  26  30
HETATM   30  O   UNL     1      -6.766  19.076  68.003  1.00  0.00    -0.225 OA 
HETATM   31  C   UNL     1      -7.584  20.223  67.802  1.00  0.00    -0.275 C  
ENDBRANCH  26  30
BRANCH  28  32
HETATM   32  O   UNL     1      -5.243  17.596  66.426  1.00  0.00    -0.148 OA 
HETATM   33  C   UNL     1      -5.207  18.393  65.248  1.00  0.00    -0.171 C  
ENDBRANCH  28  32
ENDBRANCH  18  24
ENDBRANCH  17  18
ENDBRANCH  16  17
ENDBRANCH  15  16
ENDBRANCH  13  15
ENDBRANCH  12  13
ENDBRANCH  11  12
ENDBRANCH   7  11
ENDBRANCH   2   3
TORSDOF 12
ENDMDL
