MODEL      151
REMARK 921   NORMALIZED FREE ENERGY PREDICTED BY IDOCK:   -3.92 KCAL/MOL
REMARK 922        TOTAL FREE ENERGY PREDICTED BY IDOCK:   -8.68 KCAL/MOL
REMARK 923 INTER-LIGAND FREE ENERGY PREDICTED BY IDOCK:   -7.86 KCAL/MOL
REMARK 924 INTRA-LIGAND FREE ENERGY PREDICTED BY IDOCK:   -0.82 KCAL/MOL
REMARK 927      BINDING AFFINITY PREDICTED BY RF-SCORE:    0.00 PKD
ROOT
HETATM    1  C   UNL     1     -10.226   8.507  71.954  1.00  0.00    -0.369 C  
HETATM    2  C   UNL     1     -11.456   9.376  71.727  1.00  0.00    -0.413 C  
ENDROOT
BRANCH   2   3
HETATM    3  C   UNL     1     -11.767   9.507  70.237  1.00  0.00    -0.168 C  
BRANCH   3   4
HETATM    4  C   UNL     1     -12.364  10.876  69.888  1.00  0.00    -0.354 C  
HETATM    5  C   UNL     1     -11.309  11.903  69.421  1.00  0.00    -0.327 C  
HETATM    6  C   UNL     1     -10.446  11.434  68.227  1.00  0.00    -0.221 C  
HETATM    7  C   UNL     1     -11.978  13.266  69.141  1.00  0.00    -0.296 C  
HETATM    8  C   UNL     1     -11.203  11.275  66.916  1.00  0.00    -0.300 C  
BRANCH   7   9
HETATM    9  O   UNL     1     -10.975  14.191  68.682  1.00  0.00    -0.241 OA 
BRANCH   9  10
HETATM   10  C   UNL     1     -10.495  15.055  69.615  1.00  0.00    -0.213 C  
HETATM   11  O   UNL     1     -10.988  15.242  70.717  1.00  0.00    -0.313 OA 
BRANCH  10  12
HETATM   12  C   UNL     1      -9.158  15.612  69.202  1.00  0.00    -0.256 C  
BRANCH  12  13
HETATM   13  C   UNL     1      -9.243  16.689  68.124  1.00  0.00    -0.220 C  
HETATM   14  O   UNL     1      -6.953  15.862  67.075  1.00  0.00    -0.205 OA 
HETATM   15  S   UNL     1      -8.288  16.261  66.702  1.00  0.00    -0.309 S  
HETATM   16  O   UNL     1      -9.096  14.920  66.297  1.00  0.00    -0.282 OA 
HETATM   17  O   UNL     1      -8.552  17.183  65.621  1.00  0.00    -0.470 OA 
BRANCH  13  18
HETATM   18  C   UNL     1      -8.727  17.993  68.644  1.00  0.00    -0.262 C  
HETATM   19  O   UNL     1      -9.224  19.081  68.387  1.00  0.00    -0.323 OA 
BRANCH  18  20
HETATM   20  O   UNL     1      -7.534  17.819  69.282  1.00  0.00    -0.141 OA 
BRANCH  20  21
HETATM   21  C   UNL     1      -6.474  18.681  68.832  1.00  0.00    -0.245 C  
HETATM   22  C   UNL     1      -6.486  20.088  69.458  1.00  0.00    -0.370 C  
HETATM   23  C   UNL     1      -6.451  20.045  71.002  1.00  0.00    -0.032 C  
HETATM   24  C   UNL     1      -5.348  20.970  68.895  1.00  0.00    -0.374 C  
HETATM   25  C   UNL     1      -5.183  19.457  71.607  1.00  0.00    -0.398 C  
BRANCH  24  26
HETATM   26  C   UNL     1      -5.402  21.152  67.376  1.00  0.00    -0.326 C  
BRANCH  26  27
HETATM   27  C   UNL     1      -6.842  21.268  66.874  1.00  0.00    -0.239 C  
HETATM   28  C   UNL     1      -7.028  20.497  65.574  1.00  0.00    -0.198 C  
ENDBRANCH  26  27
ENDBRANCH  24  26
ENDBRANCH  20  21
ENDBRANCH  18  20
ENDBRANCH  13  18
ENDBRANCH  12  13
ENDBRANCH  10  12
ENDBRANCH   9  10
ENDBRANCH   7   9
ENDBRANCH   3   4
ENDBRANCH   2   3
TORSDOF 11
ENDMDL
