MODEL       61
REMARK 921   NORMALIZED FREE ENERGY PREDICTED BY IDOCK:   -5.79 KCAL/MOL
REMARK 922        TOTAL FREE ENERGY PREDICTED BY IDOCK:   -9.97 KCAL/MOL
REMARK 923 INTER-LIGAND FREE ENERGY PREDICTED BY IDOCK:  -10.04 KCAL/MOL
REMARK 924 INTRA-LIGAND FREE ENERGY PREDICTED BY IDOCK:    0.06 KCAL/MOL
REMARK 927      BINDING AFFINITY PREDICTED BY RF-SCORE:    0.00 PKD
ROOT
HETATM    1  O   UNL     1     -10.435  14.820  70.400  1.00  0.00    -0.477 OA 
HETATM    2  C   UNL     1     -10.378  14.566  68.990  1.00  0.00    -0.223 C  
HETATM    3  H   UNL     1      -9.665  15.305  70.672  1.00  0.00     0.000 HD 
ENDROOT
BRANCH   2   4
HETATM    4  C   UNL     1     -10.197  15.914  68.324  1.00  0.00    -0.227 A  
HETATM    5  C   UNL     1      -9.718  18.428  67.167  1.00  0.00    -0.300 A  
HETATM    6  C   UNL     1      -9.433  16.027  67.150  1.00  0.00    -0.225 A  
HETATM    7  O   UNL     1      -8.691  19.789  65.593  1.00  0.00    -0.338 OA 
HETATM    8  O   UNL     1      -9.924  20.740  67.138  1.00  0.00    -0.422 OA 
HETATM    9  C   UNL     1     -10.733  17.082  68.897  1.00  0.00    -0.300 A  
HETATM   10  C   UNL     1      -9.192  17.276  66.570  1.00  0.00    -0.282 A  
HETATM   11  N   UNL     1      -9.423  19.746  66.591  1.00  0.00    -0.363 N  
HETATM   12  C   UNL     1     -10.499  18.335  68.325  1.00  0.00    -0.324 A  
ENDBRANCH   2   4
BRANCH   2  13
HETATM   13  C   UNL     1     -11.638  13.772  68.545  1.00  0.00    -0.338 C  
BRANCH  13  14
HETATM   14  N   UNL     1     -11.982  12.781  69.593  1.00  0.00    -0.310 N  
HETATM   15  C   UNL     1     -12.386  10.500  70.520  1.00  0.00    -0.343 C  
HETATM   16  C   UNL     1     -12.150  11.434  69.324  1.00  0.00    -0.289 C  
HETATM   17  H   UNL     1     -12.099  13.106  70.554  1.00  0.00     0.000 HD 
HETATM   18  O   UNL     1     -12.085  10.993  68.175  1.00  0.00    -0.610 OA 
HETATM   19 CL   UNL     1     -13.059  11.372  71.914  1.00  0.00    -0.578 Cl 
HETATM   20 CL   UNL     1     -10.857   9.715  70.952  1.00  0.00    -0.389 Cl 
ENDBRANCH  13  14
BRANCH  13  21
HETATM   21  C   UNL     1     -11.403  13.099  67.174  1.00  0.00    -0.316 C  
BRANCH  21  22
HETATM   22  O   UNL     1     -12.244  13.651  66.142  1.00  0.00    -0.417 OA 
BRANCH  22  23
HETATM   23  C   UNL     1     -12.267  12.958  64.973  1.00  0.00    -0.464 C  
HETATM   24  O   UNL     1     -13.258  12.431  64.486  1.00  0.00    -0.834 OA 
BRANCH  23  25
HETATM   25  C   UNL     1     -10.904  12.931  64.334  1.00  0.00    -0.404 C  
BRANCH  25  26
HETATM   26  C   UNL     1     -10.722  11.709  63.455  1.00  0.00    -0.495 C  
HETATM   27  C   UNL     1      -9.856  10.652  64.093  1.00  0.00    -0.335 C  
HETATM   28  O   UNL     1     -10.387  10.096  65.201  1.00  0.00    -0.257 OA 
HETATM   29  O   UNL     1      -8.780  10.306  63.632  1.00  0.00    -0.176 OA 
ENDBRANCH  25  26
ENDBRANCH  23  25
ENDBRANCH  22  23
ENDBRANCH  21  22
ENDBRANCH  13  21
ENDBRANCH   2  13
TORSDOF 8
ENDMDL
