MODEL       47
REMARK 921   NORMALIZED FREE ENERGY PREDICTED BY IDOCK:   -5.27 KCAL/MOL
REMARK 922        TOTAL FREE ENERGY PREDICTED BY IDOCK:  -10.22 KCAL/MOL
REMARK 923 INTER-LIGAND FREE ENERGY PREDICTED BY IDOCK:   -9.71 KCAL/MOL
REMARK 924 INTRA-LIGAND FREE ENERGY PREDICTED BY IDOCK:   -0.51 KCAL/MOL
REMARK 927      BINDING AFFINITY PREDICTED BY RF-SCORE:    0.00 PKD
ROOT
HETATM    1  C   UNL     1      -9.031  11.141  67.413  1.00  0.00    -0.139 C  
HETATM    2  N   UNL     1     -10.350  11.761  67.251  1.00  0.00    -0.203 NA 
ENDROOT
BRANCH   2   3
HETATM    3  C   UNL     1     -11.405  10.978  67.930  1.00  0.00    -0.311 C  
BRANCH   3   4
HETATM    4  C   UNL     1     -11.735  11.398  69.380  1.00  0.00    -0.406 C  
BRANCH   4   5
HETATM    5  C   UNL     1     -11.601  10.281  70.391  1.00  0.00    -0.411 A  
HETATM    6  C   UNL     1     -11.330   8.271  72.325  1.00  0.00    -0.378 A  
HETATM    7  C   UNL     1     -10.349   9.703  70.648  1.00  0.00    -0.365 A  
HETATM    8  C   UNL     1     -12.720   9.811  71.090  1.00  0.00    -0.433 A  
HETATM    9  C   UNL     1     -10.213   8.700  71.611  1.00  0.00    -0.366 A  
HETATM   10  C   UNL     1     -12.585   8.809  72.054  1.00  0.00    -0.447 A  
BRANCH   6  11
HETATM   11  N   UNL     1     -11.212   7.259  73.319  1.00  0.00    -0.587 N  
HETATM   12  H   UNL     1     -11.742   7.308  74.190  1.00  0.00     0.000 HD 
BRANCH  11  13
HETATM   13  S   UNL     1     -10.162   5.973  73.005  1.00  0.00    -0.204 S  
HETATM   14  O   UNL     1      -8.912   6.333  73.641  1.00  0.00    -0.124 OA 
HETATM   15  O   UNL     1     -10.211   5.613  71.606  1.00  0.00    -0.194 OA 
HETATM   16  C   UNL     1     -10.898   4.672  73.971  1.00  0.00    -0.263 C  
ENDBRANCH  11  13
ENDBRANCH   6  11
ENDBRANCH   4   5
ENDBRANCH   3   4
ENDBRANCH   2   3
BRANCH   2  17
HETATM   17  C   UNL     1     -10.627  11.933  65.805  1.00  0.00    -0.267 C  
BRANCH  17  18
HETATM   18  C   UNL     1     -12.024  12.485  65.481  1.00  0.00    -0.442 C  
BRANCH  18  19
HETATM   19  O   UNL     1     -11.905  13.832  65.008  1.00  0.00    -0.337 OA 
BRANCH  19  20
HETATM   20  C   UNL     1     -11.340  14.725  65.882  1.00  0.00    -0.331 A  
HETATM   21  C   UNL     1     -11.703  14.887  67.221  1.00  0.00    -0.308 A  
HETATM   22  C   UNL     1     -10.321  15.520  65.350  1.00  0.00    -0.422 A  
HETATM   23  C   UNL     1     -10.083  16.664  67.462  1.00  0.00    -0.273 A  
HETATM   24  C   UNL     1      -9.687  16.487  66.138  1.00  0.00    -0.344 A  
HETATM   25  C   UNL     1     -11.074  15.854  68.009  1.00  0.00    -0.334 A  
BRANCH  23  26
HETATM   26  N   UNL     1      -9.467  17.649  68.286  1.00  0.00    -0.285 N  
HETATM   27  H   UNL     1      -8.725  17.401  68.940  1.00  0.00     0.000 HD 
BRANCH  26  28
HETATM   28  S   UNL     1     -10.008  19.242  68.142  1.00  0.00    -0.416 S  
HETATM   29  O   UNL     1     -11.158  19.301  67.271  1.00  0.00    -0.442 OA 
HETATM   30  C   UNL     1      -8.621  20.024  67.343  1.00  0.00    -0.341 C  
HETATM   31  O   UNL     1     -10.069  19.748  69.499  1.00  0.00    -0.338 OA 
ENDBRANCH  26  28
ENDBRANCH  23  26
ENDBRANCH  19  20
ENDBRANCH  18  19
ENDBRANCH  17  18
ENDBRANCH   2  17
TORSDOF 11
ENDMDL
