MODEL      149
REMARK 921   NORMALIZED FREE ENERGY PREDICTED BY IDOCK:    0.61 KCAL/MOL
REMARK 922        TOTAL FREE ENERGY PREDICTED BY IDOCK:    0.09 KCAL/MOL
REMARK 923 INTER-LIGAND FREE ENERGY PREDICTED BY IDOCK:    0.34 KCAL/MOL
REMARK 924 INTRA-LIGAND FREE ENERGY PREDICTED BY IDOCK:   -0.26 KCAL/MOL
REMARK 927      BINDING AFFINITY PREDICTED BY RF-SCORE:    0.00 PKD
ROOT
HETATM    1  O   UNL     1      -8.084  14.156  66.840  1.00  0.00    -0.382 OA 
HETATM    2  C   UNL     1      -8.871  14.316  68.022  1.00  0.00    -0.178 C  
HETATM    3  H   UNL     1      -7.793  15.016  66.556  1.00  0.00     0.000 HD 
HETATM    4  C   UNL     1      -9.999  15.278  67.597  1.00  0.00    -0.222 A  
HETATM    5  C   UNL     1      -9.346  12.914  68.485  1.00  0.00    -0.075 C  
HETATM    6  C   UNL     1      -8.009  14.918  69.237  1.00  0.00    -0.153 C  
HETATM    7  C   UNL     1      -9.748  16.276  66.623  1.00  0.00    -0.266 A  
HETATM    8  C   UNL     1     -11.294  15.220  68.124  1.00  0.00    -0.346 A  
HETATM    9  C   UNL     1      -7.332  16.279  68.917  1.00  0.00    -0.198 C  
HETATM   10  C   UNL     1     -12.303  16.088  67.673  1.00  0.00     1.403 A  
HETATM   11  C   UNL     1      -5.364  15.876  70.266  1.00  0.00    -0.154 C  
HETATM   12  C   UNL     1      -5.825  15.931  68.828  1.00  0.00    -0.101 C  
HETATM   13  C   UNL     1      -5.955  14.793  70.796  1.00  0.00    -0.105 C  
HETATM   14  C   UNL     1      -5.759  14.425  68.561  1.00  0.00    -0.096 C  
HETATM   15  C   UNL     1     -12.023  17.068  66.705  1.00  0.00     2.421 A  
HETATM   16  C   UNL     1      -6.740  14.089  69.680  1.00  0.00    -0.064 C  
HETATM   17  C   UNL     1     -10.736  17.174  66.199  1.00  0.00    -0.094 A  
ENDROOT
BRANCH   5  18
HETATM   18  C   UNL     1     -10.163  12.023  67.528  1.00  0.00    -0.198 C  
BRANCH  18  19
HETATM   19  N   UNL     1     -10.045  10.616  67.973  1.00  0.00    -0.154 NA 
HETATM   20  C   UNL     1      -8.432   9.726  66.280  1.00  0.00    -0.129 C  
HETATM   21  C   UNL     1      -9.829   9.646  66.888  1.00  0.00    -0.200 C  
HETATM   22  C   UNL     1      -7.381   9.476  67.353  1.00  0.00    -0.087 C  
HETATM   23  C   UNL     1      -7.594  10.388  68.559  1.00  0.00    -0.095 C  
HETATM   24  C   UNL     1      -9.051  10.407  69.034  1.00  0.00    -0.187 C  
ENDBRANCH  18  19
ENDBRANCH   5  18
TORSDOF 2
ENDMDL
