MODEL       12
REMARK 921   NORMALIZED FREE ENERGY PREDICTED BY IDOCK:   -5.97 KCAL/MOL
REMARK 922        TOTAL FREE ENERGY PREDICTED BY IDOCK:  -13.89 KCAL/MOL
REMARK 923 INTER-LIGAND FREE ENERGY PREDICTED BY IDOCK:  -10.71 KCAL/MOL
REMARK 924 INTRA-LIGAND FREE ENERGY PREDICTED BY IDOCK:   -3.18 KCAL/MOL
REMARK 927      BINDING AFFINITY PREDICTED BY RF-SCORE:    0.00 PKD
ROOT
HETATM    1  O   UNL     1     -13.653  14.359  65.462  1.00  0.00    -0.576 OA 
HETATM    2  C   UNL     1     -12.301  14.336  65.001  1.00  0.00    -0.428 C  
HETATM    3  H   UNL     1     -14.063  15.186  65.235  1.00  0.00     0.000 HD 
ENDROOT
BRANCH   2   4
HETATM    4  C   UNL     1     -11.651  13.026  65.361  1.00  0.00    -0.374 A  
HETATM    5  C   UNL     1     -11.056  12.188  64.410  1.00  0.00    -0.333 A  
HETATM    6  O   UNL     1     -11.087  12.480  63.075  1.00  0.00    -0.695 OA 
HETATM    7  C   UNL     1     -10.431  11.003  64.777  1.00  0.00    -0.384 A  
HETATM    8  C   UNL     1     -10.409  10.617  66.115  1.00  0.00    -0.291 A  
HETATM    9  H   UNL     1     -10.684  11.911  62.429  1.00  0.00     0.000 HD 
HETATM   10  C   UNL     1     -10.997  11.425  67.101  1.00  0.00    -0.340 A  
HETATM   11  C   UNL     1     -11.593  12.638  66.712  1.00  0.00    -0.438 A  
BRANCH  10  12
HETATM   12  C   UNL     1     -11.025  11.003  68.558  1.00  0.00    -0.228 C  
HETATM   13  O   UNL     1     -12.333  10.527  68.910  1.00  0.00    -0.779 OA 
HETATM   14  H   UNL     1     -12.351  10.262  69.823  1.00  0.00     0.000 HD 
BRANCH  12  15
HETATM   15  C   UNL     1      -9.991   9.898  68.866  1.00  0.00    -0.181 C  
BRANCH  15  16
HETATM   16  N   UNL     1      -8.858  10.429  69.641  1.00  0.00    -0.376 NA 
HETATM   17  H   UNL     1      -8.806  10.016  70.572  1.00  0.00     0.000 HD 
BRANCH  16  18
HETATM   18  C   UNL     1      -7.616  10.255  68.896  1.00  0.00    -0.094 C  
BRANCH  18  19
HETATM   19  C   UNL     1      -7.464  11.367  67.866  1.00  0.00    -0.095 C  
BRANCH  19  20
HETATM   20  C   UNL     1      -7.160  12.692  68.562  1.00  0.00    -0.101 C  
BRANCH  20  21
HETATM   21  C   UNL     1      -8.350  13.635  68.466  1.00  0.00    -0.110 C  
BRANCH  21  22
HETATM   22  C   UNL     1      -8.331  14.426  67.164  1.00  0.00    -0.214 C  
BRANCH  22  23
HETATM   23  C   UNL     1      -7.495  15.687  67.325  1.00  0.00    -0.222 C  
BRANCH  23  24
HETATM   24  O   UNL     1      -8.361  16.813  67.248  1.00  0.00    -0.170 OA 
BRANCH  24  25
HETATM   25  C   UNL     1      -9.635  16.455  66.719  1.00  0.00    -0.248 C  
BRANCH  25  26
HETATM   26  C   UNL     1     -10.719  17.111  67.564  1.00  0.00    -0.276 C  
BRANCH  26  27
HETATM   27  C   UNL     1     -11.404  16.086  68.470  1.00  0.00    -0.382 C  
BRANCH  27  28
HETATM   28  C   UNL     1     -10.829  16.101  69.885  1.00  0.00    -0.355 C  
BRANCH  28  29
HETATM   29  C   UNL     1     -11.755  15.363  70.824  1.00  0.00    -0.385 A  
HETATM   30  C   UNL     1     -12.122  15.931  72.048  1.00  0.00    -0.591 A  
HETATM   31  C   UNL     1     -12.911  15.215  72.948  1.00  0.00    -0.561 A  
HETATM   32  C   UNL     1     -13.337  13.926  72.633  1.00  0.00    -0.640 A  
HETATM   33  C   UNL     1     -12.979  13.353  71.413  1.00  0.00    -0.412 A  
HETATM   34  C   UNL     1     -12.190  14.068  70.511  1.00  0.00    -0.435 A  
ENDBRANCH  28  29
ENDBRANCH  27  28
ENDBRANCH  26  27
ENDBRANCH  25  26
ENDBRANCH  24  25
ENDBRANCH  23  24
ENDBRANCH  22  23
ENDBRANCH  21  22
ENDBRANCH  20  21
ENDBRANCH  19  20
ENDBRANCH  18  19
ENDBRANCH  16  18
ENDBRANCH  15  16
ENDBRANCH  12  15
ENDBRANCH  10  12
ENDBRANCH   2   4
TORSDOF 16
ENDMDL
