MODEL        7
REMARK 921   NORMALIZED FREE ENERGY PREDICTED BY IDOCK:   -7.57 KCAL/MOL
REMARK 922        TOTAL FREE ENERGY PREDICTED BY IDOCK:  -11.85 KCAL/MOL
REMARK 923 INTER-LIGAND FREE ENERGY PREDICTED BY IDOCK:  -10.51 KCAL/MOL
REMARK 924 INTRA-LIGAND FREE ENERGY PREDICTED BY IDOCK:   -1.34 KCAL/MOL
REMARK 927      BINDING AFFINITY PREDICTED BY RF-SCORE:    0.00 PKD
ROOT
HETATM    1  C   UNL     1     -12.103  13.325  63.566  1.00  0.00    -0.550 C  
HETATM    2  C   UNL     1     -10.813  12.584  63.889  1.00  0.00    -0.431 C  
ENDROOT
BRANCH   2   3
HETATM    3  N   UNL     1     -10.055  13.308  64.914  1.00  0.00    -0.542 NA 
HETATM    4  H   UNL     1     -10.400  14.265  64.991  1.00  0.00     0.000 HD 
BRANCH   3   5
HETATM    5  C   UNL     1     -10.022  12.668  66.258  1.00  0.00    -0.258 C  
HETATM    6  C   UNL     1     -10.549  11.226  66.206  1.00  0.00    -0.315 C  
HETATM    7  C   UNL     1     -10.474  10.543  67.575  1.00  0.00    -0.239 C  
HETATM    8  C   UNL     1     -11.373  11.285  68.603  1.00  0.00    -0.273 C  
HETATM    9  N   UNL     1     -10.878   9.132  67.412  1.00  0.00    -0.424 NA 
HETATM   10  C   UNL     1     -10.696  13.538  67.357  1.00  0.00    -0.263 C  
HETATM   11  H2  UNL     1     -10.332   8.646  66.700  1.00  0.00     0.000 HD 
HETATM   12  H1  UNL     1     -10.829   8.677  68.323  1.00  0.00     0.000 HD 
HETATM   13  C   UNL     1     -11.041  12.799  68.665  1.00  0.00    -0.266 C  
HETATM   14  H   UNL     1     -11.941  14.476  69.272  1.00  0.00     0.000 HD 
HETATM   15  O   UNL     1     -12.145  13.549  69.234  1.00  0.00    -0.322 OA 
BRANCH   8  16
HETATM   16  O   UNL     1     -11.182  10.667  69.917  1.00  0.00    -0.267 OA 
BRANCH  16  17
HETATM   17  C   UNL     1     -12.119   9.606  70.217  1.00  0.00     0.023 C  
HETATM   18  H1  UNL     1     -13.706  11.570  72.602  1.00  0.00     0.000 HD 
HETATM   19  O   UNL     1     -11.414   8.364  70.331  1.00  0.00    -0.234 OA 
HETATM   20  C   UNL     1     -11.072   7.962  71.603  1.00  0.00    -0.244 C  
HETATM   21  H2  UNL     1     -13.122  12.008  71.097  1.00  0.00     0.000 HD 
HETATM   22  N   UNL     1     -13.042  11.340  71.863  1.00  0.00    -0.477 NA 
HETATM   23  C   UNL     1     -11.890   8.192  72.638  1.00  0.00    -0.389 C  
HETATM   24  C   UNL     1     -13.139   9.959  71.352  1.00  0.00    -0.407 C  
HETATM   25  C   UNL     1     -13.191   8.893  72.451  1.00  0.00    -0.482 C  
BRANCH  20  26
HETATM   26  C   UNL     1      -9.764   7.206  71.662  1.00  0.00    -0.159 C  
HETATM   27  N   UNL     1      -8.694   7.757  70.832  1.00  0.00    -0.135 NA 
HETATM   28  H2  UNL     1      -8.543   8.739  71.060  1.00  0.00     0.000 HD 
HETATM   29  H1  UNL     1      -7.811   7.247  70.871  1.00  0.00     0.000 HD 
ENDBRANCH  20  26
ENDBRANCH  16  17
ENDBRANCH   8  16
BRANCH  10  30
HETATM   30  O   UNL     1     -10.024  14.826  67.587  1.00  0.00    -0.225 OA 
BRANCH  30  31
HETATM   31  C   UNL     1     -10.845  16.008  67.531  1.00  0.00    -0.292 C  
HETATM   32  O   UNL     1     -10.170  16.321  65.188  1.00  0.00    -0.566 OA 
HETATM   33  C   UNL     1      -9.409  18.457  68.270  1.00  0.00    -0.326 C  
HETATM   34  C   UNL     1     -10.502  17.035  66.391  1.00  0.00    -0.252 C  
HETATM   35  O   UNL     1     -10.855  16.634  68.805  1.00  0.00    -0.314 OA 
HETATM   36  O   UNL     1     -10.494  19.349  68.601  1.00  0.00    -0.493 OA 
HETATM   37  C   UNL     1      -9.423  18.112  66.737  1.00  0.00    -0.294 C  
HETATM   38  H   UNL     1     -10.396  20.145  68.090  1.00  0.00     0.000 HD 
HETATM   39  C   UNL     1      -8.123  19.169  68.692  1.00  0.00    -0.405 C  
HETATM   40  H   UNL     1      -9.963  16.942  64.500  1.00  0.00     0.000 HD 
HETATM   41  C   UNL     1      -9.567  17.182  69.087  1.00  0.00    -0.116 C  
BRANCH  37  42
HETATM   42  N   UNL     1      -9.583  19.387  65.981  1.00  0.00    -0.425 NA 
HETATM   43  H   UNL     1      -8.776  19.992  65.820  1.00  0.00     0.000 HD 
HETATM   44  C   UNL     1     -10.881  19.764  65.478  1.00  0.00    -0.151 C  
ENDBRANCH  37  42
ENDBRANCH  30  31
ENDBRANCH  10  30
ENDBRANCH   3   5
ENDBRANCH   2   3
TORSDOF 8
ENDMDL
