MODEL        1
REMARK 921   NORMALIZED FREE ENERGY PREDICTED BY IDOCK:   -9.16 KCAL/MOL
REMARK 922        TOTAL FREE ENERGY PREDICTED BY IDOCK:  -16.17 KCAL/MOL
REMARK 923 INTER-LIGAND FREE ENERGY PREDICTED BY IDOCK:  -14.51 KCAL/MOL
REMARK 924 INTRA-LIGAND FREE ENERGY PREDICTED BY IDOCK:   -1.66 KCAL/MOL
REMARK 927      BINDING AFFINITY PREDICTED BY RF-SCORE:    0.00 PKD
ROOT
HETATM    1  O   UNL     1     -11.379  16.962  64.153  1.00  0.00    -1.208 OA 
HETATM    2  C   UNL     1     -10.548  16.667  65.185  1.00  0.00    -0.161 C  
HETATM    3  C   UNL     1     -10.525  17.747  66.247  1.00  0.00    -0.307 C  
HETATM    4  O   UNL     1      -9.942  15.609  65.238  1.00  0.00    -0.335 OA 
ENDROOT
BRANCH   3   5
HETATM    5  C   UNL     1      -9.258  17.757  67.102  1.00  0.00    -0.253 C  
HETATM    6  C   UNL     1      -8.448  19.047  67.114  1.00  0.00    -0.297 C  
HETATM    7  C   UNL     1      -7.934  17.853  66.361  1.00  0.00    -0.302 C  
BRANCH   5   8
HETATM    8  C   UNL     1      -9.386  16.884  68.344  1.00  0.00    -0.255 C  
BRANCH   8   9
HETATM    9  S   UNL     1     -10.988  16.802  69.169  1.00  0.00    -0.137 SA 
BRANCH   9  10
HETATM   10  C   UNL     1     -11.338  14.982  69.057  1.00  0.00    -0.290 C  
BRANCH  10  11
HETATM   11  C   UNL     1     -11.716  14.488  67.640  1.00  0.00    -0.410 C  
BRANCH  11  12
HETATM   12  C   UNL     1     -11.878  12.958  67.500  1.00  0.00    -0.407 C  
BRANCH  12  13
HETATM   13  C   UNL     1     -11.622  12.477  66.078  1.00  0.00    -0.456 A  
HETATM   14  C   UNL     1     -12.287  13.214  65.065  1.00  0.00    -0.511 A  
HETATM   15  C   UNL     1     -11.313  11.881  63.340  1.00  0.00    -0.465 A  
HETATM   16  H   UNL     1      -8.600  10.883  68.106  1.00  0.00     0.000 HD 
HETATM   17  C   UNL     1     -12.152  12.911  63.716  1.00  0.00    -0.583 A  
HETATM   18  C   UNL     1      -8.994   9.533  66.048  1.00  0.00    -0.198 C  
HETATM   19  C   UNL     1     -10.623  11.157  64.315  1.00  0.00    -0.425 A  
HETATM   20  C   UNL     1     -10.755  11.414  65.703  1.00  0.00    -0.301 A  
HETATM   21  O   UNL     1      -9.099  11.408  67.491  1.00  0.00    -0.153 OA 
HETATM   22  C   UNL     1     -10.843   9.766  67.663  1.00  0.00    -0.301 C  
HETATM   23  C   UNL     1      -9.946  10.561  66.702  1.00  0.00    -0.211 C  
ENDBRANCH  12  13
ENDBRANCH  11  12
ENDBRANCH  10  11
BRANCH  10  24
HETATM   24  C   UNL     1     -12.308  14.563  70.165  1.00  0.00    -0.398 A  
HETATM   25  C   UNL     1     -14.005  13.707  72.251  1.00  0.00    -0.661 A  
HETATM   26  C   UNL     1     -13.177  15.461  70.804  1.00  0.00    -0.440 A  
HETATM   27  C   UNL     1     -12.313  13.222  70.605  1.00  0.00    -0.416 A  
HETATM   28  C   UNL     1     -14.016  15.037  71.836  1.00  0.00    -0.604 A  
HETATM   29  C   UNL     1     -13.166  12.777  71.630  1.00  0.00    -0.410 A  
BRANCH  29  30
HETATM   30  C   UNL     1     -13.086  11.374  72.067  1.00  0.00    -0.423 C  
HETATM   31  C   UNL     1     -12.422  10.404  71.413  1.00  0.00    -0.521 C  
BRANCH  31  32
HETATM   32  C   UNL     1     -12.354   8.996  71.819  1.00  0.00    -0.367 A  
HETATM   33  N   UNL     1     -11.190   8.638  72.414  1.00  0.00    -0.331 NA 
HETATM   34  C   UNL     1     -11.008   7.351  72.763  1.00  0.00    -0.339 A  
HETATM   35  C   UNL     1     -11.981   6.361  72.514  1.00  0.00    -0.123 A  
HETATM   36  C   UNL     1     -13.171   6.751  71.895  1.00  0.00    -0.166 A  
HETATM   37  C   UNL     1     -11.744   5.022  72.872  1.00  0.00    -0.200 A  
HETATM   38  C   UNL     1     -10.541   4.663  73.473  1.00  0.00    -0.304 A  
HETATM   39  C   UNL     1     -13.357   8.081  71.536  1.00  0.00    -0.324 A  
HETATM   40  C   UNL     1      -9.586   5.642  73.725  1.00  0.00    -0.143 A  
HETATM   41  C   UNL     1      -9.823   6.970  73.373  1.00  0.00    -0.273 A  
HETATM   42 CL   UNL     1      -8.096   5.203  74.467  1.00  0.00    -0.101 Cl 
ENDBRANCH  31  32
ENDBRANCH  29  30
ENDBRANCH  10  24
ENDBRANCH   9  10
ENDBRANCH   8   9
ENDBRANCH   5   8
ENDBRANCH   3   5
TORSDOF 10
ENDMDL
