MODEL       55
REMARK 921   NORMALIZED FREE ENERGY PREDICTED BY IDOCK:   -6.19 KCAL/MOL
REMARK 922        TOTAL FREE ENERGY PREDICTED BY IDOCK:  -13.33 KCAL/MOL
REMARK 923 INTER-LIGAND FREE ENERGY PREDICTED BY IDOCK:  -11.50 KCAL/MOL
REMARK 924 INTRA-LIGAND FREE ENERGY PREDICTED BY IDOCK:   -1.82 KCAL/MOL
REMARK 927      BINDING AFFINITY PREDICTED BY RF-SCORE:    0.00 PKD
ROOT
HETATM    1  C   UNL     1      -7.572   8.116  67.815  1.00  0.00    -0.098 C  
HETATM    2  C   UNL     1      -7.192   9.466  68.400  1.00  0.00    -0.076 C  
HETATM    3  C   UNL     1      -5.967  10.107  67.744  1.00  0.00    -0.049 C  
HETATM    4  C   UNL     1      -8.225  10.537  68.767  1.00  0.00    -0.134 C  
ENDROOT
BRANCH   4   5
HETATM    5  N   UNL     1      -9.525  10.838  68.098  1.00  0.00    -0.153 N  
BRANCH   5   6
HETATM    6  C   UNL     1      -9.182  11.307  66.653  1.00  0.00    -0.180 C  
BRANCH   6   7
HETATM    7  C   UNL     1      -9.877  12.659  66.164  1.00  0.00    -0.259 C  
BRANCH   7   8
HETATM    8  C   UNL     1      -9.321  13.927  66.982  1.00  0.00    -0.251 C  
BRANCH   8   9
HETATM    9  N   UNL     1      -9.919  15.200  66.539  1.00  0.00    -0.255 N  
HETATM   10  C   UNL     1      -9.134  16.267  66.183  1.00  0.00    -0.341 C  
HETATM   11  H   UNL     1     -10.934  15.288  66.496  1.00  0.00     0.000 HD 
HETATM   12  O   UNL     1      -7.915  16.273  66.134  1.00  0.00    -0.257 OA 
BRANCH  10  13
HETATM   13  O   UNL     1      -9.921  17.330  65.865  1.00  0.00    -0.490 OA 
BRANCH  13  14
HETATM   14  C   UNL     1      -9.496  18.588  66.422  1.00  0.00    -0.301 C  
HETATM   15  C   UNL     1     -10.343  19.764  65.991  1.00  0.00    -0.612 C  
HETATM   16  O   UNL     1     -10.076  19.912  68.333  1.00  0.00    -0.428 OA 
HETATM   17  C   UNL     1     -10.217  20.715  67.156  1.00  0.00    -0.057 C  
HETATM   18  C   UNL     1      -9.693  18.588  67.934  1.00  0.00    -0.314 C  
ENDBRANCH  13  14
ENDBRANCH  10  13
ENDBRANCH   8   9
BRANCH   8  19
HETATM   19  C   UNL     1      -9.309  13.832  68.526  1.00  0.00    -0.144 C  
BRANCH  19  20
HETATM   20  C   UNL     1     -10.501  14.370  69.271  1.00  0.00    -0.154 A  
HETATM   21  C   UNL     1     -11.524  16.063  70.676  1.00  0.00    -0.427 A  
HETATM   22  C   UNL     1     -12.685  13.989  70.246  1.00  0.00    -0.270 A  
HETATM   23  C   UNL     1     -11.627  13.559  69.448  1.00  0.00    -0.369 A  
HETATM   24  C   UNL     1     -10.460  15.630  69.884  1.00  0.00    -0.327 A  
HETATM   25  C   UNL     1     -12.633  15.238  70.862  1.00  0.00    -0.471 A  
ENDBRANCH  19  20
ENDBRANCH   8  19
ENDBRANCH   7   8
BRANCH   7  26
HETATM   26  O   UNL     1     -11.343  12.535  66.060  1.00  0.00    -0.309 OA 
HETATM   27  O   UNL     1     -12.759  13.558  63.285  1.00  0.00    -0.726 OA 
HETATM   28  O   UNL     1     -11.904  11.552  64.042  1.00  0.00    -0.265 OA 
HETATM   29  O   UNL     1     -10.715  13.694  64.006  1.00  0.00    -0.235 OA 
HETATM   30  P   UNL     1     -12.090  13.075  64.595  1.00  0.00    -0.449 P  
ENDBRANCH   7  26
ENDBRANCH   6   7
ENDBRANCH   5   6
BRANCH   5  31
HETATM   31  S   UNL     1     -10.931   9.868  68.083  1.00  0.00    -0.156 S  
HETATM   32  O   UNL     1     -10.783   8.828  67.086  1.00  0.00    -0.271 OA 
HETATM   33  O   UNL     1     -12.078  10.750  67.994  1.00  0.00    -0.474 OA 
BRANCH  31  34
HETATM   34  C   UNL     1     -11.074   9.027  69.617  1.00  0.00    -0.067 A  
HETATM   35  N   UNL     1     -11.246   7.237  73.392  1.00  0.00    -0.571 NA 
HETATM   36  C   UNL     1     -10.555   7.743  69.782  1.00  0.00    -0.241 A  
HETATM   37  H1  UNL     1     -11.681   7.725  74.175  1.00  0.00     0.000 HD 
HETATM   38  H2  UNL     1     -10.290   6.998  73.657  1.00  0.00     0.000 HD 
HETATM   39  C   UNL     1     -11.514   9.760  70.720  1.00  0.00    -0.417 A  
HETATM   40  C   UNL     1     -11.581   9.157  71.967  1.00  0.00    -0.371 A  
HETATM   41  C   UNL     1     -10.619   7.149  71.044  1.00  0.00    -0.239 A  
HETATM   42  C   UNL     1     -11.217   7.818  72.120  1.00  0.00    -0.297 A  
ENDBRANCH  31  34
ENDBRANCH   5  31
ENDBRANCH   4   5
TORSDOF 12
ENDMDL
