MODEL        1
REMARK 921   NORMALIZED FREE ENERGY PREDICTED BY IDOCK:   -8.77 KCAL/MOL
REMARK 922        TOTAL FREE ENERGY PREDICTED BY IDOCK:  -11.33 KCAL/MOL
REMARK 923 INTER-LIGAND FREE ENERGY PREDICTED BY IDOCK:  -10.82 KCAL/MOL
REMARK 924 INTRA-LIGAND FREE ENERGY PREDICTED BY IDOCK:   -0.51 KCAL/MOL
REMARK 927      BINDING AFFINITY PREDICTED BY RF-SCORE:    0.00 PKD
ROOT
HETATM    1  C   UNL     1     -11.101   5.571  72.842  1.00  0.00    -0.299 C  
HETATM    2  N   UNL     1     -11.502   6.937  72.636  1.00  0.00    -0.430 N  
HETATM    3  C   UNL     1     -11.959   7.382  71.413  1.00  0.00    -0.310 C  
HETATM    4  H   UNL     1     -11.448   7.593  73.414  1.00  0.00     0.000 HD 
HETATM    5  O   UNL     1     -12.056   6.664  70.425  1.00  0.00    -0.374 OA 
ENDROOT
BRANCH   3   6
HETATM    6  C   UNL     1     -12.337   8.788  71.384  1.00  0.00    -0.353 A  
HETATM    7  C   UNL     1     -11.826   9.802  70.600  1.00  0.00    -0.281 A  
HETATM    8  N   UNL     1     -12.472  10.973  70.943  1.00  0.00    -0.381 NA 
HETATM    9  N   UNL     1     -13.401  10.758  71.917  1.00  0.00    -0.403 NA 
HETATM   10  C   UNL     1     -13.317   9.447  72.164  1.00  0.00    -0.468 A  
BRANCH   8  11
HETATM   11  C   UNL     1     -12.157  12.273  70.404  1.00  0.00    -0.300 A  
HETATM   12  N   UNL     1     -11.583  12.339  69.176  1.00  0.00    -0.297 NA 
HETATM   13  C   UNL     1     -11.562  13.598  68.702  1.00  0.00    -0.329 A  
HETATM   14  C   UNL     1     -11.995  14.743  69.348  1.00  0.00    -0.303 A  
HETATM   15  N   UNL     1     -11.860  15.849  68.542  1.00  0.00    -0.303 NA 
HETATM   16  C   UNL     1     -12.480  14.579  70.651  1.00  0.00    -0.343 A  
HETATM   17  N   UNL     1     -12.904  15.636  71.445  1.00  0.00    -0.466 NA 
HETATM   18  N   UNL     1     -12.557  13.332  71.160  1.00  0.00    -0.361 NA 
HETATM   19  C   UNL     1     -11.393  15.379  67.406  1.00  0.00    -0.243 A  
HETATM   20  H1  UNL     1     -13.258  15.516  72.394  1.00  0.00     0.000 HD 
HETATM   21  N   UNL     1     -11.151  14.027  67.468  1.00  0.00    -0.291 NA 
HETATM   22  H2  UNL     1     -13.614  16.146  70.919  1.00  0.00     0.000 HD 
BRANCH  21  23
HETATM   23  C1* UNL     1     -10.608  13.253  66.377  1.00  0.00    -0.284 C  
HETATM   24  O4* UNL     1     -10.370  14.136  65.266  1.00  0.00    -0.344 OA 
HETATM   25  C4* UNL     1     -11.363  13.890  64.249  1.00  0.00    -0.294 C  
HETATM   26  C3* UNL     1     -12.027  12.538  64.552  1.00  0.00    -0.404 C  
HETATM   27  H2* UNL     1     -11.104  10.177  65.463  1.00  0.00     0.000 HD 
HETATM   28  C2* UNL     1     -11.438  12.069  65.886  1.00  0.00    -0.333 C  
HETATM   29  O2* UNL     1     -10.588  10.914  65.769  1.00  0.00    -0.232 OA 
HETATM   30  O3* UNL     1     -11.775  11.578  63.517  1.00  0.00    -0.631 OA 
HETATM   31  H3* UNL     1     -12.186  10.742  63.705  1.00  0.00     0.000 HD 
BRANCH  25  32
HETATM   32  C5* UNL     1     -12.341  15.073  64.210  1.00  0.00    -0.226 C  
HETATM   33  O5* UNL     1     -11.659  16.259  63.799  1.00  0.00    -1.539 OA 
HETATM   34  H5* UNL     1     -12.264  16.991  63.775  1.00  0.00     0.000 HD 
ENDBRANCH  25  32
ENDBRANCH  21  23
ENDBRANCH   8  11
ENDBRANCH   3   6
TORSDOF 4
ENDMDL
