MODEL       18
REMARK 921   NORMALIZED FREE ENERGY PREDICTED BY IDOCK:   -6.63 KCAL/MOL
REMARK 922        TOTAL FREE ENERGY PREDICTED BY IDOCK:  -12.47 KCAL/MOL
REMARK 923 INTER-LIGAND FREE ENERGY PREDICTED BY IDOCK:  -11.22 KCAL/MOL
REMARK 924 INTRA-LIGAND FREE ENERGY PREDICTED BY IDOCK:   -1.25 KCAL/MOL
REMARK 927      BINDING AFFINITY PREDICTED BY RF-SCORE:    0.00 PKD
ROOT
HETATM    1  C   UNL     1     -11.469  15.883  69.501  1.00  0.00    -0.342 C  
HETATM    2  O   UNL     1     -11.507  16.323  68.145  1.00  0.00    -0.309 OA 
ENDROOT
BRANCH   2   3
HETATM    3  C   UNL     1     -10.603  17.297  67.809  1.00  0.00    -0.367 A  
HETATM    4  C   UNL     1     -10.108  17.353  66.489  1.00  0.00    -0.320 A  
HETATM    5  C   UNL     1      -9.171  18.345  66.147  1.00  0.00    -0.133 A  
HETATM    6  C   UNL     1     -10.093  18.183  68.771  1.00  0.00    -0.392 A  
HETATM    7 CL   UNL     1      -7.513  20.404  66.692  1.00  0.00    -0.310 Cl 
HETATM    8  C   UNL     1      -9.134  19.137  68.429  1.00  0.00    -0.405 A  
HETATM    9  C   UNL     1      -8.687  19.221  67.117  1.00  0.00    -0.290 A  
BRANCH   4  10
HETATM   10  C   UNL     1     -10.565  16.389  65.434  1.00  0.00    -0.320 C  
HETATM   11  H   UNL     1      -9.632  14.802  66.420  1.00  0.00     0.000 HD 
HETATM   12  O   UNL     1     -11.188  16.759  64.447  1.00  0.00    -1.112 OA 
HETATM   13  N   UNL     1     -10.249  15.054  65.647  1.00  0.00    -0.333 N  
BRANCH  13  14
HETATM   14  C   UNL     1     -10.779  14.008  64.791  1.00  0.00    -0.427 C  
BRANCH  14  15
HETATM   15  C   UNL     1     -11.936  13.228  65.426  1.00  0.00    -0.432 C  
BRANCH  15  16
HETATM   16  C   UNL     1     -11.574  12.377  66.631  1.00  0.00    -0.447 A  
HETATM   17  C   UNL     1     -10.868  11.167  66.533  1.00  0.00    -0.302 A  
HETATM   18  C   UNL     1     -10.623  10.382  67.663  1.00  0.00    -0.304 A  
HETATM   19  C   UNL     1     -11.074  10.805  68.913  1.00  0.00    -0.253 A  
HETATM   20  C   UNL     1     -11.988  12.805  67.904  1.00  0.00    -0.320 A  
HETATM   21  C   UNL     1     -11.754  12.019  69.037  1.00  0.00    -0.382 A  
BRANCH  19  22
HETATM   22  S   UNL     1     -10.912   9.720  70.313  1.00  0.00    -0.319 S  
HETATM   23  O   UNL     1     -11.768  10.243  71.361  1.00  0.00    -0.341 OA 
HETATM   24  O   UNL     1      -9.510   9.478  70.567  1.00  0.00    -0.252 OA 
BRANCH  22  25
HETATM   25  N   UNL     1     -11.639   8.304  69.832  1.00  0.00    -0.414 N  
HETATM   26  H   UNL     1     -12.540   8.366  69.358  1.00  0.00     0.000 HD 
BRANCH  25  27
HETATM   27  C   UNL     1     -11.095   7.048  70.035  1.00  0.00    -0.278 C  
HETATM   28  O   UNL     1     -11.184   6.146  69.223  1.00  0.00    -0.387 OA 
BRANCH  27  29
HETATM   29  N   UNL     1     -10.469   6.923  71.244  1.00  0.00    -0.207 N  
HETATM   30  H   UNL     1      -9.450   6.913  71.293  1.00  0.00     0.000 HD 
BRANCH  29  31
HETATM   31  C   UNL     1     -11.259   6.804  72.462  1.00  0.00    -0.268 C  
HETATM   32  C   UNL     1     -11.850   5.399  72.617  1.00  0.00    -0.145 C  
HETATM   33  C   UNL     1     -10.808   4.360  73.027  1.00  0.00    -0.293 C  
HETATM   34  C   UNL     1     -10.059   4.792  74.282  1.00  0.00    -0.251 C  
HETATM   35  C   UNL     1      -9.422   6.167  74.114  1.00  0.00    -0.173 C  
HETATM   36  C   UNL     1     -10.448   7.217  73.693  1.00  0.00    -0.391 C  
ENDBRANCH  29  31
ENDBRANCH  27  29
ENDBRANCH  25  27
ENDBRANCH  22  25
ENDBRANCH  19  22
ENDBRANCH  15  16
ENDBRANCH  14  15
ENDBRANCH  13  14
ENDBRANCH   4  10
ENDBRANCH   2   3
TORSDOF 10
ENDMDL
