MODEL      229
REMARK 921   NORMALIZED FREE ENERGY PREDICTED BY IDOCK:   17.79 KCAL/MOL
REMARK 922        TOTAL FREE ENERGY PREDICTED BY IDOCK:   21.17 KCAL/MOL
REMARK 923 INTER-LIGAND FREE ENERGY PREDICTED BY IDOCK:   19.35 KCAL/MOL
REMARK 924 INTRA-LIGAND FREE ENERGY PREDICTED BY IDOCK:    1.82 KCAL/MOL
REMARK 927      BINDING AFFINITY PREDICTED BY RF-SCORE:    0.00 PKD
ROOT
HETATM    1  C   UNL     1     -13.561  20.112  66.554  1.00  0.00     8.031 C  
HETATM    2  N   UNL     1     -12.648  19.190  65.878  1.00  0.00     6.436 NA 
HETATM    3  C   UNL     1     -11.987  19.819  64.727  1.00  0.00     4.735 C  
HETATM    4  C   UNL     1     -10.874  20.799  65.101  1.00  0.00     1.238 C  
HETATM    5  C   UNL     1      -9.873  20.175  66.064  1.00  0.00    -0.460 C  
HETATM    6  C   UNL     1     -10.585  19.540  67.253  1.00  0.00    -0.610 C  
HETATM    7  C   UNL     1     -11.692  18.561  66.825  1.00  0.00     2.106 C  
ENDROOT
BRANCH   7   8
HETATM    8  C   UNL     1     -11.142  17.271  66.184  1.00  0.00     0.437 C  
BRANCH   8   9
HETATM    9  C   UNL     1      -9.698  17.334  65.646  1.00  0.00     0.160 C  
BRANCH   9  10
HETATM   10  N   UNL     1      -8.629  17.126  66.662  1.00  0.00    -0.236 NA 
HETATM   11  C   UNL     1      -7.507  18.012  66.672  1.00  0.00    -0.224 A  
HETATM   12  C   UNL     1      -6.547  17.983  67.707  1.00  0.00    -0.187 A  
HETATM   13  S   UNL     1      -6.566  16.831  69.055  1.00  0.00    -0.217 SA 
HETATM   14  C   UNL     1      -5.466  18.896  67.741  1.00  0.00    -0.176 A  
HETATM   15  C   UNL     1      -5.298  19.852  66.751  1.00  0.00    -0.164 A  
HETATM   16  C   UNL     1      -8.006  15.859  68.712  1.00  0.00    -0.188 A  
HETATM   17  C   UNL     1      -6.197  19.882  65.702  1.00  0.00    -0.232 A  
HETATM   18  C   UNL     1      -8.852  16.068  67.607  1.00  0.00    -0.185 A  
HETATM   19  C   UNL     1      -9.947  15.177  67.502  1.00  0.00    -0.225 A  
HETATM   20  C   UNL     1      -7.263  18.970  65.659  1.00  0.00    -0.207 A  
HETATM   21  C   UNL     1     -10.268  14.232  68.489  1.00  0.00    -0.245 A  
HETATM   22  C   UNL     1      -8.275  14.847  69.658  1.00  0.00     0.039 A  
HETATM   23  C   UNL     1      -9.411  14.052  69.562  1.00  0.00     0.688 A  
BRANCH  21  24
HETATM   24  S   UNL     1     -11.801  13.275  68.393  1.00  0.00    -0.332 S  
HETATM   25  O   UNL     1     -11.944  12.590  69.721  1.00  0.00    -0.314 OA 
HETATM   26  C   UNL     1     -11.210  12.025  67.215  1.00  0.00    -0.311 C  
ENDBRANCH  21  24
ENDBRANCH   9  10
ENDBRANCH   8   9
ENDBRANCH   7   8
TORSDOF 4
ENDMDL
