MODEL       79
REMARK 921   NORMALIZED FREE ENERGY PREDICTED BY IDOCK:   -3.66 KCAL/MOL
REMARK 922        TOTAL FREE ENERGY PREDICTED BY IDOCK:   -4.54 KCAL/MOL
REMARK 923 INTER-LIGAND FREE ENERGY PREDICTED BY IDOCK:   -4.32 KCAL/MOL
REMARK 924 INTRA-LIGAND FREE ENERGY PREDICTED BY IDOCK:   -0.22 KCAL/MOL
REMARK 927      BINDING AFFINITY PREDICTED BY RF-SCORE:    0.00 PKD
ROOT
HETATM    1 CL   UNL     1      -6.307  15.643  68.522  1.00  0.00    -0.101 Cl 
HETATM    2  C   UNL     1      -8.059  15.953  68.729  1.00  0.00    -0.190 C  
HETATM    3  C   UNL     1      -8.788  15.694  67.406  1.00  0.00    -0.191 C  
ENDROOT
BRANCH   3   4
HETATM    4  N   UNL     1     -10.275  15.885  67.323  1.00  0.00    -0.272 NA 
BRANCH   4   5
HETATM    5  C   UNL     1     -10.561  17.121  66.555  1.00  0.00    -0.172 C  
HETATM    6 CL   UNL     1     -10.656  19.811  66.135  1.00  0.00    -0.591 Cl 
HETATM    7  C   UNL     1     -10.341  18.463  67.273  1.00  0.00    -0.392 C  
ENDBRANCH   4   5
BRANCH   4   8
HETATM    8  P   UNL     1     -10.961  14.476  66.747  1.00  0.00    -0.329 P  
HETATM    9  N   UNL     1     -11.599  14.808  65.282  1.00  0.00    -0.351 NA 
HETATM   10  H   UNL     1     -10.911  15.285  64.699  1.00  0.00     0.000 HD 
HETATM   11  C   UNL     1     -12.150  13.656  64.572  1.00  0.00    -0.419 C  
HETATM   12  O   UNL     1     -11.929  13.837  67.697  1.00  0.00    -0.358 OA 
HETATM   13  C   UNL     1     -11.599  12.317  65.082  1.00  0.00    -0.402 C  
HETATM   14  C   UNL     1     -10.121  12.383  65.457  1.00  0.00    -0.267 C  
HETATM   15  O   UNL     1      -9.795  13.445  66.340  1.00  0.00    -0.283 OA 
ENDBRANCH   4   8
ENDBRANCH   3   4
TORSDOF 3
ENDMDL
