MODEL      120
REMARK 921   NORMALIZED FREE ENERGY PREDICTED BY IDOCK:   -4.74 KCAL/MOL
REMARK 922        TOTAL FREE ENERGY PREDICTED BY IDOCK:  -12.18 KCAL/MOL
REMARK 923 INTER-LIGAND FREE ENERGY PREDICTED BY IDOCK:  -10.68 KCAL/MOL
REMARK 924 INTRA-LIGAND FREE ENERGY PREDICTED BY IDOCK:   -1.50 KCAL/MOL
REMARK 927      BINDING AFFINITY PREDICTED BY RF-SCORE:    0.00 PKD
ROOT
HETATM    1  C   UNL     1      -9.958  20.319  68.146  1.00  0.00    -0.421 C  
HETATM    2  C   UNL     1      -9.553  19.341  67.028  1.00  0.00    -0.394 C  
HETATM    3  C   UNL     1     -10.604  19.389  65.891  1.00  0.00    -0.551 C  
ENDROOT
BRANCH   2   4
HETATM    4  C   UNL     1      -8.216  19.806  66.413  1.00  0.00    -0.347 C  
HETATM    5  O   UNL     1      -7.881  21.126  66.836  1.00  0.00    -0.613 OA 
HETATM    6  H   UNL     1      -7.058  21.412  66.458  1.00  0.00     0.000 HD 
ENDBRANCH   2   4
BRANCH   2   7
HETATM    7  C   UNL     1      -9.404  17.885  67.571  1.00  0.00    -0.253 C  
HETATM    8  O   UNL     1     -10.242  17.626  68.710  1.00  0.00    -0.354 OA 
HETATM    9  H   UNL     1     -10.152  16.741  69.040  1.00  0.00     0.000 HD 
BRANCH   7  10
HETATM   10  C   UNL     1      -9.672  16.771  66.535  1.00  0.00    -0.283 C  
HETATM   11  O   UNL     1      -8.888  16.435  65.652  1.00  0.00    -0.406 OA 
HETATM   12  N   UNL     1     -10.869  16.122  66.738  1.00  0.00    -0.228 N  
HETATM   13  H   UNL     1     -11.521  16.475  67.439  1.00  0.00     0.000 HD 
BRANCH  12  14
HETATM   14  C   UNL     1     -11.213  14.946  65.971  1.00  0.00    -0.327 C  
BRANCH  14  15
HETATM   15  C   UNL     1     -11.962  13.894  66.783  1.00  0.00    -0.472 C  
BRANCH  15  16
HETATM   16  C   UNL     1     -11.482  13.958  68.216  1.00  0.00    -0.311 C  
HETATM   17  O   UNL     1     -10.301  13.803  68.510  1.00  0.00    -0.238 OA 
HETATM   18  N   UNL     1     -12.471  14.229  69.133  1.00  0.00    -0.528 N  
HETATM   19  H   UNL     1     -13.412  14.389  68.774  1.00  0.00     0.000 HD 
BRANCH  18  20
HETATM   20  C   UNL     1     -12.282  14.307  70.584  1.00  0.00    -0.357 C  
BRANCH  20  21
HETATM   21  C   UNL     1     -12.706  13.088  71.410  1.00  0.00    -0.281 C  
BRANCH  21  22
HETATM   22  S   UNL     1     -12.476  11.468  70.582  1.00  0.00    -0.275 SA 
BRANCH  22  23
HETATM   23  S   UNL     1     -13.340  10.118  71.877  1.00  0.00    -0.343 SA 
BRANCH  23  24
HETATM   24  C   UNL     1     -12.445   8.586  71.456  1.00  0.00    -0.317 C  
BRANCH  24  25
HETATM   25  C   UNL     1     -12.279   7.689  72.684  1.00  0.00    -0.014 C  
BRANCH  25  26
HETATM   26  N   UNL     1     -11.665   6.390  72.417  1.00  0.00    -0.431 N  
HETATM   27  H   UNL     1     -12.267   5.626  72.112  1.00  0.00     0.000 HD 
HETATM   28  C   UNL     1     -10.315   6.142  72.555  1.00  0.00    -0.193 C  
HETATM   29  O   UNL     1      -9.508   6.968  72.967  1.00  0.00    -0.141 OA 
BRANCH  28  30
HETATM   30  C   UNL     1      -9.885   4.761  72.115  1.00  0.00    -0.228 C  
BRANCH  30  31
HETATM   31  C   UNL     1      -9.689   4.737  70.602  1.00  0.00    -0.200 C  
BRANCH  31  32
HETATM   32  N   UNL     1      -9.461   6.063  70.059  1.00  0.00    -0.155 N  
HETATM   33  H   UNL     1      -8.630   6.578  70.352  1.00  0.00     0.000 HD 
HETATM   34  C   UNL     1     -10.324   6.651  69.165  1.00  0.00    -0.194 C  
HETATM   35  O   UNL     1     -11.392   6.151  68.825  1.00  0.00    -0.344 OA 
BRANCH  34  36
HETATM   36  C   UNL     1      -9.866   8.043  68.674  1.00  0.00    -0.174 C  
HETATM   37  O   UNL     1     -11.001   8.807  68.237  1.00  0.00    -0.456 OA 
HETATM   38  H   UNL     1     -10.719   9.663  67.935  1.00  0.00     0.000 HD 
BRANCH  36  39
HETATM   39  C   UNL     1      -8.797   7.981  67.548  1.00  0.00    -0.129 C  
HETATM   40  C   UNL     1      -7.382   8.252  68.098  1.00  0.00    -0.096 C  
HETATM   41  C   UNL     1      -8.791   6.556  66.946  1.00  0.00    -0.120 C  
BRANCH  39  42
HETATM   42  C   UNL     1      -9.141   9.001  66.436  1.00  0.00    -0.170 C  
HETATM   43  O   UNL     1      -8.801   8.510  65.144  1.00  0.00    -0.335 OA 
HETATM   44  H   UNL     1      -9.011   9.137  64.461  1.00  0.00     0.000 HD 
ENDBRANCH  39  42
ENDBRANCH  36  39
ENDBRANCH  34  36
ENDBRANCH  31  32
ENDBRANCH  30  31
ENDBRANCH  28  30
ENDBRANCH  25  26
ENDBRANCH  24  25
ENDBRANCH  23  24
ENDBRANCH  22  23
ENDBRANCH  21  22
ENDBRANCH  20  21
ENDBRANCH  18  20
ENDBRANCH  15  16
ENDBRANCH  14  15
ENDBRANCH  12  14
ENDBRANCH   7  10
ENDBRANCH   2   7
TORSDOF 19
ENDMDL
