MODEL       58
REMARK 921   NORMALIZED FREE ENERGY PREDICTED BY IDOCK:   -5.23 KCAL/MOL
REMARK 922        TOTAL FREE ENERGY PREDICTED BY IDOCK:  -13.22 KCAL/MOL
REMARK 923 INTER-LIGAND FREE ENERGY PREDICTED BY IDOCK:  -10.90 KCAL/MOL
REMARK 924 INTRA-LIGAND FREE ENERGY PREDICTED BY IDOCK:   -2.33 KCAL/MOL
REMARK 927      BINDING AFFINITY PREDICTED BY RF-SCORE:    0.00 PKD
ROOT
HETATM    1  C   UNL     1      -9.943   4.219  70.982  1.00  0.00    -0.223 C  
HETATM    2  C   UNL     1     -10.385   5.268  72.019  1.00  0.00    -0.273 C  
HETATM    3  C   UNL     1     -10.751   4.561  73.348  1.00  0.00    -0.320 C  
ENDROOT
BRANCH   2   4
HETATM    4  C   UNL     1      -9.195   6.202  72.329  1.00  0.00    -0.143 C  
HETATM    5  O   UNL     1      -9.469   7.036  73.451  1.00  0.00    -0.151 OA 
HETATM    6  H   UNL     1      -8.737   7.611  73.642  1.00  0.00     0.000 HD 
ENDBRANCH   2   4
BRANCH   2   7
HETATM    7  C   UNL     1     -11.592   6.109  71.498  1.00  0.00    -0.241 C  
HETATM    8  O   UNL     1     -12.280   6.808  72.550  1.00  0.00    -0.502 OA 
HETATM    9  H   UNL     1     -13.014   7.320  72.233  1.00  0.00     0.000 HD 
BRANCH   7  10
HETATM   10  C   UNL     1     -11.244   7.143  70.405  1.00  0.00    -0.287 C  
HETATM   11  O   UNL     1     -11.097   6.879  69.215  1.00  0.00    -0.233 OA 
HETATM   12  N   UNL     1     -11.183   8.434  70.882  1.00  0.00    -0.258 N  
HETATM   13  H   UNL     1     -11.244   8.603  71.886  1.00  0.00     0.000 HD 
BRANCH  12  14
HETATM   14  C   UNL     1     -11.033   9.552  69.978  1.00  0.00    -0.251 C  
BRANCH  14  15
HETATM   15  C   UNL     1      -9.587  10.012  69.825  1.00  0.00    -0.249 C  
BRANCH  15  16
HETATM   16  C   UNL     1      -9.062   9.523  68.493  1.00  0.00    -0.131 C  
HETATM   17  O   UNL     1      -7.866   9.328  68.301  1.00  0.00    -0.096 OA 
HETATM   18  N   UNL     1     -10.038   9.296  67.550  1.00  0.00    -0.203 N  
HETATM   19  H   UNL     1     -11.006   9.444  67.832  1.00  0.00     0.000 HD 
BRANCH  18  20
HETATM   20  C   UNL     1      -9.797   8.857  66.173  1.00  0.00    -0.256 C  
BRANCH  20  21
HETATM   21  C   UNL     1      -9.739   9.943  65.094  1.00  0.00    -0.306 C  
BRANCH  21  22
HETATM   22  S   UNL     1     -10.003  11.655  65.697  1.00  0.00    -0.248 SA 
BRANCH  22  23
HETATM   23  S   UNL     1     -10.957  12.595  64.132  1.00  0.00    -0.419 SA 
BRANCH  23  24
HETATM   24  C   UNL     1     -11.687  14.042  64.967  1.00  0.00    -0.364 C  
BRANCH  24  25
HETATM   25  C   UNL     1     -12.509  13.620  66.187  1.00  0.00    -0.395 C  
BRANCH  25  26
HETATM   26  N   UNL     1     -12.349  14.475  67.360  1.00  0.00    -0.575 N  
HETATM   27  H   UNL     1     -12.442  15.484  67.238  1.00  0.00     0.000 HD 
HETATM   28  C   UNL     1     -12.079  13.994  68.624  1.00  0.00    -0.297 C  
HETATM   29  O   UNL     1     -11.892  12.809  68.877  1.00  0.00    -0.305 OA 
BRANCH  28  30
HETATM   30  C   UNL     1     -12.068  15.049  69.707  1.00  0.00    -0.354 C  
BRANCH  30  31
HETATM   31  C   UNL     1     -10.671  15.651  69.829  1.00  0.00    -0.306 C  
BRANCH  31  32
HETATM   32  N   UNL     1     -10.498  16.809  68.973  1.00  0.00    -0.318 N  
HETATM   33  H   UNL     1     -10.898  17.701  69.266  1.00  0.00     0.000 HD 
HETATM   34  C   UNL     1      -9.815  16.749  67.781  1.00  0.00    -0.257 C  
HETATM   35  O   UNL     1      -9.380  15.706  67.302  1.00  0.00    -0.210 OA 
BRANCH  34  36
HETATM   36  C   UNL     1      -9.705  18.107  67.052  1.00  0.00    -0.307 C  
HETATM   37  O   UNL     1     -10.059  17.952  65.669  1.00  0.00    -0.567 OA 
HETATM   38  H   UNL     1      -9.990  18.787  65.221  1.00  0.00     0.000 HD 
BRANCH  36  39
HETATM   39  C   UNL     1      -8.301  18.762  67.175  1.00  0.00    -0.281 C  
HETATM   40  C   UNL     1      -7.705  18.559  68.583  1.00  0.00    -0.332 C  
HETATM   41  C   UNL     1      -7.345  18.081  66.167  1.00  0.00    -0.317 C  
BRANCH  39  42
HETATM   42  C   UNL     1      -8.392  20.272  66.849  1.00  0.00    -0.289 C  
HETATM   43  O   UNL     1      -9.701  20.645  66.432  1.00  0.00    -0.632 OA 
HETATM   44  H   UNL     1      -9.757  21.572  66.231  1.00  0.00     0.000 HD 
ENDBRANCH  39  42
ENDBRANCH  36  39
ENDBRANCH  34  36
ENDBRANCH  31  32
ENDBRANCH  30  31
ENDBRANCH  28  30
ENDBRANCH  25  26
ENDBRANCH  24  25
ENDBRANCH  23  24
ENDBRANCH  22  23
ENDBRANCH  21  22
ENDBRANCH  20  21
ENDBRANCH  18  20
ENDBRANCH  15  16
ENDBRANCH  14  15
ENDBRANCH  12  14
ENDBRANCH   7  10
ENDBRANCH   2   7
TORSDOF 19
ENDMDL
