MODEL      226
REMARK 921   NORMALIZED FREE ENERGY PREDICTED BY IDOCK:   -4.62 KCAL/MOL
REMARK 922        TOTAL FREE ENERGY PREDICTED BY IDOCK:  -10.58 KCAL/MOL
REMARK 923 INTER-LIGAND FREE ENERGY PREDICTED BY IDOCK:   -8.84 KCAL/MOL
REMARK 924 INTRA-LIGAND FREE ENERGY PREDICTED BY IDOCK:   -1.75 KCAL/MOL
REMARK 927      BINDING AFFINITY PREDICTED BY RF-SCORE:    0.00 PKD
ROOT
HETATM    1  C   UNL     1     -11.958   7.767  71.873  1.00  0.00    -0.340 C  
HETATM    2  C   UNL     1     -12.960   8.871  72.163  1.00  0.00    -0.416 C  
ENDROOT
BRANCH   2   3
HETATM    3  O   UNL     1     -13.071   9.681  70.988  1.00  0.00    -0.319 OA 
BRANCH   3   4
HETATM    4  C   UNL     1     -12.962  10.989  71.200  1.00  0.00    -0.324 A  
HETATM    5  N   UNL     1     -13.520  11.631  72.199  1.00  0.00    -0.320 NA 
HETATM    6  C   UNL     1     -13.157  12.935  72.026  1.00  0.00    -0.379 A  
HETATM    7  C   UNL     1     -12.291  13.104  70.927  1.00  0.00    -0.307 A  
HETATM    8  C   UNL     1     -11.720  14.376  70.675  1.00  0.00    -0.315 A  
HETATM    9  N   UNL     1     -12.283  11.839  70.353  1.00  0.00    -0.348 NA 
HETATM   10  C   UNL     1     -13.057  15.294  72.524  1.00  0.00    -0.503 A  
HETATM   11  C   UNL     1     -13.566  14.032  72.803  1.00  0.00    -0.515 A  
HETATM   12  C   UNL     1     -12.130  15.448  71.501  1.00  0.00    -0.437 A  
BRANCH   9  13
HETATM   13  C   UNL     1     -11.851  11.412  69.022  1.00  0.00    -0.348 C  
BRANCH  13  14
HETATM   14  C   UNL     1     -10.938  10.212  69.050  1.00  0.00    -0.265 A  
HETATM   15  C   UNL     1     -10.057   8.193  68.049  1.00  0.00    -0.241 A  
HETATM   16  C   UNL     1      -8.830   8.376  68.709  1.00  0.00    -0.140 A  
HETATM   17  C   UNL     1      -9.875  10.190  69.954  1.00  0.00    -0.223 A  
HETATM   18  C   UNL     1     -11.082   9.141  68.170  1.00  0.00     0.106 A  
HETATM   19  C   UNL     1      -8.822   9.295  69.771  1.00  0.00    -0.174 A  
BRANCH  16  20
HETATM   20  C   UNL     1      -7.558   7.761  68.225  1.00  0.00    -0.109 A  
HETATM   21  C   UNL     1      -7.375   6.363  68.353  1.00  0.00    -0.087 A  
HETATM   22  C   UNL     1      -6.452   8.514  67.729  1.00  0.00    -0.061 A  
HETATM   23  C   UNL     1      -6.180   5.728  68.000  1.00  0.00    -0.039 A  
HETATM   24  C   UNL     1      -5.279   7.840  67.318  1.00  0.00    -0.027 A  
HETATM   25  C   UNL     1      -5.138   6.464  67.461  1.00  0.00    -0.004 A  
BRANCH  22  26
HETATM   26  C   UNL     1      -6.380   9.979  67.649  1.00  0.00    -0.059 A  
HETATM   27  N   UNL     1      -6.354  10.829  68.662  1.00  0.00    -0.049 NA 
HETATM   28  H   UNL     1      -6.368  10.593  69.654  1.00  0.00     0.000 HD 
HETATM   29  N   UNL     1      -6.302  12.090  68.121  1.00  0.00    -0.051 NA 
HETATM   30  N   UNL     1      -6.322  12.037  66.798  1.00  0.00    -0.113 NA 
HETATM   31  N   UNL     1      -6.417  10.733  66.505  1.00  0.00    -0.108 NA 
ENDBRANCH  22  26
ENDBRANCH  16  20
ENDBRANCH  13  14
ENDBRANCH   9  13
BRANCH   8  32
HETATM   32  C   UNL     1     -10.846  14.703  69.523  1.00  0.00    -0.217 C  
HETATM   33  O   UNL     1     -10.046  13.915  69.046  1.00  0.00    -0.152 OA 
BRANCH  32  34
HETATM   34  O   UNL     1     -11.209  15.876  68.945  1.00  0.00    -0.297 OA 
BRANCH  34  35
HETATM   35  C   UNL     1     -10.619  16.056  67.650  1.00  0.00    -0.309 C  
HETATM   36  C   UNL     1     -11.757  16.516  66.738  1.00  0.00     1.168 C  
BRANCH  35  37
HETATM   37  O   UNL     1      -9.666  17.120  67.615  1.00  0.00    -0.254 OA 
BRANCH  37  38
HETATM   38  C   UNL     1      -8.504  16.855  66.979  1.00  0.00    -0.203 C  
HETATM   39  O   UNL     1      -8.371  16.206  65.956  1.00  0.00    -0.281 OA 
BRANCH  38  40
HETATM   40  O   UNL     1      -7.532  17.469  67.680  1.00  0.00    -0.181 OA 
BRANCH  40  41
HETATM   41  C   UNL     1      -7.691  18.740  68.350  1.00  0.00    -0.315 C  
HETATM   42  C   UNL     1      -5.308  20.523  68.313  1.00  0.00    -0.273 C  
HETATM   43  C   UNL     1      -6.664  18.774  69.484  1.00  0.00    -0.194 C  
HETATM   44  C   UNL     1      -5.277  19.154  68.976  1.00  0.00    -0.199 C  
HETATM   45  C   UNL     1      -6.313  20.591  67.166  1.00  0.00    -0.280 C  
HETATM   46  C   UNL     1      -7.693  20.030  67.522  1.00  0.00    -0.333 C  
ENDBRANCH  40  41
ENDBRANCH  38  40
ENDBRANCH  37  38
ENDBRANCH  35  37
ENDBRANCH  34  35
ENDBRANCH  32  34
ENDBRANCH   8  32
ENDBRANCH   3   4
ENDBRANCH   2   3
TORSDOF 13
ENDMDL
