MODEL       19
REMARK 921   NORMALIZED FREE ENERGY PREDICTED BY IDOCK:   -6.09 KCAL/MOL
REMARK 922        TOTAL FREE ENERGY PREDICTED BY IDOCK:  -13.20 KCAL/MOL
REMARK 923 INTER-LIGAND FREE ENERGY PREDICTED BY IDOCK:  -11.09 KCAL/MOL
REMARK 924 INTRA-LIGAND FREE ENERGY PREDICTED BY IDOCK:   -2.11 KCAL/MOL
REMARK 927      BINDING AFFINITY PREDICTED BY RF-SCORE:    0.00 PKD
ROOT
HETATM    1  C   UNL     1     -11.374   5.559  72.533  1.00  0.00    -0.323 C  
HETATM    2  C   UNL     1     -11.424   6.235  71.176  1.00  0.00    -0.299 C  
ENDROOT
BRANCH   2   3
HETATM    3  N   UNL     1     -12.335   7.358  71.175  1.00  0.00    -0.415 N  
HETATM    4  C   UNL     1     -11.933   8.599  71.616  1.00  0.00    -0.326 C  
HETATM    5  H   UNL     1     -13.290   7.229  70.842  1.00  0.00     0.000 HD 
HETATM    6  O   UNL     1     -10.807   8.830  72.039  1.00  0.00    -0.332 OA 
BRANCH   4   7
HETATM    7  C   UNL     1     -13.017   9.653  71.513  1.00  0.00    -0.486 C  
BRANCH   7   8
HETATM    8  C   UNL     1     -12.447  10.984  71.015  1.00  0.00    -0.512 C  
BRANCH   8   9
HETATM    9  C   UNL     1     -12.062  10.969  69.537  1.00  0.00    -0.400 C  
BRANCH   9  10
HETATM   10  C   UNL     1     -10.573  10.936  69.338  1.00  0.00    -0.233 C  
HETATM   11  C   UNL     1      -9.913  10.810  68.176  1.00  0.00    -0.176 C  
BRANCH  11  12
HETATM   12  C   UNL     1     -10.516  10.640  66.809  1.00  0.00    -0.303 C  
BRANCH  12  13
HETATM   13  C   UNL     1     -10.599  11.948  66.010  1.00  0.00    -0.304 C  
HETATM   14  C   UNL     1     -10.121  11.853  64.554  1.00  0.00    -0.271 C  
HETATM   15  C   UNL     1     -10.815  13.027  63.877  1.00  0.00    -0.347 C  
HETATM   16  O   UNL     1     -10.564  10.652  63.932  1.00  0.00    -0.479 OA 
HETATM   17  H   UNL     1     -10.268  10.593  63.031  1.00  0.00     0.000 HD 
HETATM   18  C   UNL     1     -12.222  12.995  64.468  1.00  0.00    -0.416 C  
HETATM   19  O   UNL     1     -13.049  12.120  63.698  1.00  0.00    -0.787 OA 
HETATM   20  C   UNL     1     -12.071  12.429  65.898  1.00  0.00    -0.352 C  
HETATM   21  H   UNL     1     -13.925  12.100  64.066  1.00  0.00     0.000 HD 
BRANCH  20  22
HETATM   22  C   UNL     1     -12.406  13.467  66.948  1.00  0.00    -0.289 C  
HETATM   23  C   UNL     1     -11.483  14.052  67.730  1.00  0.00    -0.351 C  
BRANCH  23  24
HETATM   24  C   UNL     1     -11.722  15.021  68.859  1.00  0.00    -0.328 C  
HETATM   25  H   UNL     1     -12.673  15.027  70.583  1.00  0.00     0.000 HD 
HETATM   26  O   UNL     1     -12.522  14.415  69.871  1.00  0.00    -0.327 OA 
BRANCH  24  27
HETATM   27  C   UNL     1     -10.425  15.506  69.520  1.00  0.00    -0.263 C  
BRANCH  27  28
HETATM   28  C   UNL     1      -9.386  16.025  68.521  1.00  0.00    -0.213 C  
BRANCH  28  29
HETATM   29  C   UNL     1      -9.723  17.419  68.052  1.00  0.00    -0.281 A  
HETATM   30  C   UNL     1     -10.017  17.657  66.704  1.00  0.00    -0.328 A  
HETATM   31  C   UNL     1     -10.285  18.951  66.257  1.00  0.00    -0.491 A  
HETATM   32  C   UNL     1     -10.261  20.017  67.154  1.00  0.00    -0.580 A  
HETATM   33  C   UNL     1      -9.973  19.789  68.498  1.00  0.00    -0.538 A  
HETATM   34  C   UNL     1      -9.704  18.496  68.947  1.00  0.00    -0.342 A  
ENDBRANCH  28  29
ENDBRANCH  27  28
ENDBRANCH  24  27
ENDBRANCH  23  24
ENDBRANCH  20  22
ENDBRANCH  12  13
ENDBRANCH  11  12
ENDBRANCH   9  10
ENDBRANCH   8   9
ENDBRANCH   7   8
ENDBRANCH   4   7
ENDBRANCH   2   3
TORSDOF 12
ENDMDL
