MODEL       15
REMARK 921   NORMALIZED FREE ENERGY PREDICTED BY IDOCK:   -5.28 KCAL/MOL
REMARK 922        TOTAL FREE ENERGY PREDICTED BY IDOCK:   -8.25 KCAL/MOL
REMARK 923 INTER-LIGAND FREE ENERGY PREDICTED BY IDOCK:   -8.06 KCAL/MOL
REMARK 924 INTRA-LIGAND FREE ENERGY PREDICTED BY IDOCK:   -0.19 KCAL/MOL
REMARK 927      BINDING AFFINITY PREDICTED BY RF-SCORE:    0.00 PKD
ROOT
HETATM    1  C   UNL     1     -12.118  14.294  64.355  1.00  0.00    -0.490 C  
HETATM    2  C   UNL     1     -12.570  14.185  65.801  1.00  0.00    -0.475 C  
ENDROOT
BRANCH   2   3
HETATM    3  C   UNL     1     -11.997  12.998  66.558  1.00  0.00    -0.391 C  
HETATM    4  N   UNL     1     -11.258  13.251  67.732  1.00  0.00    -0.267 N  
HETATM    5  O   UNL     1     -12.141  11.866  66.085  1.00  0.00    -0.519 OA 
BRANCH   4   6
HETATM    6  C   UNL     1     -10.715  12.057  68.353  1.00  0.00    -0.229 A  
HETATM    7  C   UNL     1     -11.408  11.349  69.341  1.00  0.00    -0.365 A  
HETATM    8  C   UNL     1     -10.824  10.248  69.982  1.00  0.00    -0.364 A  
HETATM    9  C   UNL     1      -9.451  11.587  67.967  1.00  0.00    -0.181 A  
HETATM   10  C   UNL     1      -9.539   9.836  69.639  1.00  0.00    -0.239 A  
HETATM   11  C   UNL     1      -8.854  10.503  68.626  1.00  0.00    -0.147 A  
ENDBRANCH   4   6
BRANCH   4  12
HETATM   12  C   UNL     1     -11.263  14.555  68.575  1.00  0.00    -0.266 C  
HETATM   13  C   UNL     1     -11.279  15.871  67.719  1.00  0.00    -0.258 C  
HETATM   14  N   UNL     1      -8.798  16.166  67.778  1.00  0.00    -0.183 NA 
HETATM   15  C   UNL     1      -9.991  16.107  66.928  1.00  0.00    -0.254 C  
HETATM   16  C   UNL     1      -9.982  14.706  69.455  1.00  0.00    -0.038 C  
HETATM   17  C   UNL     1      -8.728  14.956  68.608  1.00  0.00    -0.177 C  
BRANCH  12  18
HETATM   18  C   UNL     1     -12.527  14.616  69.504  1.00  0.00    -0.116 C  
BRANCH  18  19
HETATM   19  O   UNL     1     -12.481  15.696  70.432  1.00  0.00    -0.414 OA 
HETATM   20  C   UNL     1     -12.990  15.328  71.707  1.00  0.00    -0.394 C  
ENDBRANCH  18  19
ENDBRANCH  12  18
BRANCH  14  21
HETATM   21  C   UNL     1      -8.715  17.417  68.552  1.00  0.00    -0.277 C  
BRANCH  21  22
HETATM   22  C   UNL     1      -8.776  18.687  67.682  1.00  0.00    -0.288 C  
BRANCH  22  23
HETATM   23  C   UNL     1      -7.611  19.586  67.957  1.00  0.00    -0.296 A  
HETATM   24  C   UNL     1      -7.180  20.669  67.222  1.00  0.00    -0.388 A  
HETATM   25  C   UNL     1      -6.029  21.274  67.800  1.00  0.00    -0.413 A  
HETATM   26  C   UNL     1      -5.624  20.637  68.952  1.00  0.00    -0.339 A  
HETATM   27  S   UNL     1      -6.625  19.311  69.333  1.00  0.00    -0.294 SA 
ENDBRANCH  22  23
ENDBRANCH  21  22
ENDBRANCH  14  21
ENDBRANCH   4  12
ENDBRANCH   2   3
TORSDOF 8
ENDMDL
