MODEL       52
REMARK 921   NORMALIZED FREE ENERGY PREDICTED BY IDOCK:   -5.03 KCAL/MOL
REMARK 922        TOTAL FREE ENERGY PREDICTED BY IDOCK:   -8.89 KCAL/MOL
REMARK 923 INTER-LIGAND FREE ENERGY PREDICTED BY IDOCK:   -9.55 KCAL/MOL
REMARK 924 INTRA-LIGAND FREE ENERGY PREDICTED BY IDOCK:    0.66 KCAL/MOL
REMARK 927      BINDING AFFINITY PREDICTED BY RF-SCORE:    0.00 PKD
ROOT
HETATM    1  O   UNL     1     -11.774   7.547  72.745  1.00  0.00    -0.530 OA 
HETATM    2  H   UNL     1     -11.111   7.164  73.306  1.00  0.00     0.000 HD 
HETATM    3  C   UNL     1     -11.223   8.702  72.117  1.00  0.00    -0.367 C  
HETATM    4  C   UNL     1     -12.283   9.314  71.219  1.00  0.00    -0.334 C  
HETATM    5  O   UNL     1     -11.787  10.471  70.579  1.00  0.00    -0.291 OA 
HETATM    6  C   UNL     1     -10.703  10.218  69.707  1.00  0.00    -0.285 C  
HETATM    7  C   UNL     1      -9.507   9.552  70.427  1.00  0.00    -0.262 C  
HETATM    8  C   UNL     1      -9.946   8.370  71.328  1.00  0.00    -0.204 C  
ENDROOT
BRANCH   6   9
HETATM    9  O   UNL     1     -10.261  11.470  69.172  1.00  0.00    -0.141 OA 
BRANCH   9  10
HETATM   10  C   UNL     1     -11.226  12.155  68.362  1.00  0.00    -0.265 C  
HETATM   11  H   UNL     1     -12.469  15.187  64.979  1.00  0.00     0.000 HD 
HETATM   12  C   UNL     1     -10.841  13.657  68.286  1.00  0.00    -0.251 C  
HETATM   13  C   UNL     1     -11.333  11.572  66.944  1.00  0.00    -0.253 C  
HETATM   14  C   UNL     1     -11.747  14.403  67.285  1.00  0.00    -0.404 C  
HETATM   15  O   UNL     1     -12.761  14.292  65.106  1.00  0.00    -0.596 OA 
HETATM   16  O   UNL     1     -12.243  12.317  66.139  1.00  0.00    -0.647 OA 
HETATM   17  C   UNL     1     -11.807  13.654  65.948  1.00  0.00    -0.378 C  
BRANCH  14  18
HETATM   18  O   UNL     1     -11.495  15.801  67.173  1.00  0.00    -0.114 OA 
HETATM   19  S   UNL     1     -10.187  16.427  66.449  1.00  0.00    -0.326 S  
HETATM   20  O   UNL     1      -9.012  15.820  67.027  1.00  0.00    -0.202 OA 
HETATM   21  O   UNL     1     -10.300  15.928  64.927  1.00  0.00    -0.517 OA 
HETATM   22  O   UNL     1     -10.369  17.860  66.409  1.00  0.00    -0.363 OA 
ENDBRANCH  14  18
BRANCH  12  23
HETATM   23  O   UNL     1     -10.791  14.289  69.574  1.00  0.00    -0.210 OA 
HETATM   24  S   UNL     1     -12.121  14.540  70.467  1.00  0.00    -0.348 S  
HETATM   25  O   UNL     1     -12.910  15.563  69.819  1.00  0.00    -0.102 OA 
HETATM   26  O   UNL     1     -11.510  15.228  71.787  1.00  0.00    -0.393 OA 
HETATM   27  O   UNL     1     -12.697  13.279  70.856  1.00  0.00    -0.318 OA 
ENDBRANCH  12  23
ENDBRANCH   9  10
ENDBRANCH   6   9
BRANCH   7  28
HETATM   28  O   UNL     1      -8.567   9.039  69.466  1.00  0.00    -0.129 OA 
HETATM   29  O   UNL     1      -8.825   6.581  69.164  1.00  0.00    -0.128 OA 
HETATM   30  O   UNL     1      -7.885   7.897  67.348  1.00  0.00    -0.116 OA 
HETATM   31  S   UNL     1      -9.033   7.832  68.471  1.00  0.00    -0.132 S  
HETATM   32  O   UNL     1     -10.282   8.193  67.847  1.00  0.00    -0.197 OA 
ENDBRANCH   7  28
BRANCH   8  33
HETATM   33  O   UNL     1      -8.856   8.110  72.228  1.00  0.00    -0.148 OA 
HETATM   34  S   UNL     1      -8.867   6.795  73.183  1.00  0.00    -0.123 S  
HETATM   35  O   UNL     1      -9.638   7.081  74.368  1.00  0.00    -0.251 OA 
HETATM   36  O   UNL     1      -9.087   5.628  72.359  1.00  0.00    -0.141 OA 
HETATM   37  O   UNL     1      -7.350   6.768  73.712  1.00  0.00    -0.083 OA 
ENDBRANCH   8  33
TORSDOF 6
ENDMDL
