MODEL       44
REMARK 921   NORMALIZED FREE ENERGY PREDICTED BY IDOCK:   -6.06 KCAL/MOL
REMARK 922        TOTAL FREE ENERGY PREDICTED BY IDOCK:  -10.65 KCAL/MOL
REMARK 923 INTER-LIGAND FREE ENERGY PREDICTED BY IDOCK:   -8.91 KCAL/MOL
REMARK 924 INTRA-LIGAND FREE ENERGY PREDICTED BY IDOCK:   -1.74 KCAL/MOL
REMARK 927      BINDING AFFINITY PREDICTED BY RF-SCORE:    0.00 PKD
ROOT
HETATM    1  C   UNL     1      -5.709  14.097  67.779  1.00  0.00    -0.054 C  
HETATM    2  O   UNL     1      -5.879  12.918  67.001  1.00  0.00    -0.306 OA 
ENDROOT
BRANCH   2   3
HETATM    3  C   UNL     1      -6.596  11.904  67.570  1.00  0.00    -0.110 A  
HETATM    4  C   UNL     1      -7.145  10.810  66.907  1.00  0.00    -0.114 A  
HETATM    5  C   UNL     1      -7.894   9.851  67.610  1.00  0.00    -0.098 A  
HETATM    6  C   UNL     1      -8.101   9.956  68.992  1.00  0.00    -0.111 A  
HETATM    7  C   UNL     1      -6.778  12.013  68.945  1.00  0.00    -0.093 A  
HETATM    8  C   UNL     1      -7.515  11.051  69.653  1.00  0.00     0.029 A  
BRANCH   6   9
HETATM    9  C   UNL     1      -8.956   8.976  69.709  1.00  0.00    -0.154 A  
HETATM   10  C   UNL     1     -10.330   8.756  69.666  1.00  0.00    -0.213 A  
HETATM   11  C   UNL     1     -10.787   7.764  70.627  1.00  0.00    -0.241 A  
HETATM   12  C   UNL     1     -12.242   6.265  71.926  1.00  0.00    -0.256 A  
HETATM   13  C   UNL     1      -9.702   7.188  71.292  1.00  0.00    -0.170 A  
HETATM   14  H   UNL     1     -12.216   4.351  73.583  1.00  0.00     0.000 HD 
HETATM   15  C   UNL     1     -12.078   7.275  70.971  1.00  0.00    -0.361 A  
HETATM   16  S   UNL     1      -8.224   7.929  70.856  1.00  0.00    -0.105 SA 
HETATM   17  C   UNL     1      -9.851   6.127  72.210  1.00  0.00    -0.175 A  
HETATM   18  C   UNL     1     -11.133   5.683  72.508  1.00  0.00    -0.276 A  
HETATM   19  O   UNL     1     -11.339   4.654  73.380  1.00  0.00    -0.323 OA 
BRANCH  10  20
HETATM   20  O   UNL     1     -11.079   9.384  68.713  1.00  0.00    -0.096 OA 
BRANCH  20  21
HETATM   21  C   UNL     1     -11.381  10.723  68.722  1.00  0.00    -0.288 A  
HETATM   22  C   UNL     1     -11.860  13.494  68.607  1.00  0.00    -0.369 A  
HETATM   23  C   UNL     1     -11.490  12.796  67.454  1.00  0.00    -0.396 A  
HETATM   24  C   UNL     1     -11.733  11.420  69.871  1.00  0.00    -0.424 A  
HETATM   25  C   UNL     1     -11.254  11.415  67.512  1.00  0.00    -0.356 A  
HETATM   26  C   UNL     1     -12.010  12.781  69.806  1.00  0.00    -0.362 A  
BRANCH  22  27
HETATM   27  O   UNL     1     -12.030  14.857  68.489  1.00  0.00    -0.309 OA 
BRANCH  27  28
HETATM   28  C   UNL     1     -10.899  15.507  67.891  1.00  0.00    -0.307 C  
BRANCH  28  29
HETATM   29  C   UNL     1     -10.567  16.867  68.512  1.00  0.00    -0.367 C  
BRANCH  29  30
HETATM   30  N   UNL     1      -9.411  17.495  67.833  1.00  0.00    -0.260 NA 
HETATM   31  C   UNL     1      -9.591  17.745  66.393  1.00  0.00    -0.283 C  
HETATM   32  C   UNL     1     -10.529  18.908  66.063  1.00  0.00    -0.507 C  
HETATM   33  C   UNL     1     -10.165  20.173  66.833  1.00  0.00    -0.566 C  
HETATM   34  C   UNL     1      -9.940  19.888  68.314  1.00  0.00    -0.552 C  
HETATM   35  C   UNL     1      -8.972  18.721  68.509  1.00  0.00    -0.341 C  
ENDBRANCH  29  30
ENDBRANCH  28  29
ENDBRANCH  27  28
ENDBRANCH  22  27
ENDBRANCH  20  21
ENDBRANCH  10  20
ENDBRANCH   6   9
ENDBRANCH   2   3
TORSDOF 8
ENDMDL
