MODEL      432
REMARK 921   NORMALIZED FREE ENERGY PREDICTED BY IDOCK:    1.48 KCAL/MOL
REMARK 922        TOTAL FREE ENERGY PREDICTED BY IDOCK:   -1.13 KCAL/MOL
REMARK 923 INTER-LIGAND FREE ENERGY PREDICTED BY IDOCK:   -0.77 KCAL/MOL
REMARK 924 INTRA-LIGAND FREE ENERGY PREDICTED BY IDOCK:   -0.36 KCAL/MOL
REMARK 927      BINDING AFFINITY PREDICTED BY RF-SCORE:    0.00 PKD
ROOT
HETATM    1  C   UNL     1     -12.063  17.646  66.911  1.00  0.00     3.476 C  
HETATM    2  C   UNL     1     -10.868  16.699  66.697  1.00  0.00    -0.024 C  
ENDROOT
BRANCH   2   3
HETATM    3  C   UNL     1     -11.163  15.233  67.029  1.00  0.00    -0.275 A  
HETATM    4  C   UNL     1     -11.880  15.229  70.754  1.00  0.00    -0.381 A  
HETATM    5  C   UNL     1     -11.088  14.263  66.009  1.00  0.00    -0.319 A  
HETATM    6  C   UNL     1     -11.934  13.866  71.000  1.00  0.00    -0.262 A  
HETATM    7  C   UNL     1     -11.664  15.694  69.453  1.00  0.00    -0.395 A  
HETATM    8  C   UNL     1     -11.810  12.970  69.941  1.00  0.00    -0.377 A  
HETATM    9  C   UNL     1     -11.265  12.910  66.280  1.00  0.00    -0.337 A  
HETATM   10  C   UNL     1     -11.499  12.494  67.585  1.00  0.00    -0.392 A  
HETATM   11  C   UNL     1     -11.476  14.814  68.360  1.00  0.00    -0.336 A  
HETATM   12  C   UNL     1     -11.597  13.423  68.628  1.00  0.00    -0.362 A  
ENDBRANCH   2   3
BRANCH   2  13
HETATM   13  N   UNL     1      -9.624  17.202  67.305  1.00  0.00    -0.241 NA 
HETATM   14  H   UNL     1      -8.812  16.794  66.841  1.00  0.00     0.000 HD 
BRANCH  13  15
HETATM   15  C   UNL     1      -9.513  18.657  67.339  1.00  0.00    -0.297 C  
BRANCH  15  16
HETATM   16  C   UNL     1      -8.344  19.082  68.226  1.00  0.00    -0.369 C  
BRANCH  16  17
HETATM   17  C   UNL     1      -7.018  18.814  67.509  1.00  0.00    -0.210 C  
BRANCH  17  18
HETATM   18  C   UNL     1      -6.619  17.367  67.625  1.00  0.00    -0.168 A  
HETATM   19  C   UNL     1      -6.844  15.198  68.715  1.00  0.00    -0.108 A  
HETATM   20  C   UNL     1      -7.496  14.304  69.739  1.00  0.00     0.256 C  
HETATM   21  C   UNL     1      -7.251  16.532  68.557  1.00  0.00    -0.175 A  
HETATM   22  C   UNL     1      -5.170  15.533  66.985  1.00  0.00     0.655 A  
HETATM   23  F   UNL     1      -8.492  14.913  70.444  1.00  0.00     0.238 F  
HETATM   24  F   UNL     1      -8.061  13.196  69.183  1.00  0.00     0.053 F  
HETATM   25  F   UNL     1      -6.612  13.846  70.670  1.00  0.00    -0.088 F  
HETATM   26  C   UNL     1      -5.800  14.707  67.917  1.00  0.00    -0.142 A  
HETATM   27  C   UNL     1      -5.577  16.858  66.844  1.00  0.00    -0.190 A  
ENDBRANCH  17  18
ENDBRANCH  16  17
ENDBRANCH  15  16
ENDBRANCH  13  15
ENDBRANCH   2  13
TORSDOF 6
ENDMDL
