MODEL      263
REMARK 921   NORMALIZED FREE ENERGY PREDICTED BY IDOCK:   59.01 KCAL/MOL
REMARK 922        TOTAL FREE ENERGY PREDICTED BY IDOCK:   72.54 KCAL/MOL
REMARK 923 INTER-LIGAND FREE ENERGY PREDICTED BY IDOCK:   64.26 KCAL/MOL
REMARK 924 INTRA-LIGAND FREE ENERGY PREDICTED BY IDOCK:    8.28 KCAL/MOL
REMARK 927      BINDING AFFINITY PREDICTED BY RF-SCORE:    0.00 PKD
ROOT
HETATM    1  C   UNL     1     -11.788  13.061  68.545  1.00  0.00    -0.360 C  
HETATM    2  C   UNL     1     -12.413  13.802  67.392  1.00  0.00     0.081 C  
HETATM    3  C   UNL     1     -12.917  13.235  66.277  1.00  0.00     0.616 C  
HETATM    4  C   UNL     1     -13.527  14.154  65.279  1.00  0.00     0.688 C  
HETATM    5  O   UNL     1     -13.871  17.830  67.963  1.00  0.00     5.875 OA 
HETATM    6  C   UNL     1     -12.874  17.457  67.016  1.00  0.00     6.580 C  
HETATM    7  O   UNL     1     -13.992  13.705  64.231  1.00  0.00     2.632 OA 
HETATM    8  N   UNL     1     -13.528  15.500  65.584  1.00  0.00     2.250 N  
HETATM    9  C   UNL     1     -14.007  16.396  64.537  1.00  0.00     5.921 C  
HETATM   10  N   UNL     1     -12.387  15.157  67.603  1.00  0.00     0.351 NA 
HETATM   11  C   UNL     1     -14.233  17.831  64.977  1.00  0.00    15.936 C  
HETATM   12  C   UNL     1     -12.902  15.947  66.721  1.00  0.00     3.287 C  
HETATM   13  C   UNL     1     -13.029  18.310  65.767  1.00  0.00    11.969 C  
HETATM   14  H   UNL     1     -13.775  17.296  68.743  1.00  0.00     0.000 HD 
ENDROOT
BRANCH   3  15
HETATM   15  C   UNL     1     -13.029  11.766  65.936  1.00  0.00     3.689 C  
BRANCH  15  16
HETATM   16  C   UNL     1     -12.090  10.838  66.756  1.00  0.00     2.333 C  
BRANCH  16  17
HETATM   17  N   UNL     1     -12.569  10.482  68.102  1.00  0.00     1.589 NA 
HETATM   18  C   UNL     1     -10.536   9.357  68.994  1.00  0.00    -0.233 C  
HETATM   19  C   UNL     1     -11.020  11.686  69.766  1.00  0.00    -0.001 C  
HETATM   20  C   UNL     1     -12.013   9.234  68.631  1.00  0.00     1.859 C  
HETATM   21  C   UNL     1     -10.365  10.351  70.152  1.00  0.00    -0.114 C  
HETATM   22  C   UNL     1     -12.403  11.567  69.092  1.00  0.00    -0.004 C  
BRANCH  21  23
HETATM   23  C   UNL     1     -10.828   9.688  71.426  1.00  0.00    -0.224 A  
HETATM   24  N   UNL     1     -11.905  10.102  72.105  1.00  0.00     0.455 NA 
HETATM   25  O   UNL     1     -12.225   9.068  72.974  1.00  0.00     0.066 OA 
HETATM   26  C   UNL     1     -11.325   8.057  72.834  1.00  0.00    -0.298 A  
HETATM   27  C   UNL     1     -10.360   8.435  71.918  1.00  0.00    -0.353 A  
HETATM   28  C   UNL     1      -9.313   7.542  71.623  1.00  0.00    -0.164 A  
HETATM   29  C   UNL     1      -9.305   6.294  72.258  1.00  0.00    -0.146 A  
HETATM   30  C   UNL     1     -10.324   5.945  73.145  1.00  0.00    -0.211 A  
HETATM   31  C   UNL     1     -11.363   6.818  73.466  1.00  0.00     0.359 A  
HETATM   32  F   UNL     1     -10.306   4.725  73.697  1.00  0.00    -0.169 F  
ENDBRANCH  21  23
ENDBRANCH  16  17
ENDBRANCH  15  16
ENDBRANCH   3  15
TORSDOF 4
ENDMDL
