MODEL      160
REMARK 921   NORMALIZED FREE ENERGY PREDICTED BY IDOCK:   -3.72 KCAL/MOL
REMARK 922        TOTAL FREE ENERGY PREDICTED BY IDOCK:   -8.77 KCAL/MOL
REMARK 923 INTER-LIGAND FREE ENERGY PREDICTED BY IDOCK:   -7.37 KCAL/MOL
REMARK 924 INTRA-LIGAND FREE ENERGY PREDICTED BY IDOCK:   -1.40 KCAL/MOL
REMARK 927      BINDING AFFINITY PREDICTED BY RF-SCORE:    0.00 PKD
ROOT
HETATM    1  C   UNL     1      -9.631   7.896  69.218  1.00  0.00    -0.157 C  
HETATM    2  C   UNL     1     -10.799   7.016  68.812  1.00  0.00    -0.198 C  
ENDROOT
BRANCH   2   3
HETATM    3  C   UNL     1     -11.345   6.239  70.007  1.00  0.00    -0.486 C  
BRANCH   3   4
HETATM    4  C   UNL     1     -11.274   7.072  71.283  1.00  0.00    -0.296 C  
BRANCH   4   5
HETATM    5  C   UNL     1     -12.484   7.995  71.394  1.00  0.00    -0.320 C  
BRANCH   5   6
HETATM    6  C   UNL     1     -12.056   9.409  71.773  1.00  0.00    -0.454 C  
BRANCH   6   7
HETATM    7  C   UNL     1     -12.714  10.434  70.858  1.00  0.00    -0.477 C  
BRANCH   7   8
HETATM    8  C   UNL     1     -11.663  11.260  70.127  1.00  0.00    -0.429 C  
BRANCH   8   9
HETATM    9  C   UNL     1     -12.048  12.734  70.119  1.00  0.00    -0.370 C  
BRANCH   9  10
HETATM   10  C   UNL     1     -11.489  13.430  68.884  1.00  0.00    -0.347 C  
BRANCH  10  11
HETATM   11  C   UNL     1     -11.051  12.408  67.840  1.00  0.00    -0.283 C  
BRANCH  11  12
HETATM   12  C   UNL     1     -11.747  12.667  66.511  1.00  0.00    -0.463 C  
BRANCH  12  13
HETATM   13  C   UNL     1     -12.087  14.143  66.354  1.00  0.00    -0.475 C  
BRANCH  13  14
HETATM   14  C   UNL     1     -11.619  14.661  64.998  1.00  0.00    -0.385 C  
BRANCH  14  15
HETATM   15  C   UNL     1     -10.415  15.587  65.148  1.00  0.00    -0.431 C  
BRANCH  15  16
HETATM   16  C   UNL     1     -10.481  16.350  66.469  1.00  0.00    -0.282 C  
BRANCH  16  17
HETATM   17  C   UNL     1     -10.460  17.858  66.240  1.00  0.00    -0.320 C  
HETATM   18  C   UNL     1     -10.345  18.619  67.540  1.00  0.00    -0.411 C  
HETATM   19  O   UNL     1     -10.277  18.119  68.651  1.00  0.00    -0.378 OA 
HETATM   20  O   UNL     1     -10.325  19.959  67.347  1.00  0.00    -0.412 OA 
ENDBRANCH  16  17
ENDBRANCH  15  16
ENDBRANCH  14  15
ENDBRANCH  13  14
ENDBRANCH  12  13
ENDBRANCH  11  12
ENDBRANCH  10  11
ENDBRANCH   9  10
ENDBRANCH   8   9
ENDBRANCH   7   8
ENDBRANCH   6   7
ENDBRANCH   5   6
ENDBRANCH   4   5
ENDBRANCH   3   4
ENDBRANCH   2   3
TORSDOF 15
ENDMDL
