MODEL      215
REMARK 921   NORMALIZED FREE ENERGY PREDICTED BY IDOCK:   -3.27 KCAL/MOL
REMARK 922        TOTAL FREE ENERGY PREDICTED BY IDOCK:   -5.25 KCAL/MOL
REMARK 923 INTER-LIGAND FREE ENERGY PREDICTED BY IDOCK:   -4.76 KCAL/MOL
REMARK 924 INTRA-LIGAND FREE ENERGY PREDICTED BY IDOCK:   -0.49 KCAL/MOL
REMARK 927      BINDING AFFINITY PREDICTED BY RF-SCORE:    0.00 PKD
ROOT
HETATM    1  C   UNL     1     -12.833   8.771  72.155  1.00  0.00    -0.400 C  
HETATM    2  N   UNL     1     -11.552   8.297  71.648  1.00  0.00    -0.270 NA 
HETATM    3  C   UNL     1     -11.632   6.918  71.188  1.00  0.00    -0.319 C  
ENDROOT
BRANCH   2   4
HETATM    4  C   UNL     1     -10.872   9.233  70.731  1.00  0.00    -0.284 C  
BRANCH   4   5
HETATM    5  C   UNL     1     -10.165   8.757  69.430  1.00  0.00    -0.210 C  
BRANCH   5   6
HETATM    6  O   UNL     1     -10.425   9.745  68.411  1.00  0.00    -0.199 OA 
BRANCH   6   7
HETATM    7  C   UNL     1      -9.439  10.577  67.944  1.00  0.00    -0.147 A  
HETATM    8  C   UNL     1      -8.171   9.975  67.941  1.00  0.00    -0.113 A  
HETATM    9  C   UNL     1      -7.006  10.693  67.634  1.00  0.00    -0.079 A  
HETATM   10  C   UNL     1      -7.094  12.033  67.277  1.00  0.00    -0.149 A  
HETATM   11  C   UNL     1      -8.341  12.649  67.282  1.00  0.00    -0.189 A  
HETATM   12  C   UNL     1      -9.516  11.954  67.673  1.00  0.00    -0.182 A  
BRANCH  12  13
HETATM   13  C   UNL     1     -10.712  12.829  67.970  1.00  0.00    -0.246 C  
BRANCH  13  14
HETATM   14  C   UNL     1     -10.890  13.991  67.003  1.00  0.00    -0.291 A  
HETATM   15  C   UNL     1     -10.302  15.230  67.294  1.00  0.00    -0.264 A  
HETATM   16  C   UNL     1     -10.322  16.264  66.353  1.00  0.00    -0.319 A  
HETATM   17  C   UNL     1     -10.939  16.077  65.118  1.00  0.00    -0.360 A  
HETATM   18  C   UNL     1     -11.575  14.872  64.839  1.00  0.00    -0.395 A  
HETATM   19  C   UNL     1     -11.551  13.835  65.773  1.00  0.00    -0.342 A  
ENDBRANCH  13  14
ENDBRANCH  12  13
ENDBRANCH   6   7
ENDBRANCH   5   6
ENDBRANCH   4   5
ENDBRANCH   2   4
TORSDOF 6
ENDMDL
