MODEL       20
REMARK 921   NORMALIZED FREE ENERGY PREDICTED BY IDOCK:   -4.77 KCAL/MOL
REMARK 922        TOTAL FREE ENERGY PREDICTED BY IDOCK:   -6.62 KCAL/MOL
REMARK 923 INTER-LIGAND FREE ENERGY PREDICTED BY IDOCK:   -6.24 KCAL/MOL
REMARK 924 INTRA-LIGAND FREE ENERGY PREDICTED BY IDOCK:   -0.37 KCAL/MOL
REMARK 927      BINDING AFFINITY PREDICTED BY RF-SCORE:    0.00 PKD
ROOT
HETATM    1  C   UNL     1      -9.331  17.593  68.430  1.00  0.00    -0.289 C  
HETATM    2  C   UNL     1      -9.944  18.969  68.154  1.00  0.00    -0.449 C  
HETATM    3  C   UNL     1     -10.626  18.786  66.796  1.00  0.00    -0.458 C  
HETATM    4  C   UNL     1     -10.117  17.420  66.274  1.00  0.00    -0.322 C  
HETATM    5  C   UNL     1     -11.150  16.286  66.532  1.00  0.00     0.120 C  
HETATM    6  N   UNL     1      -8.888  17.307  67.067  1.00  0.00    -0.222 NA 
HETATM    7  C   UNL     1     -10.421  16.663  69.010  1.00  0.00    -0.328 C  
HETATM    8  C   UNL     1     -11.169  15.737  68.009  1.00  0.00    -0.338 C  
ENDROOT
BRANCH   5   9
HETATM    9  C   UNL     1     -11.005  15.238  65.437  1.00  0.00    -0.372 C  
HETATM   10  O   UNL     1      -9.951  14.742  65.061  1.00  0.00    -0.333 OA 
BRANCH   9  11
HETATM   11  O   UNL     1     -12.212  14.866  64.916  1.00  0.00    -0.330 OA 
HETATM   12  C   UNL     1     -12.218  13.526  64.408  1.00  0.00    -0.390 C  
ENDBRANCH   9  11
ENDBRANCH   5   9
BRANCH   6  13
HETATM   13  C   UNL     1      -8.037  16.144  66.863  1.00  0.00    -0.240 C  
BRANCH  13  14
HETATM   14  C   UNL     1      -6.654  16.248  67.521  1.00  0.00    -0.193 C  
HETATM   15  F   UNL     1      -5.171  15.468  69.138  1.00  0.00    -0.095 F  
HETATM   16  C   UNL     1      -6.442  15.295  68.673  1.00  0.00    -0.094 C  
ENDBRANCH  13  14
ENDBRANCH   6  13
BRANCH   8  17
HETATM   17  C   UNL     1     -10.845  14.236  68.155  1.00  0.00    -0.253 A  
HETATM   18  I   UNL     1      -9.878   9.511  67.437  1.00  0.00    -0.269 I  
HETATM   19  C   UNL     1      -9.544  13.735  68.319  1.00  0.00    -0.219 A  
HETATM   20  C   UNL     1      -9.276  12.370  68.189  1.00  0.00    -0.205 A  
HETATM   21  C   UNL     1     -11.886  13.303  68.040  1.00  0.00    -0.392 A  
HETATM   22  C   UNL     1     -10.309  11.486  67.892  1.00  0.00    -0.183 A  
HETATM   23  C   UNL     1     -11.620  11.944  67.852  1.00  0.00    -0.393 A  
ENDBRANCH   8  17
TORSDOF 5
ENDMDL
