MODEL       10
REMARK 921   NORMALIZED FREE ENERGY PREDICTED BY IDOCK:   -6.25 KCAL/MOL
REMARK 922        TOTAL FREE ENERGY PREDICTED BY IDOCK:   -9.15 KCAL/MOL
REMARK 923 INTER-LIGAND FREE ENERGY PREDICTED BY IDOCK:   -8.56 KCAL/MOL
REMARK 924 INTRA-LIGAND FREE ENERGY PREDICTED BY IDOCK:   -0.59 KCAL/MOL
REMARK 927      BINDING AFFINITY PREDICTED BY RF-SCORE:    0.00 PKD
ROOT
HETATM    1  C   UNL     1     -10.079  19.778  66.186  1.00  0.00    -0.600 C  
HETATM    2  C   UNL     1     -10.197  18.375  66.756  1.00  0.00    -0.388 C  
ENDROOT
BRANCH   2   3
HETATM    3  O   UNL     1     -10.116  17.450  65.664  1.00  0.00    -0.566 OA 
BRANCH   3   4
HETATM    4  C   UNL     1      -9.841  16.164  66.001  1.00  0.00    -0.347 C  
HETATM    5  O   UNL     1      -8.773  15.774  66.453  1.00  0.00    -0.290 OA 
HETATM    6  N   UNL     1     -11.002  15.454  65.885  1.00  0.00    -0.318 N  
HETATM    7  H   UNL     1     -11.710  15.771  65.222  1.00  0.00     0.000 HD 
BRANCH   6   8
HETATM    8  C   UNL     1     -11.255  14.296  66.651  1.00  0.00    -0.334 A  
HETATM    9  C   UNL     1     -11.838  14.319  67.929  1.00  0.00    -0.358 A  
HETATM   10  C   UNL     1     -12.014  13.096  68.600  1.00  0.00    -0.319 A  
HETATM   11  N   UNL     1     -11.980  15.519  68.658  1.00  0.00    -0.556 NA 
HETATM   12  H2  UNL     1     -12.486  16.183  68.071  1.00  0.00     0.000 HD 
HETATM   13  C   UNL     1     -11.679  11.869  68.009  1.00  0.00    -0.312 A  
HETATM   14  H1  UNL     1     -12.404  15.536  69.587  1.00  0.00     0.000 HD 
HETATM   15  C   UNL     1     -10.920  13.078  66.051  1.00  0.00    -0.296 A  
HETATM   16  C   UNL     1     -11.170  11.876  66.710  1.00  0.00    -0.384 A  
BRANCH  13  17
HETATM   17  N   UNL     1     -11.930  10.693  68.735  1.00  0.00    -0.736 NA 
HETATM   18  H   UNL     1     -11.784   9.771  68.322  1.00  0.00     0.000 HD 
BRANCH  17  19
HETATM   19  C   UNL     1     -12.411  10.847  70.104  1.00  0.00    -0.322 C  
BRANCH  19  20
HETATM   20  C   UNL     1     -11.959   9.709  70.992  1.00  0.00    -0.427 A  
HETATM   21  C   UNL     1     -10.584   9.444  71.118  1.00  0.00    -0.403 A  
HETATM   22  C   UNL     1     -10.128   8.446  71.980  1.00  0.00    -0.364 A  
HETATM   23  C   UNL     1     -11.045   7.716  72.727  1.00  0.00    -0.383 A  
HETATM   24  C   UNL     1     -12.406   7.973  72.636  1.00  0.00    -0.165 A  
HETATM   25  F   UNL     1     -10.604   6.759  73.556  1.00  0.00    -0.257 F  
HETATM   26  C   UNL     1     -12.864   8.974  71.780  1.00  0.00    -0.437 A  
ENDBRANCH  19  20
ENDBRANCH  17  19
ENDBRANCH  13  17
ENDBRANCH   6   8
ENDBRANCH   3   4
ENDBRANCH   2   3
TORSDOF 6
ENDMDL
