MODEL      183
REMARK 921   NORMALIZED FREE ENERGY PREDICTED BY IDOCK:   -3.00 KCAL/MOL
REMARK 922        TOTAL FREE ENERGY PREDICTED BY IDOCK:   -7.14 KCAL/MOL
REMARK 923 INTER-LIGAND FREE ENERGY PREDICTED BY IDOCK:   -6.98 KCAL/MOL
REMARK 924 INTRA-LIGAND FREE ENERGY PREDICTED BY IDOCK:   -0.15 KCAL/MOL
REMARK 927      BINDING AFFINITY PREDICTED BY RF-SCORE:    0.00 PKD
ROOT
HETATM    1  C   UNL     1      -6.673   8.652  67.312  1.00  0.00    -0.063 C  
HETATM    2  C   UNL     1      -7.616   9.538  68.123  1.00  0.00    -0.079 C  
HETATM    3  C   UNL     2      -7.328   9.639  64.052  1.00  0.00    -0.121 C  
HETATM    4  O   UNL     2      -7.796  10.455  65.114  1.00  0.00    -0.148 OA 
ENDROOT
BRANCH   2   5
HETATM    5  C   UNL     1      -8.961   8.894  68.603  1.00  0.00    -0.137 C  
HETATM    6  O   UNL     1      -9.814   8.183  66.402  1.00  0.00    -0.236 OA 
HETATM    7  C   UNL     1      -9.461   9.875  69.678  1.00  0.00    -0.231 C  
HETATM    8  C   UNL     1      -9.959   8.867  67.419  1.00  0.00    -0.209 C  
HETATM    9  H   UNL     1     -11.897   9.372  66.978  1.00  0.00     0.000 HD 
HETATM   10  N   UNL     1     -10.193  10.934  69.217  1.00  0.00    -0.351 N  
HETATM   11  O   UNL     1      -9.176   9.808  70.868  1.00  0.00    -0.108 OA 
HETATM   12  O   UNL     1     -12.252  11.369  68.418  1.00  0.00    -0.571 OA 
HETATM   13  N   UNL     1     -11.094   9.626  67.552  1.00  0.00    -0.105 N  
HETATM   14  C   UNL     1     -11.231  10.686  68.385  1.00  0.00    -0.288 C  
HETATM   15  H   UNL     1      -9.963  11.889  69.493  1.00  0.00     0.000 HD 
BRANCH   5  16
HETATM   16  C   UNL     1      -8.735   7.477  69.171  1.00  0.00    -0.136 A  
HETATM   17  C   UNL     1      -8.098   6.022  71.022  1.00  0.00    -0.121 A  
HETATM   18  C   UNL     1      -8.053   7.264  70.383  1.00  0.00    -0.116 A  
HETATM   19  C   UNL     1      -9.309   6.357  68.545  1.00  0.00    -0.122 A  
HETATM   20  C   UNL     1      -8.794   4.965  70.446  1.00  0.00    -0.135 A  
HETATM   21  C   UNL     1      -9.371   5.123  69.191  1.00  0.00    -0.171 A  
ENDBRANCH   5  16
ENDBRANCH   2   5
BRANCH   4  22
HETATM   22  C   UNL     2      -9.057  10.951  64.992  1.00  0.00    -0.190 A  
HETATM   23  C   UNL     2     -10.190  10.247  64.639  1.00  0.00    -0.204 A  
HETATM   24  C   UNL     2     -10.379  13.019  65.228  1.00  0.00    -0.318 A  
HETATM   25  C   UNL     2     -11.818  14.958  65.377  1.00  0.00    -0.188 A  
HETATM   26  C   UNL     2     -11.412  10.922  64.576  1.00  0.00     0.694 A  
HETATM   27  C   UNL     2     -12.865  14.143  64.981  1.00  0.00    -0.221 A  
HETATM   28  C   UNL     2      -9.174  12.290  65.348  1.00  0.00     0.226 A  
HETATM   29  C   UNL     2     -10.527  14.420  65.498  1.00  0.00    -0.366 A  
HETATM   30  C   UNL     2     -11.523  12.287  64.824  1.00  0.00    -0.329 A  
HETATM   31  N   UNL     2     -12.735  12.836  64.695  1.00  0.00    -0.707 NA 
BRANCH  29  32
HETATM   32  C   UNL     2      -9.377  15.311  66.006  1.00  0.00    -0.311 C  
HETATM   33  H   UNL     2      -8.786  17.196  65.825  1.00  0.00     0.000 HD 
HETATM   34  O   UNL     2      -9.496  16.647  65.512  1.00  0.00    -0.482 OA 
BRANCH  32  35
HETATM   35  C   UNL     2      -9.192  15.419  67.565  1.00  0.00    -0.199 C  
HETATM   36  C   UNL     2     -10.462  14.436  69.516  1.00  0.00    -0.028 C  
HETATM   37  C   UNL     2      -9.671  15.431  70.383  1.00  0.00     0.435 C  
HETATM   38  C   UNL     2      -9.420  16.722  69.590  1.00  0.00     0.343 C  
HETATM   39  C   UNL     2      -9.580  14.108  68.297  1.00  0.00    -0.226 C  
HETATM   40  N   UNL     2      -9.888  16.597  68.189  1.00  0.00    -0.244 NA 
HETATM   41  C   UNL     2     -11.363  16.409  68.248  1.00  0.00    -0.241 C  
HETATM   42  C   UNL     2     -11.756  15.098  68.978  1.00  0.00    -0.358 C  
BRANCH  42  43
HETATM   43  C   UNL     2     -12.766  15.355  70.073  1.00  0.00    -0.189 C  
HETATM   44  C   UNL     2     -13.049  14.497  71.061  1.00  0.00    -0.429 C  
ENDBRANCH  42  43
ENDBRANCH  32  35
ENDBRANCH  29  32
ENDBRANCH   4  22
TORSDOF 6
ENDMDL
