MODEL      263
REMARK 921   NORMALIZED FREE ENERGY PREDICTED BY IDOCK:   -2.98 KCAL/MOL
REMARK 922        TOTAL FREE ENERGY PREDICTED BY IDOCK:   -4.92 KCAL/MOL
REMARK 923 INTER-LIGAND FREE ENERGY PREDICTED BY IDOCK:   -4.49 KCAL/MOL
REMARK 924 INTRA-LIGAND FREE ENERGY PREDICTED BY IDOCK:   -0.43 KCAL/MOL
REMARK 927      BINDING AFFINITY PREDICTED BY RF-SCORE:    0.00 PKD
ROOT
HETATM    1  C   UNL     1     -10.303  19.881  66.923  1.00  0.00    -0.596 C  
HETATM    2  C   UNL     1     -10.986  18.739  66.177  1.00  0.00     0.122 C  
ENDROOT
BRANCH   2   3
HETATM    3  N   UNL     1     -10.320  17.430  66.309  1.00  0.00    -0.347 NA 
BRANCH   3   4
HETATM    4  C   UNL     1      -9.576  17.267  67.574  1.00  0.00    -0.259 C  
HETATM    5  C   UNL     1      -8.099  16.891  67.455  1.00  0.00    -0.193 C  
ENDBRANCH   3   4
BRANCH   3   6
HETATM    6  C   UNL     1     -11.269  16.307  66.114  1.00  0.00     0.284 C  
BRANCH   6   7
HETATM    7  C   UNL     1     -11.365  15.317  67.287  1.00  0.00    -0.269 C  
BRANCH   7   8
HETATM    8  N   UNL     1     -10.660  14.074  67.031  1.00  0.00    -0.278 N  
HETATM    9  C   UNL     1     -11.028  13.246  65.990  1.00  0.00    -0.279 C  
HETATM   10  H   UNL     1      -9.879  13.808  67.632  1.00  0.00     0.000 HD 
HETATM   11  O   UNL     1     -11.972  13.489  65.249  1.00  0.00    -0.339 OA 
BRANCH   9  12
HETATM   12  C   UNL     1     -10.153  12.078  65.726  1.00  0.00    -0.267 A  
HETATM   13  C   UNL     1     -10.056  11.646  64.391  1.00  0.00    -0.322 A  
HETATM   14  C   UNL     1      -9.476  10.415  64.084  1.00  0.00    -0.300 A  
HETATM   15  C   UNL     1      -9.013   9.566  65.099  1.00  0.00    -0.209 A  
HETATM   16 CL   UNL     1      -9.446   9.912  62.429  1.00  0.00    -0.262 Cl 
HETATM   17  C   UNL     1      -9.025  10.047  66.414  1.00  0.00    -0.164 A  
HETATM   18  N   UNL     1      -8.377   8.344  64.816  1.00  0.00    -0.243 NA 
HETATM   19  H1  UNL     1      -8.040   7.726  65.554  1.00  0.00     0.000 HD 
HETATM   20  C   UNL     1      -9.604  11.284  66.745  1.00  0.00    -0.193 A  
HETATM   21  H2  UNL     1      -7.594   8.538  64.192  1.00  0.00     0.000 HD 
BRANCH  20  22
HETATM   22  O   UNL     1      -9.651  11.513  68.095  1.00  0.00    -0.174 OA 
HETATM   23  C   UNL     1     -10.184  10.462  68.896  1.00  0.00    -0.205 C  
ENDBRANCH  20  22
ENDBRANCH   9  12
ENDBRANCH   7   8
ENDBRANCH   6   7
ENDBRANCH   3   6
ENDBRANCH   2   3
TORSDOF 7
ENDMDL
