MODEL      128
REMARK 921   NORMALIZED FREE ENERGY PREDICTED BY IDOCK:   -2.14 KCAL/MOL
REMARK 922        TOTAL FREE ENERGY PREDICTED BY IDOCK:   -2.52 KCAL/MOL
REMARK 923 INTER-LIGAND FREE ENERGY PREDICTED BY IDOCK:   -3.18 KCAL/MOL
REMARK 924 INTRA-LIGAND FREE ENERGY PREDICTED BY IDOCK:    0.67 KCAL/MOL
REMARK 927      BINDING AFFINITY PREDICTED BY RF-SCORE:    0.00 PKD
ROOT
HETATM    1 NA   UNL     1     -11.848  18.592  67.084  1.00  0.00    -0.039 Na 
HETATM    2 NA   UNL     2      -5.136  16.314  68.078  1.00  0.00    -0.080 Na 
HETATM    3 NA   UNL     3     -13.997  15.875  69.343  1.00  0.00    -0.070 Na 
HETATM    4 NA   UNL     4      -8.236  14.847  70.531  1.00  0.00    -0.373 Na 
HETATM    5  C   UNL     5      -9.583  16.260  66.282  1.00  0.00    -0.336 C  
HETATM    6  C   UNL     5      -9.669  14.896  66.885  1.00  0.00    -0.248 A  
HETATM    7  C   UNL     5     -10.840  14.203  67.186  1.00  0.00    -0.290 A  
HETATM    8  C   UNL     5      -8.446  14.333  67.238  1.00  0.00    -0.226 A  
HETATM    9  C   UNL     5     -10.766  12.902  67.798  1.00  0.00    -0.238 A  
HETATM   10  C   UNL     5      -8.376  13.203  68.039  1.00  0.00    -0.162 A  
HETATM   11  C   UNL     5     -11.903  12.075  67.977  1.00  0.00    -0.338 A  
HETATM   12  C   UNL     5      -9.513  12.412  68.254  1.00  0.00    -0.203 A  
HETATM   13  C   UNL     5     -11.807  10.803  68.550  1.00  0.00    -0.168 A  
HETATM   14  C   UNL     5      -9.442  11.147  68.881  1.00  0.00    -0.136 A  
HETATM   15  C   UNL     5     -10.575  10.342  69.004  1.00  0.00    -0.247 A  
ENDROOT
BRANCH   7  16
HETATM   16  O   UNL     5     -12.081  14.650  66.847  1.00  0.00    -0.361 OA 
HETATM   17  O   UNL     5     -13.650  15.695  65.203  1.00  0.00     1.484 OA 
HETATM   18  O   UNL     5     -11.842  14.404  64.299  1.00  0.00    -0.413 OA 
HETATM   19  P   UNL     5     -12.850  14.435  65.447  1.00  0.00     0.203 P  
HETATM   20  O   UNL     5     -13.635  13.146  65.417  1.00  0.00    -0.220 OA 
ENDBRANCH   7  16
BRANCH  10  21
HETATM   21  O   UNL     5      -7.202  12.962  68.708  1.00  0.00    -0.102 OA 
HETATM   22  P   UNL     5      -6.051  14.111  68.907  1.00  0.00    -0.098 P  
HETATM   23  O   UNL     5      -6.752  15.477  68.975  1.00  0.00    -0.117 OA 
HETATM   24  O   UNL     5      -5.147  14.164  67.699  1.00  0.00    -0.304 OA 
HETATM   25  O   UNL     5      -5.452  13.888  70.258  1.00  0.00    -0.101 OA 
ENDBRANCH  10  21
TORSDOF 2
ENDMDL
