MODEL       62
REMARK 921   NORMALIZED FREE ENERGY PREDICTED BY IDOCK:   -5.85 KCAL/MOL
REMARK 922        TOTAL FREE ENERGY PREDICTED BY IDOCK:  -10.14 KCAL/MOL
REMARK 923 INTER-LIGAND FREE ENERGY PREDICTED BY IDOCK:   -9.17 KCAL/MOL
REMARK 924 INTRA-LIGAND FREE ENERGY PREDICTED BY IDOCK:   -0.97 KCAL/MOL
REMARK 927      BINDING AFFINITY PREDICTED BY RF-SCORE:    0.00 PKD
ROOT
HETATM    1  C   UNL     1      -5.970  17.735  66.635  1.00  0.00    -0.169 C  
HETATM    2  O   UNL     1      -7.122  18.575  66.639  1.00  0.00    -0.195 OA 
ENDROOT
BRANCH   2   3
HETATM    3  C   UNL     1      -8.298  17.946  66.963  1.00  0.00    -0.234 A  
HETATM    4  C   UNL     1      -8.779  16.823  66.282  1.00  0.00    -0.342 A  
HETATM    5  C   UNL     1     -10.006  16.237  66.620  1.00  0.00    -0.274 A  
HETATM    6  C   UNL     1     -10.711  16.741  67.721  1.00  0.00    -0.321 A  
HETATM    7  H   UNL     1      -9.049  19.865  69.475  1.00  0.00     0.000 HD 
HETATM    8  O   UNL     1      -8.557  19.530  68.735  1.00  0.00    -0.357 OA 
HETATM    9  C   UNL     1     -10.220  17.837  68.439  1.00  0.00    -0.384 A  
HETATM   10  C   UNL     1      -9.022  18.438  68.053  1.00  0.00    -0.290 A  
BRANCH   5  11
HETATM   11  C   UNL     1     -10.546  15.095  65.869  1.00  0.00    -0.347 C  
HETATM   12  C   UNL     1     -11.473  14.256  66.363  1.00  0.00    -0.361 C  
BRANCH  12  13
HETATM   13  C   UNL     1     -11.963  13.101  65.558  1.00  0.00    -0.412 C  
HETATM   14  O   UNL     1     -13.115  13.067  65.125  1.00  0.00    -0.740 OA 
BRANCH  13  15
HETATM   15  C   UNL     1     -10.995  11.987  65.272  1.00  0.00    -0.356 C  
BRANCH  15  16
HETATM   16  C   UNL     1     -10.259  11.520  66.497  1.00  0.00    -0.218 C  
HETATM   17  O   UNL     1      -9.052  11.726  66.628  1.00  0.00    -0.184 OA 
BRANCH  16  18
HETATM   18  C   UNL     1     -11.059  10.851  67.565  1.00  0.00    -0.375 C  
HETATM   19  C   UNL     1     -10.730  11.033  68.853  1.00  0.00    -0.249 C  
BRANCH  19  20
HETATM   20  C   UNL     1     -11.456  10.480  70.007  1.00  0.00    -0.393 A  
HETATM   21  C   UNL     1     -11.390   9.120  70.362  1.00  0.00    -0.260 A  
HETATM   22  C   UNL     1     -12.172   8.617  71.407  1.00  0.00    -0.304 A  
HETATM   23  C   UNL     1     -12.321  11.326  70.720  1.00  0.00    -0.495 A  
HETATM   24  C   UNL     1     -13.020   9.489  72.096  1.00  0.00    -0.412 A  
HETATM   25  H   UNL     1     -14.387   9.616  73.579  1.00  0.00     0.000 HD 
HETATM   26  O   UNL     1     -13.811   9.023  73.111  1.00  0.00    -0.287 OA 
HETATM   27  C   UNL     1     -13.099  10.834  71.768  1.00  0.00    -0.573 A  
BRANCH  22  28
HETATM   28  O   UNL     1     -12.208   7.314  71.830  1.00  0.00    -0.306 OA 
HETATM   29  C   UNL     1     -11.485   6.367  71.054  1.00  0.00    -0.334 C  
ENDBRANCH  22  28
ENDBRANCH  19  20
ENDBRANCH  16  18
ENDBRANCH  15  16
ENDBRANCH  13  15
ENDBRANCH  12  13
ENDBRANCH   5  11
ENDBRANCH   2   3
TORSDOF 8
ENDMDL
