MODEL       23
REMARK 921   NORMALIZED FREE ENERGY PREDICTED BY IDOCK:   -5.59 KCAL/MOL
REMARK 922        TOTAL FREE ENERGY PREDICTED BY IDOCK:  -13.98 KCAL/MOL
REMARK 923 INTER-LIGAND FREE ENERGY PREDICTED BY IDOCK:  -11.51 KCAL/MOL
REMARK 924 INTRA-LIGAND FREE ENERGY PREDICTED BY IDOCK:   -2.47 KCAL/MOL
REMARK 927      BINDING AFFINITY PREDICTED BY RF-SCORE:    0.00 PKD
ROOT
HETATM    1  C   UNL     1     -12.771  11.881  63.503  1.00  0.00    -0.530 C  
HETATM    2  C   UNL     1     -11.845  12.657  64.458  1.00  0.00    -0.441 C  
HETATM    3  C   UNL     1     -11.693  11.874  65.785  1.00  0.00    -0.210 C  
ENDROOT
BRANCH   2   4
HETATM    4  C   UNL     1     -10.436  12.744  63.832  1.00  0.00    -0.372 C  
HETATM    5  O   UNL     1      -9.739  11.506  63.950  1.00  0.00    -0.284 OA 
HETATM    6  H   UNL     1      -8.872  11.559  63.565  1.00  0.00     0.000 HD 
ENDBRANCH   2   4
BRANCH   2   7
HETATM    7  C   UNL     1     -12.388  14.095  64.732  1.00  0.00    -0.417 C  
HETATM    8  O   UNL     1     -13.433  14.117  65.719  1.00  0.00    -0.670 OA 
HETATM    9  H   UNL     1     -13.763  14.991  65.887  1.00  0.00     0.000 HD 
BRANCH   7  10
HETATM   10  C   UNL     1     -11.320  15.125  65.164  1.00  0.00    -0.357 C  
HETATM   11  O   UNL     1     -10.979  16.098  64.499  1.00  0.00    -0.645 OA 
HETATM   12  N   UNL     1     -10.823  14.889  66.427  1.00  0.00    -0.320 N  
HETATM   13  H   UNL     1     -11.082  14.034  66.919  1.00  0.00     0.000 HD 
BRANCH  12  14
HETATM   14  C   UNL     1      -9.939  15.839  67.064  1.00  0.00    -0.239 C  
BRANCH  14  15
HETATM   15  C   UNL     1      -9.605  15.477  68.508  1.00  0.00    -0.203 C  
BRANCH  15  16
HETATM   16  C   UNL     1     -10.865  15.580  69.336  1.00  0.00    -0.261 C  
HETATM   17  O   UNL     1     -11.900  16.060  68.883  1.00  0.00    -0.379 OA 
HETATM   18  N   UNL     1     -10.750  15.068  70.608  1.00  0.00    -0.528 N  
HETATM   19  H   UNL     1      -9.857  14.647  70.865  1.00  0.00     0.000 HD 
BRANCH  18  20
HETATM   20  C   UNL     1     -11.806  15.078  71.624  1.00  0.00    -0.378 C  
BRANCH  20  21
HETATM   21  C   UNL     1     -13.114  14.360  71.278  1.00  0.00    -0.351 C  
BRANCH  21  22
HETATM   22  S   UNL     1     -13.363  12.749  72.120  1.00  0.00    -0.384 SA 
BRANCH  22  23
HETATM   23  S   UNL     1     -12.418  11.391  70.892  1.00  0.00    -0.333 SA 
BRANCH  23  24
HETATM   24  C   UNL     1     -13.272   9.843  71.335  1.00  0.00    -0.400 C  
BRANCH  24  25
HETATM   25  C   UNL     1     -12.366   8.929  72.163  1.00  0.00    -0.378 C  
BRANCH  25  26
HETATM   26  N   UNL     1     -11.999   7.674  71.511  1.00  0.00    -0.292 N  
HETATM   27  H   UNL     1     -12.671   6.907  71.532  1.00  0.00     0.000 HD 
HETATM   28  C   UNL     1     -10.795   7.471  70.870  1.00  0.00    -0.240 C  
HETATM   29  O   UNL     1      -9.894   8.302  70.832  1.00  0.00    -0.177 OA 
BRANCH  28  30
HETATM   30  C   UNL     1     -10.677   6.137  70.168  1.00  0.00    -0.366 C  
BRANCH  30  31
HETATM   31  C   UNL     1     -11.236   6.245  68.753  1.00  0.00    -0.273 C  
BRANCH  31  32
HETATM   32  N   UNL     1     -10.828   7.473  68.096  1.00  0.00    -0.439 N  
HETATM   33  H   UNL     1     -11.174   8.362  68.458  1.00  0.00     0.000 HD 
HETATM   34  C   UNL     1      -9.992   7.482  67.004  1.00  0.00    -0.234 C  
HETATM   35  O   UNL     1      -9.599   6.463  66.444  1.00  0.00    -0.164 OA 
BRANCH  34  36
HETATM   36  C   UNL     1      -9.644   8.897  66.493  1.00  0.00    -0.232 C  
HETATM   37  O   UNL     1      -9.437   8.868  65.072  1.00  0.00    -0.436 OA 
HETATM   38  H   UNL     1      -9.222   9.739  64.757  1.00  0.00     0.000 HD 
BRANCH  36  39
HETATM   39  C   UNL     1      -8.411   9.525  67.201  1.00  0.00    -0.131 C  
HETATM   40  C   UNL     1      -7.495  10.254  66.197  1.00  0.00    -0.121 C  
HETATM   41  C   UNL     1      -8.906  10.577  68.221  1.00  0.00    -0.139 C  
BRANCH  39  42
HETATM   42  C   UNL     1      -7.615   8.427  67.948  1.00  0.00    -0.099 C  
HETATM   43  O   UNL     1      -7.646   8.619  69.358  1.00  0.00    -0.088 OA 
HETATM   44  H   UNL     1      -7.158   7.945  69.817  1.00  0.00     0.000 HD 
ENDBRANCH  39  42
ENDBRANCH  36  39
ENDBRANCH  34  36
ENDBRANCH  31  32
ENDBRANCH  30  31
ENDBRANCH  28  30
ENDBRANCH  25  26
ENDBRANCH  24  25
ENDBRANCH  23  24
ENDBRANCH  22  23
ENDBRANCH  21  22
ENDBRANCH  20  21
ENDBRANCH  18  20
ENDBRANCH  15  16
ENDBRANCH  14  15
ENDBRANCH  12  14
ENDBRANCH   7  10
ENDBRANCH   2   7
TORSDOF 19
ENDMDL
