MODEL        6
REMARK 921   NORMALIZED FREE ENERGY PREDICTED BY IDOCK:   -5.87 KCAL/MOL
REMARK 922        TOTAL FREE ENERGY PREDICTED BY IDOCK:  -10.17 KCAL/MOL
REMARK 923 INTER-LIGAND FREE ENERGY PREDICTED BY IDOCK:   -9.26 KCAL/MOL
REMARK 924 INTRA-LIGAND FREE ENERGY PREDICTED BY IDOCK:   -0.92 KCAL/MOL
REMARK 927      BINDING AFFINITY PREDICTED BY RF-SCORE:    0.00 PKD
ROOT
HETATM    1  C   UNL     1     -11.111   6.170  69.210  1.00  0.00    -0.393 C  
HETATM    2  O   UNL     1     -10.354   7.144  69.926  1.00  0.00    -0.202 OA 
ENDROOT
BRANCH   2   3
HETATM    3  C   UNL     1     -10.864   8.420  69.928  1.00  0.00    -0.207 A  
HETATM    4  C   UNL     1     -10.641   9.291  68.852  1.00  0.00    -0.222 A  
HETATM    5  C   UNL     1     -11.242  10.550  68.812  1.00  0.00    -0.317 A  
HETATM    6  C   UNL     1     -12.043  10.957  69.872  1.00  0.00    -0.428 A  
HETATM    7  C   UNL     1     -11.638   8.845  71.033  1.00  0.00    -0.293 A  
HETATM    8  C   UNL     1     -12.245  10.121  70.986  1.00  0.00    -0.374 A  
BRANCH   5   9
HETATM    9  C   UNL     1     -11.062  11.364  67.579  1.00  0.00    -0.281 C  
HETATM   10  N   UNL     1     -12.017  12.315  67.313  1.00  0.00    -0.240 N  
HETATM   11  O   UNL     1     -10.081  11.179  66.865  1.00  0.00    -0.203 OA 
HETATM   12  H   UNL     1     -12.818  12.422  67.936  1.00  0.00     0.000 HD 
BRANCH  10  13
HETATM   13  C   UNL     1     -11.886  13.162  66.149  1.00  0.00    -0.401 C  
BRANCH  13  14
HETATM   14  C   UNL     1     -11.339  14.509  66.527  1.00  0.00    -0.354 A  
HETATM   15  C   UNL     1     -11.467  14.951  67.842  1.00  0.00    -0.357 A  
HETATM   16  C   UNL     1     -11.023  16.217  68.210  1.00  0.00    -0.340 A  
HETATM   17  C   UNL     1     -10.445  17.080  67.270  1.00  0.00    -0.301 A  
HETATM   18  C   UNL     1     -10.297  16.638  65.955  1.00  0.00    -0.355 A  
HETATM   19  C   UNL     1     -10.745  15.362  65.580  1.00  0.00    -0.381 A  
BRANCH  17  20
HETATM   20  O   UNL     1     -10.013  18.360  67.546  1.00  0.00    -0.310 OA 
BRANCH  20  21
HETATM   21  C   UNL     1      -9.599  19.081  66.380  1.00  0.00    -0.353 C  
BRANCH  21  22
HETATM   22  C   UNL     1      -8.146  19.568  66.435  1.00  0.00    -0.320 C  
BRANCH  22  23
HETATM   23  N   UNL     1      -7.265  18.753  65.565  1.00  0.00    -0.513 NA 
HETATM   24  C   UNL     1      -6.168  19.534  64.985  1.00  0.00    -0.273 C  
HETATM   25  C   UNL     1      -6.722  17.612  66.300  1.00  0.00    -0.282 C  
ENDBRANCH  22  23
ENDBRANCH  21  22
ENDBRANCH  20  21
ENDBRANCH  17  20
ENDBRANCH  13  14
ENDBRANCH  10  13
ENDBRANCH   5   9
BRANCH   8  26
HETATM   26  O   UNL     1     -13.070  10.712  71.910  1.00  0.00    -0.469 OA 
HETATM   27  C   UNL     1     -13.165  12.127  71.963  1.00  0.00    -0.391 C  
ENDBRANCH   8  26
BRANCH   7  28
HETATM   28  O   UNL     1     -11.926   8.057  72.121  1.00  0.00    -0.312 OA 
HETATM   29  C   UNL     1     -10.880   7.723  73.022  1.00  0.00    -0.389 C  
ENDBRANCH   7  28
ENDBRANCH   2   3
TORSDOF 10
ENDMDL
