MODEL      178
REMARK 921   NORMALIZED FREE ENERGY PREDICTED BY IDOCK:   34.97 KCAL/MOL
REMARK 922        TOTAL FREE ENERGY PREDICTED BY IDOCK:   38.15 KCAL/MOL
REMARK 923 INTER-LIGAND FREE ENERGY PREDICTED BY IDOCK:   39.13 KCAL/MOL
REMARK 924 INTRA-LIGAND FREE ENERGY PREDICTED BY IDOCK:   -0.98 KCAL/MOL
REMARK 927      BINDING AFFINITY PREDICTED BY RF-SCORE:    0.00 PKD
ROOT
HETATM    1  C   UNL     1     -11.897  14.055  68.730  1.00  0.00    -0.396 C  
HETATM    2  C   UNL     1     -10.749  15.061  68.541  1.00  0.00    -0.244 C  
HETATM    3  C   UNL     1     -10.071  14.926  67.157  1.00  0.00    -0.240 C  
HETATM    4  C   UNL     1      -9.736  14.815  69.690  1.00  0.00     0.125 C  
ENDROOT
BRANCH   4   5
HETATM    5  N   UNL     1      -8.552  15.691  69.739  1.00  0.00    -0.091 NA 
HETATM    6  C   UNL     1      -7.337  14.865  69.762  1.00  0.00    -0.100 C  
HETATM    7  C   UNL     1      -8.569  16.569  70.912  1.00  0.00     4.759 C  
ENDBRANCH   4   5
BRANCH   3   8
HETATM    8  N   UNL     1     -11.014  15.215  66.042  1.00  0.00    -0.335 NA 
HETATM    9  C   UNL     1     -11.486  16.542  65.962  1.00  0.00     0.792 A  
HETATM   10  C   UNL     1     -10.596  17.618  65.818  1.00  0.00    -0.177 A  
HETATM   11  C   UNL     1     -11.058  18.925  65.661  1.00  0.00     0.310 A  
HETATM   12  C   UNL     1     -12.424  19.184  65.654  1.00  0.00     7.636 A  
HETATM   13  C   UNL     1     -13.327  18.133  65.800  1.00  0.00    14.656 A  
HETATM   14  C   UNL     1     -12.866  16.817  65.949  1.00  0.00     6.072 A  
HETATM   15  C   UNL     1     -13.838  15.680  66.081  1.00  0.00     5.328 C  
HETATM   16  C   UNL     1     -13.823  14.790  64.845  1.00  0.00     2.606 C  
HETATM   17  C   UNL     1     -12.561  14.017  64.504  1.00  0.00    -0.242 A  
HETATM   18  C   UNL     1     -12.728  13.026  63.505  1.00  0.00    -0.098 A  
HETATM   19  C   UNL     1     -11.670  12.237  63.073  1.00  0.00    -0.098 A  
HETATM   20  C   UNL     1     -10.414  12.429  63.619  1.00  0.00    -0.460 A  
HETATM   21  C   UNL     1     -10.229  13.407  64.601  1.00  0.00    -0.338 A  
HETATM   22  C   UNL     1     -11.285  14.215  65.080  1.00  0.00    -0.337 A  
ENDBRANCH   3   8
TORSDOF 2
ENDMDL
