MODEL       95
REMARK 921   NORMALIZED FREE ENERGY PREDICTED BY IDOCK:   -4.58 KCAL/MOL
REMARK 922        TOTAL FREE ENERGY PREDICTED BY IDOCK:   -6.21 KCAL/MOL
REMARK 923 INTER-LIGAND FREE ENERGY PREDICTED BY IDOCK:   -5.98 KCAL/MOL
REMARK 924 INTRA-LIGAND FREE ENERGY PREDICTED BY IDOCK:   -0.23 KCAL/MOL
REMARK 927      BINDING AFFINITY PREDICTED BY RF-SCORE:    0.00 PKD
ROOT
HETATM    1  C   UNL     1     -14.252   9.064  71.291  1.00  0.00    -0.043 C  
HETATM    2  O   UNL     1     -13.159   9.889  71.688  1.00  0.00    -0.374 OA 
ENDROOT
BRANCH   2   3
HETATM    3  C   UNL     1     -12.255  10.223  70.717  1.00  0.00    -0.350 A  
HETATM    4  C   UNL     1     -11.592   9.210  70.012  1.00  0.00     0.060 A  
HETATM    5  C   UNL     1     -10.675   9.569  69.015  1.00  0.00    -0.224 A  
HETATM    6  C   UNL     1     -11.162  11.917  69.332  1.00  0.00    -0.211 A  
HETATM    7  C   UNL     1     -10.467  10.920  68.656  1.00  0.00    -0.216 A  
HETATM    8  C   UNL     1     -12.024  11.560  70.356  1.00  0.00    -0.459 A  
HETATM    9  C   UNL     1      -9.608  11.391  67.659  1.00  0.00    -0.169 A  
HETATM   10  N   UNL     1      -8.793  10.522  66.924  1.00  0.00    -0.136 NA 
HETATM   11  N   UNL     1      -9.479  12.692  67.355  1.00  0.00    -0.184 NA 
HETATM   12  H1  UNL     1      -8.167  10.866  66.197  1.00  0.00     0.000 HD 
HETATM   13  C   UNL     1     -10.221  13.575  68.038  1.00  0.00    -0.243 A  
HETATM   14  H2  UNL     1      -9.392   9.807  66.510  1.00  0.00     0.000 HD 
HETATM   15  N   UNL     1     -11.047  13.208  69.026  1.00  0.00    -0.249 NA 
BRANCH   4  16
HETATM   16  O   UNL     1     -11.704   7.853  70.154  1.00  0.00    -0.037 OA 
HETATM   17  C   UNL     1     -10.754   7.019  69.508  1.00  0.00    -0.241 C  
ENDBRANCH   4  16
BRANCH  13  18
HETATM   18  N   UNL     1     -10.110  14.933  67.768  1.00  0.00    -0.233 NA 
HETATM   19  C   UNL     1     -10.880  16.917  66.504  1.00  0.00     0.032 C  
HETATM   20  C   UNL     1     -10.780  15.380  66.535  1.00  0.00    -0.308 C  
HETATM   21  N   UNL     1      -9.596  17.568  66.795  1.00  0.00    -0.271 N  
HETATM   22  C   UNL     1      -8.957  17.074  68.027  1.00  0.00    -0.230 C  
HETATM   23  C   UNL     1      -9.323  18.790  66.171  1.00  0.00    -0.161 C  
HETATM   24  O   UNL     1     -10.138  19.277  65.385  1.00  0.00    -0.261 OA 
HETATM   25  C   UNL     1      -8.797  15.544  67.999  1.00  0.00    -0.165 C  
BRANCH  23  26
HETATM   26  C   UNL     1      -8.078  19.487  66.454  1.00  0.00    -0.320 A  
HETATM   27  C   UNL     1      -7.877  20.778  66.913  1.00  0.00    -0.200 A  
HETATM   28  C   UNL     1      -6.480  20.980  66.990  1.00  0.00    -0.405 A  
HETATM   29  C   UNL     1      -5.904  19.817  66.538  1.00  0.00    -0.170 A  
HETATM   30  O   UNL     1      -6.859  18.920  66.186  1.00  0.00    -0.212 OA 
ENDBRANCH  23  26
ENDBRANCH  13  18
ENDBRANCH   2   3
TORSDOF 4
ENDMDL
