MODEL       21
REMARK 921   NORMALIZED FREE ENERGY PREDICTED BY IDOCK:   -7.24 KCAL/MOL
REMARK 922        TOTAL FREE ENERGY PREDICTED BY IDOCK:  -11.07 KCAL/MOL
REMARK 923 INTER-LIGAND FREE ENERGY PREDICTED BY IDOCK:  -10.28 KCAL/MOL
REMARK 924 INTRA-LIGAND FREE ENERGY PREDICTED BY IDOCK:   -0.79 KCAL/MOL
REMARK 927      BINDING AFFINITY PREDICTED BY RF-SCORE:    0.00 PKD
ROOT
HETATM    1  C   UNL     1      -5.385  21.178  67.549  1.00  0.00    -0.327 C  
HETATM    2  C   UNL     1      -6.756  20.966  66.917  1.00  0.00    -0.316 C  
ENDROOT
BRANCH   2   3
HETATM    3  N   UNL     1      -7.742  20.338  67.811  1.00  0.00    -0.286 NA 
HETATM    4  C   UNL     1      -9.117  20.647  67.349  1.00  0.00    -0.259 C  
HETATM    5  C   UNL     1      -9.589  19.817  66.129  1.00  0.00    -0.398 C  
HETATM    6  N   UNL     1      -9.448  18.351  66.291  1.00  0.00    -0.449 NA 
HETATM    7  C   UNL     1      -7.583  18.874  67.934  1.00  0.00    -0.259 C  
HETATM    8  C   UNL     1      -8.054  18.067  66.701  1.00  0.00    -0.260 C  
BRANCH   6   9
HETATM    9  C   UNL     1     -10.389  17.800  67.287  1.00  0.00    -0.363 C  
BRANCH   9  10
HETATM   10  C   UNL     1     -10.781  16.375  67.014  1.00  0.00    -0.217 A  
HETATM   11  C   UNL     1     -11.237  15.547  68.034  1.00  0.00    -0.332 A  
HETATM   12  C   UNL     1     -11.571  14.234  67.737  1.00  0.00    -0.383 A  
HETATM   13  C   UNL     1     -11.440  13.761  66.429  1.00  0.00    -0.336 A  
HETATM   14  N   UNL     1     -11.023  14.557  65.423  1.00  0.00    -0.323 NA 
HETATM   15  C   UNL     1     -10.696  15.832  65.736  1.00  0.00    -0.327 A  
BRANCH  13  16
HETATM   16  N   UNL     1     -11.812  12.462  66.103  1.00  0.00    -0.540 NA 
HETATM   17  H   UNL     1     -12.799  12.304  65.896  1.00  0.00     0.000 HD 
BRANCH  16  18
HETATM   18  C   UNL     1     -10.975  11.360  66.032  1.00  0.00    -0.226 A  
HETATM   19  N   UNL     1     -10.439  11.075  64.836  1.00  0.00    -0.314 NA 
HETATM   20  C   UNL     1      -9.693   9.957  64.756  1.00  0.00    -0.235 A  
HETATM   21  C   UNL     1      -9.394   9.168  65.841  1.00  0.00    -0.243 A  
HETATM   22  F   UNL     1      -8.629   8.079  65.688  1.00  0.00    -0.130 F  
HETATM   23  C   UNL     1      -9.919   9.560  67.055  1.00  0.00    -0.213 A  
HETATM   24  N   UNL     1     -10.743  10.630  67.140  1.00  0.00    -0.268 NA 
BRANCH  23  25
HETATM   25  C   UNL     1      -9.605   8.906  68.347  1.00  0.00    -0.157 A  
HETATM   26  C   UNL     1      -8.336   8.341  68.573  1.00  0.00    -0.129 A  
HETATM   27  C   UNL     1      -8.005   7.752  69.792  1.00  0.00    -0.115 A  
HETATM   28  C   UNL     1      -8.940   7.712  70.831  1.00  0.00    -0.148 A  
HETATM   29  F   UNL     1      -6.778   7.231  69.946  1.00  0.00    -0.045 F  
HETATM   30  N   UNL     1      -8.836   7.188  72.086  1.00  0.00    -0.128 NA 
HETATM   31  C   UNL     1      -9.994   7.390  72.675  1.00  0.00    -0.194 A  
HETATM   32  N   UNL     1     -10.872   8.055  71.834  1.00  0.00    -0.242 NA 
HETATM   33  C   UNL     1     -10.268   6.926  74.059  1.00  0.00    -0.384 C  
HETATM   34  C   UNL     1     -10.553   8.878  69.406  1.00  0.00    -0.226 A  
HETATM   35  C   UNL     1     -10.202   8.272  70.633  1.00  0.00    -0.193 A  
BRANCH  32  36
HETATM   36  C   UNL     1     -12.273   8.410  72.066  1.00  0.00    -0.362 C  
HETATM   37  C   UNL     1     -13.319   7.453  71.481  1.00  0.00    -0.435 C  
HETATM   38  C   UNL     1     -12.563   9.843  71.616  1.00  0.00    -0.519 C  
ENDBRANCH  32  36
ENDBRANCH  23  25
ENDBRANCH  16  18
ENDBRANCH  13  16
ENDBRANCH   9  10
ENDBRANCH   6   9
ENDBRANCH   2   3
TORSDOF 7
ENDMDL
