MODEL        4
REMARK 921   NORMALIZED FREE ENERGY PREDICTED BY IDOCK:   -7.86 KCAL/MOL
REMARK 922        TOTAL FREE ENERGY PREDICTED BY IDOCK:  -12.18 KCAL/MOL
REMARK 923 INTER-LIGAND FREE ENERGY PREDICTED BY IDOCK:  -11.40 KCAL/MOL
REMARK 924 INTRA-LIGAND FREE ENERGY PREDICTED BY IDOCK:   -0.79 KCAL/MOL
REMARK 927      BINDING AFFINITY PREDICTED BY RF-SCORE:    0.00 PKD
ROOT
HETATM    1  C   UNL     1     -13.720  14.089  72.186  1.00  0.00    -0.603 C  
HETATM    2  C   UNL     1     -12.827  15.162  71.594  1.00  0.00    -0.364 C  
ENDROOT
BRANCH   2   3
HETATM    3  O   UNL     1     -12.173  14.675  70.416  1.00  0.00    -0.289 OA 
BRANCH   3   4
HETATM    4  C   UNL     1     -12.007  15.736  69.464  1.00  0.00    -0.310 C  
BRANCH   4   5
HETATM    5  C   UNL     1     -10.691  15.581  68.702  1.00  0.00    -0.252 C  
BRANCH   5   6
HETATM    6  N   UNL     1     -10.593  16.466  67.552  1.00  0.00    -0.312 NA 
HETATM    7  C   UNL     1     -10.668  16.125  66.211  1.00  0.00    -0.213 A  
HETATM    8  N   UNL     1     -10.542  17.194  65.449  1.00  0.00    -0.626 NA 
HETATM    9  C   UNL     1     -10.210  18.718  68.696  1.00  0.00    -0.366 A  
HETATM   10  C   UNL     1     -10.369  18.250  66.302  1.00  0.00    -0.405 A  
HETATM   11  C   UNL     1     -10.382  17.828  67.627  1.00  0.00    -0.373 A  
HETATM   12  C   UNL     1     -10.042  20.073  68.386  1.00  0.00    -0.513 A  
HETATM   13  C   UNL     1     -10.187  19.610  66.008  1.00  0.00    -0.587 A  
HETATM   14  C   UNL     1     -10.029  20.515  67.064  1.00  0.00    -0.489 A  
BRANCH   7  15
HETATM   15  C   UNL     1     -10.842  14.730  65.702  1.00  0.00    -0.344 C  
HETATM   16  C   UNL     1      -9.932  12.438  65.411  1.00  0.00    -0.236 C  
HETATM   17  C   UNL     1     -12.348  12.778  65.454  1.00  0.00    -0.470 C  
HETATM   18  C   UNL     1     -12.165  14.119  66.165  1.00  0.00    -0.465 C  
HETATM   19  N   UNL     1     -11.249  11.823  65.673  1.00  0.00    -0.299 NA 
HETATM   20  C   UNL     1      -9.709  13.786  66.110  1.00  0.00    -0.280 C  
BRANCH  19  21
HETATM   21  C   UNL     1     -11.279  11.191  67.002  1.00  0.00    -0.219 C  
BRANCH  21  22
HETATM   22  C   UNL     1     -10.028  10.347  67.310  1.00  0.00    -0.229 C  
BRANCH  22  23
HETATM   23  C   UNL     1     -10.275   9.475  68.513  1.00  0.00    -0.223 A  
HETATM   24  C   UNL     1     -10.379  10.043  69.786  1.00  0.00    -0.290 A  
HETATM   25  C   UNL     1     -10.469   9.231  70.915  1.00  0.00    -0.372 A  
HETATM   26  C   UNL     1     -10.459   7.828  70.800  1.00  0.00    -0.213 A  
HETATM   27  C   UNL     1     -10.318   8.089  68.380  1.00  0.00    -0.236 A  
HETATM   28  C   UNL     1     -10.417   7.276  69.509  1.00  0.00    -0.238 A  
BRANCH  26  29
HETATM   29  C   UNL     1     -10.403   6.957  72.069  1.00  0.00    -0.220 C  
HETATM   30  C   UNL     1     -11.688   6.136  72.279  1.00  0.00    -0.302 C  
HETATM   31  C   UNL     1      -9.213   5.978  71.958  1.00  0.00    -0.151 C  
HETATM   32  C   UNL     1     -10.220   7.776  73.364  1.00  0.00    -0.315 C  
HETATM   33  O   UNL     1     -12.830   6.735  71.861  1.00  0.00    -0.338 OA 
HETATM   34  O   UNL     1     -11.727   5.049  72.837  1.00  0.00    -0.256 OA 
ENDBRANCH  26  29
ENDBRANCH  22  23
ENDBRANCH  21  22
ENDBRANCH  19  21
ENDBRANCH   7  15
ENDBRANCH   5   6
ENDBRANCH   4   5
ENDBRANCH   3   4
ENDBRANCH   2   3
TORSDOF 9
ENDMDL
