MODEL      318
REMARK 921   NORMALIZED FREE ENERGY PREDICTED BY IDOCK:   -3.36 KCAL/MOL
REMARK 922        TOTAL FREE ENERGY PREDICTED BY IDOCK:   -8.86 KCAL/MOL
REMARK 923 INTER-LIGAND FREE ENERGY PREDICTED BY IDOCK:   -7.04 KCAL/MOL
REMARK 924 INTRA-LIGAND FREE ENERGY PREDICTED BY IDOCK:   -1.83 KCAL/MOL
REMARK 927      BINDING AFFINITY PREDICTED BY RF-SCORE:    0.00 PKD
ROOT
HETATM    1  C   UNL     1      -6.998   8.147  72.986  1.00  0.00    -0.126 C  
HETATM    2  C   UNL     1      -6.594   8.750  71.653  1.00  0.00    -0.075 C  
ENDROOT
BRANCH   2   3
HETATM    3  O   UNL     1      -6.988   7.832  70.626  1.00  0.00    -0.046 OA 
BRANCH   3   4
HETATM    4  C   UNL     1      -7.789   8.375  69.667  1.00  0.00    -0.100 C  
HETATM    5  O   UNL     1      -7.431   8.707  68.548  1.00  0.00    -0.090 OA 
BRANCH   4   6
HETATM    6  C   UNL     1      -9.203   8.399  70.177  1.00  0.00    -0.159 C  
BRANCH   6   7
HETATM    7  C   UNL     1      -9.750   9.830  70.161  1.00  0.00    -0.299 C  
BRANCH   7   8
HETATM    8  C   UNL     1     -11.253   9.863  69.928  1.00  0.00    -0.298 C  
BRANCH   8   9
HETATM    9  C   UNL     1     -11.825  11.251  70.083  1.00  0.00    -0.449 C  
HETATM   10  C   UNL     1     -11.621  12.274  69.238  1.00  0.00    -0.383 C  
BRANCH  10  11
HETATM   11  C   UNL     1     -10.662  12.237  68.093  1.00  0.00    -0.241 C  
BRANCH  11  12
HETATM   12  C   UNL     1     -11.277  11.962  66.755  1.00  0.00    -0.384 C  
HETATM   13  C   UNL     1     -11.837  12.913  65.986  1.00  0.00    -0.485 C  
BRANCH  13  14
HETATM   14  C   UNL     1     -11.960  14.394  66.265  1.00  0.00    -0.391 C  
BRANCH  14  15
HETATM   15  C   UNL     1     -11.079  15.283  65.426  1.00  0.00    -0.351 C  
HETATM   16  C   UNL     1      -9.817  15.642  65.710  1.00  0.00    -0.386 C  
BRANCH  16  17
HETATM   17  C   UNL     1      -9.124  15.362  67.003  1.00  0.00    -0.247 C  
BRANCH  17  18
HETATM   18  C   UNL     1      -9.954  15.911  68.132  1.00  0.00    -0.222 C  
HETATM   19  C   UNL     1      -9.702  17.063  68.770  1.00  0.00    -0.273 C  
BRANCH  19  20
HETATM   20  C   UNL     1      -8.547  17.959  68.471  1.00  0.00    -0.298 C  
BRANCH  20  21
HETATM   21  C   UNL     1      -8.894  19.408  68.634  1.00  0.00    -0.417 C  
HETATM   22  C   UNL     1      -9.305  20.204  67.634  1.00  0.00    -0.487 C  
BRANCH  22  23
HETATM   23  C   UNL     1      -9.446  19.799  66.198  1.00  0.00    -0.464 C  
HETATM   24  C   UNL     1     -10.826  19.239  65.906  1.00  0.00    -0.364 C  
ENDBRANCH  22  23
ENDBRANCH  20  21
ENDBRANCH  19  20
ENDBRANCH  17  18
ENDBRANCH  16  17
ENDBRANCH  14  15
ENDBRANCH  13  14
ENDBRANCH  11  12
ENDBRANCH  10  11
ENDBRANCH   8   9
ENDBRANCH   7   8
ENDBRANCH   6   7
ENDBRANCH   4   6
ENDBRANCH   3   4
ENDBRANCH   2   3
TORSDOF 15
ENDMDL
