MODEL       38
REMARK 921   NORMALIZED FREE ENERGY PREDICTED BY IDOCK:   -6.61 KCAL/MOL
REMARK 922        TOTAL FREE ENERGY PREDICTED BY IDOCK:  -11.85 KCAL/MOL
REMARK 923 INTER-LIGAND FREE ENERGY PREDICTED BY IDOCK:  -11.07 KCAL/MOL
REMARK 924 INTRA-LIGAND FREE ENERGY PREDICTED BY IDOCK:   -0.78 KCAL/MOL
REMARK 927      BINDING AFFINITY PREDICTED BY RF-SCORE:    0.00 PKD
ROOT
HETATM    1  C   UNL     1     -11.349  15.887  64.727  1.00  0.00    -0.309 C  
HETATM    2  N   UNL     1     -11.214  14.591  65.520  1.00  0.00    -0.325 N  
HETATM    3  C   UNL     1     -12.602  14.114  65.938  1.00  0.00    -0.417 C  
ENDROOT
BRANCH   2   4
HETATM    4  C   UNL     1     -10.506  13.560  64.666  1.00  0.00    -0.421 C  
BRANCH   4   5
HETATM    5  C   UNL     1     -11.169  12.186  64.572  1.00  0.00    -0.385 C  
BRANCH   5   6
HETATM    6  C   UNL     1     -10.209  11.124  65.123  1.00  0.00    -0.347 C  
BRANCH   6   7
HETATM    7  C   UNL     1     -10.405  10.813  66.618  1.00  0.00    -0.294 C  
BRANCH   7   8
HETATM    8  C   UNL     1      -9.098  10.773  67.425  1.00  0.00    -0.148 C  
BRANCH   8   9
HETATM    9  C   UNL     1      -9.433  10.437  68.878  1.00  0.00    -0.186 C  
BRANCH   9  10
HETATM   10  N   UNL     1      -9.033   9.044  69.337  1.00  0.00    -0.142 N  
HETATM   11  C   UNL     1      -8.099   8.377  68.333  1.00  0.00    -0.123 C  
HETATM   12  C   UNL     1      -8.292   9.072  70.665  1.00  0.00    -0.186 C  
BRANCH  10  13
HETATM   13  C   UNL     1     -10.388   8.194  69.484  1.00  0.00    -0.222 C  
HETATM   14  C   UNL     1     -11.446   8.848  70.394  1.00  0.00    -0.182 A  
HETATM   15  C   UNL     1     -11.725   8.008  71.495  1.00  0.00    -0.321 A  
HETATM   16  C   UNL     1     -10.997   6.770  71.350  1.00  0.00    -0.279 A  
HETATM   17  C   UNL     1     -12.607   8.395  72.495  1.00  0.00    -0.311 A  
HETATM   18  C   UNL     1     -10.216   6.820  70.173  1.00  0.00    -0.215 A  
HETATM   19  C   UNL     1     -13.225   9.640  72.392  1.00  0.00    -0.413 A  
HETATM   20  C   UNL     1     -12.982  10.463  71.285  1.00  0.00    -0.517 A  
HETATM   21  C   UNL     1      -9.488   5.700  69.785  1.00  0.00    -0.189 A  
HETATM   22  C   UNL     1      -9.506   4.563  70.605  1.00  0.00    -0.240 A  
HETATM   23  C   UNL     1     -12.109  10.063  70.269  1.00  0.00    -0.226 A  
HETATM   24  C   UNL     1     -10.274   4.529  71.773  1.00  0.00    -0.226 A  
HETATM   25  C   UNL     1     -11.035   5.635  72.150  1.00  0.00    -0.307 A  
ENDBRANCH  10  13
ENDBRANCH   9  10
ENDBRANCH   8   9
ENDBRANCH   7   8
ENDBRANCH   6   7
ENDBRANCH   5   6
ENDBRANCH   4   5
ENDBRANCH   2   4
BRANCH   2  26
HETATM   26  C   UNL     1     -10.309  14.828  66.834  1.00  0.00    -0.267 C  
HETATM   27  C   UNL     1     -10.204  18.263  68.250  1.00  0.00    -0.405 A  
HETATM   28  C   UNL     1     -11.067  14.681  68.170  1.00  0.00    -0.285 A  
HETATM   29  C   UNL     1      -9.425  18.972  67.342  1.00  0.00    -0.347 A  
HETATM   30  C   UNL     1     -11.119  15.935  68.825  1.00  0.00    -0.328 A  
HETATM   31  C   UNL     1     -10.381  16.903  68.047  1.00  0.00    -0.334 A  
HETATM   32  C   UNL     1     -11.739  16.081  70.058  1.00  0.00    -0.284 A  
HETATM   33  C   UNL     1      -8.771  18.321  66.285  1.00  0.00    -0.199 A  
HETATM   34  C   UNL     1     -11.606  13.558  68.795  1.00  0.00    -0.362 A  
HETATM   35  C   UNL     1      -9.790  16.257  66.940  1.00  0.00    -0.253 A  
HETATM   36  C   UNL     1     -12.323  14.961  70.651  1.00  0.00    -0.406 A  
HETATM   37  C   UNL     1      -8.916  16.940  66.100  1.00  0.00    -0.271 A  
HETATM   38  C   UNL     1     -12.259  13.711  70.025  1.00  0.00    -0.395 A  
ENDBRANCH   2  26
TORSDOF 9
ENDMDL
