MODEL      247
REMARK 921   NORMALIZED FREE ENERGY PREDICTED BY IDOCK:   -3.81 KCAL/MOL
REMARK 922        TOTAL FREE ENERGY PREDICTED BY IDOCK:   -8.43 KCAL/MOL
REMARK 923 INTER-LIGAND FREE ENERGY PREDICTED BY IDOCK:   -7.61 KCAL/MOL
REMARK 924 INTRA-LIGAND FREE ENERGY PREDICTED BY IDOCK:   -0.82 KCAL/MOL
REMARK 927      BINDING AFFINITY PREDICTED BY RF-SCORE:    0.00 PKD
ROOT
HETATM    1  C   UNL     1      -9.668   5.088  72.018  1.00  0.00    -0.214 C  
HETATM    2  C   UNL     1     -10.508   5.797  73.066  1.00  0.00    -0.248 C  
ENDROOT
BRANCH   2   3
HETATM    3  C   UNL     1      -9.968   7.193  73.384  1.00  0.00    -0.320 C  
BRANCH   3   4
HETATM    4  C   UNL     1     -10.471   8.198  72.348  1.00  0.00    -0.389 C  
BRANCH   4   5
HETATM    5  C   UNL     1     -11.917   8.630  72.601  1.00  0.00    -0.253 C  
BRANCH   5   6
HETATM    6  C   UNL     1     -12.668   9.011  71.313  1.00  0.00    -0.262 C  
HETATM    7  O   UNL     1     -12.988   7.801  70.636  1.00  0.00    -0.439 OA 
HETATM    8  H   UNL     1     -13.452   8.037  69.840  1.00  0.00     0.000 HD 
BRANCH   6   9
HETATM    9  C   UNL     1     -11.870   9.935  70.419  1.00  0.00    -0.310 C  
HETATM   10  C   UNL     1     -12.326  10.999  69.737  1.00  0.00    -0.331 C  
BRANCH  10  11
HETATM   11  C   UNL     1     -11.506  11.784  68.736  1.00  0.00    -0.350 C  
HETATM   12  C   UNL     1     -11.424  13.264  69.169  1.00  0.00    -0.305 C  
HETATM   13  O   UNL     1     -12.600  13.986  68.829  1.00  0.00    -0.416 OA 
HETATM   14  C   UNL     1     -10.221  13.830  68.446  1.00  0.00    -0.248 C  
HETATM   15  H   UNL     1     -12.548  14.897  69.095  1.00  0.00     0.000 HD 
HETATM   16  C   UNL     1      -9.307  12.645  68.432  1.00  0.00    -0.148 C  
HETATM   17  O   UNL     1      -8.094  12.755  68.291  1.00  0.00    -0.146 OA 
HETATM   18  C   UNL     1     -10.036  11.320  68.598  1.00  0.00    -0.210 C  
BRANCH  18  19
HETATM   19  C   UNL     1      -9.852  10.391  67.383  1.00  0.00    -0.210 C  
BRANCH  19  20
HETATM   20  C   UNL     1      -9.547  11.128  66.072  1.00  0.00    -0.248 C  
BRANCH  20  21
HETATM   21  C   UNL     1      -8.606  10.327  65.168  1.00  0.00    -0.181 C  
BRANCH  21  22
HETATM   22  C   UNL     1      -9.197  10.170  63.763  1.00  0.00    -0.321 C  
BRANCH  22  23
HETATM   23  C   UNL     1      -9.639  11.516  63.190  1.00  0.00    -0.381 C  
BRANCH  23  24
HETATM   24  C   UNL     1     -11.157  11.689  63.257  1.00  0.00    -0.333 C  
HETATM   25  C   UNL     1     -11.539  13.053  63.784  1.00  0.00    -0.457 C  
HETATM   26  O   UNL     1     -10.759  13.928  64.119  1.00  0.00    -0.235 OA 
HETATM   27  O   UNL     1     -12.880  13.214  63.853  1.00  0.00    -0.653 OA 
ENDBRANCH  23  24
ENDBRANCH  22  23
ENDBRANCH  21  22
ENDBRANCH  20  21
ENDBRANCH  19  20
ENDBRANCH  18  19
ENDBRANCH  10  11
ENDBRANCH   6   9
ENDBRANCH   5   6
ENDBRANCH   4   5
ENDBRANCH   3   4
ENDBRANCH   2   3
TORSDOF 12
ENDMDL
