MODEL       57
REMARK 921   NORMALIZED FREE ENERGY PREDICTED BY IDOCK:   -5.59 KCAL/MOL
REMARK 922        TOTAL FREE ENERGY PREDICTED BY IDOCK:   -8.09 KCAL/MOL
REMARK 923 INTER-LIGAND FREE ENERGY PREDICTED BY IDOCK:   -7.58 KCAL/MOL
REMARK 924 INTRA-LIGAND FREE ENERGY PREDICTED BY IDOCK:   -0.51 KCAL/MOL
REMARK 927      BINDING AFFINITY PREDICTED BY RF-SCORE:    0.00 PKD
ROOT
HETATM    1  O   UNL     1      -9.722   5.557  70.412  1.00  0.00    -0.166 OA 
HETATM    2  C   UNL     1     -10.110   5.025  71.442  1.00  0.00    -0.199 C  
HETATM    3  N   UNL     1     -10.033   3.690  71.712  1.00  0.00    -0.167 NA 
HETATM    4  O   UNL     1     -10.622   3.332  72.939  1.00  0.00    -0.160 OA 
HETATM    5  C   UNL     1     -11.137   4.545  73.505  1.00  0.00    -0.314 C  
HETATM    6  C   UNL     1     -10.705   5.719  72.633  1.00  0.00    -0.240 C  
ENDROOT
BRANCH   6   7
HETATM    7  N   UNL     1     -11.883   6.535  72.278  1.00  0.00    -0.426 NA 
HETATM    8  H   UNL     1     -12.708   6.150  71.817  1.00  0.00     0.000 HD 
BRANCH   7   9
HETATM    9  C   UNL     1     -11.774   7.779  72.602  1.00  0.00    -0.309 C  
BRANCH   9  10
HETATM   10  C   UNL     1     -11.989   8.848  71.609  1.00  0.00    -0.415 A  
HETATM   11  C   UNL     1     -11.214   8.822  70.447  1.00  0.00    -0.247 A  
HETATM   12  C   UNL     1     -11.241   9.917  69.581  1.00  0.00    -0.251 A  
HETATM   13  C   UNL     1     -12.049  11.020  69.871  1.00  0.00    -0.435 A  
HETATM   14  C   UNL     1     -12.876  11.015  70.998  1.00  0.00    -0.442 A  
HETATM   15  C   UNL     1     -12.841   9.926  71.875  1.00  0.00    -0.524 A  
BRANCH  13  16
HETATM   16  C   UNL     1     -11.967  12.235  69.036  1.00  0.00    -0.248 C  
BRANCH  16  17
HETATM   17  N   UNL     1     -11.798  12.151  67.759  1.00  0.00    -0.514 NA 
HETATM   18  H   UNL     1     -11.677  11.258  67.280  1.00  0.00     0.000 HD 
BRANCH  17  19
HETATM   19  C   UNL     1     -11.790  13.437  67.046  1.00  0.00    -0.394 C  
HETATM   20  C   UNL     1     -10.360  13.900  66.826  1.00  0.00    -0.272 C  
HETATM   21  O   UNL     1     -10.369  14.699  65.635  1.00  0.00    -0.309 OA 
HETATM   22  N   UNL     1     -11.478  14.230  64.887  1.00  0.00    -0.359 NA 
HETATM   23  C   UNL     1     -12.238  13.344  65.613  1.00  0.00    -0.463 C  
HETATM   24  O   UNL     1     -13.152  12.670  65.163  1.00  0.00    -0.726 OA 
ENDBRANCH  17  19
ENDBRANCH  16  17
ENDBRANCH  13  16
ENDBRANCH   9  10
ENDBRANCH   7   9
ENDBRANCH   6   7
TORSDOF 6
ENDMDL
