MODEL      127
REMARK 921   NORMALIZED FREE ENERGY PREDICTED BY IDOCK:   -2.30 KCAL/MOL
REMARK 922        TOTAL FREE ENERGY PREDICTED BY IDOCK:   -2.93 KCAL/MOL
REMARK 923 INTER-LIGAND FREE ENERGY PREDICTED BY IDOCK:   -2.70 KCAL/MOL
REMARK 924 INTRA-LIGAND FREE ENERGY PREDICTED BY IDOCK:   -0.23 KCAL/MOL
REMARK 927      BINDING AFFINITY PREDICTED BY RF-SCORE:    0.00 PKD
ROOT
HETATM    1  C   UNL     1     -11.920  14.562  70.901  1.00  0.00    -0.389 C  
HETATM    2  C   UNL     1     -11.929  13.507  69.804  1.00  0.00    -0.405 C  
ENDROOT
BRANCH   2   3
HETATM    3  C   UNL     1     -11.791  14.146  68.419  1.00  0.00    -0.388 C  
HETATM    4  C   UNL     1     -10.503  14.979  68.230  1.00  0.00    -0.237 C  
HETATM    5  C   UNL     1     -10.526  15.656  66.862  1.00  0.00    -0.307 C  
HETATM    6  C   UNL     1      -9.200  14.182  68.445  1.00  0.00    -0.203 C  
HETATM    7  O   UNL     1      -9.498  16.508  66.653  1.00  0.00    -0.233 OA 
HETATM    8  O   UNL     1     -11.397  15.495  66.020  1.00  0.00    -0.189 OA 
BRANCH   6   9
HETATM    9  C   UNL     1      -8.996  13.028  67.460  1.00  0.00    -0.193 C  
HETATM   10  C   UNL     1      -8.437  11.800  68.163  1.00  0.00    -0.158 C  
ENDBRANCH   6   9
ENDBRANCH   2   3
TORSDOF 2
ENDMDL
