MODEL      240
REMARK 921   NORMALIZED FREE ENERGY PREDICTED BY IDOCK:   -3.83 KCAL/MOL
REMARK 922        TOTAL FREE ENERGY PREDICTED BY IDOCK:   -6.81 KCAL/MOL
REMARK 923 INTER-LIGAND FREE ENERGY PREDICTED BY IDOCK:   -6.07 KCAL/MOL
REMARK 924 INTRA-LIGAND FREE ENERGY PREDICTED BY IDOCK:   -0.74 KCAL/MOL
REMARK 927      BINDING AFFINITY PREDICTED BY RF-SCORE:    0.00 PKD
ROOT
HETATM    1  C   UNK A   0     -11.045   4.990  72.873  1.00  0.00    -0.348 C  
HETATM    2  C   UNK A   0     -10.978   6.348  72.215  1.00  0.00    -0.289 C  
HETATM    3  C   UNK A   0     -10.456   6.372  70.800  1.00  0.00    -0.270 C  
HETATM    4  C   UNK A   0     -10.586   7.452  73.169  1.00  0.00    -0.424 C  
HETATM    5  C   UNK A   0     -11.925   6.667  71.051  1.00  0.00    -0.415 C  
ENDROOT
BRANCH   5   6
HETATM    6  C   UNK A   0     -12.396   8.054  70.724  1.00  0.00     0.044 C  
HETATM    7  N   UNK A   1     -11.519   8.855  70.029  1.00  0.00    -0.454 N  
HETATM    8  O   UNK A   0     -13.481   8.445  71.134  1.00  0.00    -0.161 OA 
HETATM    9  H   UNK A   1     -10.632   8.423  69.767  1.00  0.00     0.000 HD 
BRANCH   7  10
HETATM   10  C   UNK A   1     -11.692  10.181  69.639  1.00  0.00    -0.098 C  
HETATM   11  C   UNK A   1     -11.234  10.619  68.439  1.00  0.00    -0.347 C  
HETATM   12  C   UNK A   1     -12.325  11.286  70.463  1.00  0.00    -0.356 C  
HETATM   13  O   UNK A   1     -12.156  11.202  71.797  1.00  0.00     0.069 OA 
HETATM   14  O   UNK A   1     -12.804  12.291  69.955  1.00  0.00     0.299 OA 
BRANCH  11  15
HETATM   15  C   UNK A   1     -10.476   9.826  67.418  1.00  0.00    -0.319 C  
BRANCH  15  16
HETATM   16  C   UNK A   1      -8.945  10.006  67.402  1.00  0.00    -0.139 C  
BRANCH  16  17
HETATM   17  C   UNK A   1      -8.663  11.339  66.696  1.00  0.00    -0.174 C  
BRANCH  17  18
HETATM   18  C   UNK A   1      -7.935  12.386  67.530  1.00  0.00    -0.173 C  
BRANCH  18  19
HETATM   19  S   UNK A   1      -8.779  13.980  67.209  1.00  0.00    -0.221 SA 
BRANCH  19  20
HETATM   20  C   UNK A   1     -10.257  13.371  66.331  1.00  0.00    -0.293 C  
BRANCH  20  21
HETATM   21  C   UNK A   1     -11.437  14.338  66.517  1.00  0.00    -0.360 C  
HETATM   22  N   UNK A   1     -12.750  13.626  66.639  1.00  0.00    -0.263 NA 
HETATM   23  C   UNK A   1     -11.494  15.239  65.282  1.00  0.00    -0.217 C  
HETATM   24  O   UNK A   1     -10.756  16.187  65.072  1.00  0.00    -0.558 OA 
HETATM   25  O   UNK A   1     -12.447  14.818  64.409  1.00  0.00    -0.599 OA 
HETATM   26  H1  UNK A   1     -13.534  14.267  66.762  1.00  0.00     0.000 HD 
HETATM   27  H2  UNK A   1     -12.724  12.933  67.386  1.00  0.00     0.000 HD 
ENDBRANCH  20  21
ENDBRANCH  19  20
ENDBRANCH  18  19
ENDBRANCH  17  18
ENDBRANCH  16  17
ENDBRANCH  15  16
ENDBRANCH  11  15
ENDBRANCH   7  10
ENDBRANCH   5   6
TORSDOF 9
ENDMDL
