MODEL       80
REMARK 921   NORMALIZED FREE ENERGY PREDICTED BY IDOCK:   -5.58 KCAL/MOL
REMARK 922        TOTAL FREE ENERGY PREDICTED BY IDOCK:   -9.88 KCAL/MOL
REMARK 923 INTER-LIGAND FREE ENERGY PREDICTED BY IDOCK:   -8.71 KCAL/MOL
REMARK 924 INTRA-LIGAND FREE ENERGY PREDICTED BY IDOCK:   -1.18 KCAL/MOL
REMARK 927      BINDING AFFINITY PREDICTED BY RF-SCORE:    0.00 PKD
ROOT
HETATM    1  C   UNL     1      -6.348   7.958  68.127  1.00  0.00    -0.050 C  
HETATM    2  C   UNL     1      -7.061   9.247  67.832  1.00  0.00    -0.078 A  
HETATM    3  C   UNL     1      -7.585   9.485  66.563  1.00  0.00    -0.094 A  
HETATM    4  C   UNL     1      -8.347  10.635  66.312  1.00  0.00    -0.155 A  
HETATM    5  C   UNL     1      -8.486  11.640  67.299  1.00  0.00    -0.156 A  
HETATM    6  C   UNL     1      -7.760  11.491  68.468  1.00  0.00    -0.134 A  
HETATM    7  N   UNL     1      -9.403  12.707  67.123  1.00  0.00    -0.203 NA 
HETATM    8  H   UNL     1     -11.804  13.006  62.574  1.00  0.00     0.000 HD 
HETATM    9  C   UNL     1      -7.268  10.228  68.812  1.00  0.00    -0.083 A  
HETATM   10  C   UNL     1     -10.095  12.751  65.915  1.00  0.00    -0.276 A  
HETATM   11  C   UNL     1      -7.407   9.898  70.273  1.00  0.00    -0.166 C  
HETATM   12  C   UNL     1     -10.477  11.801  63.531  1.00  0.00    -0.449 C  
HETATM   13  N   UNL     1     -11.003  13.644  65.672  1.00  0.00    -0.288 N  
HETATM   14  H   UNL     1     -11.217  14.338  66.388  1.00  0.00     0.000 HD 
HETATM   15  N   UNL     1      -8.985  10.706  65.071  1.00  0.00    -0.194 NA 
HETATM   16  C   UNL     1     -11.679  13.685  64.489  1.00  0.00    -0.400 C  
HETATM   17  N   UNL     1     -11.349  12.840  63.472  1.00  0.00    -0.462 N  
HETATM   18  O   UNL     1     -10.286  11.017  62.616  1.00  0.00    -0.095 OA 
HETATM   19  C   UNL     1      -9.791  11.699  64.861  1.00  0.00    -0.235 A  
HETATM   20  O   UNL     1     -12.599  14.475  64.305  1.00  0.00    -0.681 OA 
ENDROOT
BRANCH   7  21
HETATM   21  C   UNL     1     -10.049  13.284  68.353  1.00  0.00    -0.237 C  
BRANCH  21  22
HETATM   22  C   UNL     1     -11.551  12.940  68.451  1.00  0.00    -0.333 C  
HETATM   23  O   UNL     1     -12.295  14.126  68.723  1.00  0.00    -0.549 OA 
HETATM   24  H   UNL     1     -13.220  13.914  68.783  1.00  0.00     0.000 HD 
BRANCH  22  25
HETATM   25  C   UNL     1     -11.905  11.837  69.476  1.00  0.00    -0.337 C  
HETATM   26  O   UNL     1     -12.112  12.447  70.769  1.00  0.00    -0.456 OA 
HETATM   27  H   UNL     1     -12.329  11.770  71.398  1.00  0.00     0.000 HD 
BRANCH  25  28
HETATM   28  C   UNL     1     -10.930  10.648  69.659  1.00  0.00    -0.278 C  
HETATM   29  O   UNL     1     -11.233   9.653  68.649  1.00  0.00    -0.464 OA 
HETATM   30  H   UNL     1     -10.635   8.924  68.761  1.00  0.00     0.000 HD 
BRANCH  28  31
HETATM   31  C   UNL     1     -10.948   9.954  71.027  1.00  0.00    -0.290 C  
BRANCH  31  32
HETATM   32  O   UNL     1     -12.242   9.355  71.178  1.00  0.00    -0.306 OA 
HETATM   33  P   UNL     1     -12.316   7.793  71.507  1.00  0.00    -0.318 P  
HETATM   34  O   UNL     1     -11.631   7.060  70.266  1.00  0.00    -0.299 OA 
HETATM   35  O   UNL     1     -13.853   7.395  71.356  1.00  0.00    -0.393 OA 
HETATM   36  O   UNL     1     -11.741   7.356  72.808  1.00  0.00    -0.246 OA 
ENDBRANCH  31  32
ENDBRANCH  28  31
ENDBRANCH  25  28
ENDBRANCH  22  25
ENDBRANCH  21  22
ENDBRANCH   7  21
TORSDOF 6
ENDMDL
