MODEL      114
REMARK 921   NORMALIZED FREE ENERGY PREDICTED BY IDOCK:   -3.16 KCAL/MOL
REMARK 922        TOTAL FREE ENERGY PREDICTED BY IDOCK:   -3.57 KCAL/MOL
REMARK 923 INTER-LIGAND FREE ENERGY PREDICTED BY IDOCK:   -3.32 KCAL/MOL
REMARK 924 INTRA-LIGAND FREE ENERGY PREDICTED BY IDOCK:   -0.25 KCAL/MOL
REMARK 927      BINDING AFFINITY PREDICTED BY RF-SCORE:    0.00 PKD
ROOT
HETATM    1  N   UNL     1     -10.198  18.203  66.281  1.00  0.00    -0.391 N  
HETATM    2  C   UNL     1     -10.142  17.413  67.390  1.00  0.00    -0.321 C  
HETATM    3  H2  UNL     1      -9.870  19.167  66.328  1.00  0.00     0.000 HD 
HETATM    4  H1  UNL     1     -10.568  17.834  65.404  1.00  0.00     0.000 HD 
HETATM    5  O   UNL     1      -9.698  17.856  68.444  1.00  0.00    -0.306 OA 
ENDROOT
BRANCH   2   6
HETATM    6  C   UNL     1     -10.633  16.006  67.270  1.00  0.00    -0.313 A  
HETATM    7  C   UNL     1     -10.483  15.389  66.016  1.00  0.00    -0.333 A  
HETATM    8  C   UNL     1     -10.920  14.079  65.807  1.00  0.00    -0.294 A  
HETATM    9  C   UNL     1     -11.513  13.369  66.848  1.00  0.00    -0.376 A  
HETATM   10  C   UNL     1     -11.667  13.965  68.101  1.00  0.00    -0.388 A  
HETATM   11  C   UNL     1     -11.225  15.276  68.313  1.00  0.00    -0.314 A  
HETATM   12  O   UNL     1     -11.385  15.824  69.561  1.00  0.00    -0.280 OA 
HETATM   13  H   UNL     1     -11.786  15.330  70.267  1.00  0.00     0.000 HD 
ENDBRANCH   2   6
TORSDOF 1
ENDMDL
