MODEL      254
REMARK 921   NORMALIZED FREE ENERGY PREDICTED BY IDOCK:   -4.33 KCAL/MOL
REMARK 922        TOTAL FREE ENERGY PREDICTED BY IDOCK:  -10.73 KCAL/MOL
REMARK 923 INTER-LIGAND FREE ENERGY PREDICTED BY IDOCK:   -9.00 KCAL/MOL
REMARK 924 INTRA-LIGAND FREE ENERGY PREDICTED BY IDOCK:   -1.73 KCAL/MOL
REMARK 927      BINDING AFFINITY PREDICTED BY RF-SCORE:    0.00 PKD
ROOT
HETATM    1  O   UNL     1     -12.665  14.426  67.176  1.00  0.00    -0.446 OA 
HETATM    2  C   UNL     1     -11.288  14.060  67.076  1.00  0.00    -0.330 C  
HETATM    3  H   UNL     1     -12.793  15.025  67.902  1.00  0.00     0.000 HD 
ENDROOT
BRANCH   2   4
HETATM    4  C   UNL     1     -11.084  13.110  65.926  1.00  0.00    -0.298 A  
HETATM    5  C   UNL     1     -11.679  13.298  64.672  1.00  0.00    -0.364 A  
HETATM    6  O   UNL     1     -12.541  14.331  64.432  1.00  0.00    -0.665 OA 
HETATM    7  C   UNL     1     -11.442  12.423  63.618  1.00  0.00    -0.568 A  
HETATM    8  C   UNL     1     -10.616  11.318  63.807  1.00  0.00    -0.455 A  
HETATM    9  H   UNL     1     -12.946  14.458  63.582  1.00  0.00     0.000 HD 
HETATM   10  C   UNL     1     -10.002  11.090  65.049  1.00  0.00    -0.340 A  
HETATM   11  C   UNL     1     -10.227  12.007  66.091  1.00  0.00    -0.255 A  
BRANCH  10  12
HETATM   12  C   UNL     1      -9.135   9.868  65.291  1.00  0.00    -0.211 C  
HETATM   13  O   UNL     1      -7.792  10.270  65.603  1.00  0.00    -0.139 OA 
HETATM   14  H   UNL     1      -7.248   9.505  65.755  1.00  0.00     0.000 HD 
BRANCH  12  15
HETATM   15  C   UNL     1      -9.673   8.988  66.439  1.00  0.00    -0.268 C  
BRANCH  15  16
HETATM   16  N   UNL     1      -9.894   7.603  65.990  1.00  0.00    -0.422 NA 
HETATM   17  H   UNL     1      -9.024   7.149  65.711  1.00  0.00     0.000 HD 
BRANCH  16  18
HETATM   18  C   UNL     1     -10.598   6.849  67.022  1.00  0.00    -0.333 C  
BRANCH  18  19
HETATM   19  C   UNL     1     -10.640   5.371  66.652  1.00  0.00    -0.359 C  
BRANCH  19  20
HETATM   20  C   UNL     1      -9.487   4.627  67.322  1.00  0.00    -0.173 C  
BRANCH  20  21
HETATM   21  C   UNL     1      -8.415   4.267  66.303  1.00  0.00    -0.112 C  
BRANCH  21  22
HETATM   22  C   UNL     1      -7.024   4.630  66.807  1.00  0.00    -0.060 C  
BRANCH  22  23
HETATM   23  C   UNL     1      -6.870   6.141  66.892  1.00  0.00    -0.062 C  
BRANCH  23  24
HETATM   24  O   UNL     1      -6.554   6.486  68.236  1.00  0.00    -0.053 OA 
BRANCH  24  25
HETATM   25  C   UNL     1      -7.618   7.206  68.853  1.00  0.00    -0.100 C  
BRANCH  25  26
HETATM   26  C   UNL     1      -7.653   6.856  70.335  1.00  0.00    -0.088 C  
BRANCH  26  27
HETATM   27  C   UNL     1      -9.091   6.811  70.854  1.00  0.00    -0.153 C  
BRANCH  27  28
HETATM   28  C   UNL     1      -9.316   7.798  71.998  1.00  0.00    -0.199 C  
BRANCH  28  29
HETATM   29  C   UNL     1     -10.627   8.521  71.803  1.00  0.00    -0.371 A  
HETATM   30  C   UNL     1     -11.812   7.997  72.332  1.00  0.00    -0.429 A  
HETATM   31  C   UNL     1     -13.033   8.623  72.082  1.00  0.00    -0.432 A  
HETATM   32  C   UNL     1     -13.079   9.776  71.300  1.00  0.00    -0.465 A  
HETATM   33  C   UNL     1     -11.904  10.308  70.772  1.00  0.00    -0.459 A  
HETATM   34  C   UNL     1     -10.682   9.683  71.021  1.00  0.00    -0.393 A  
ENDBRANCH  28  29
ENDBRANCH  27  28
ENDBRANCH  26  27
ENDBRANCH  25  26
ENDBRANCH  24  25
ENDBRANCH  23  24
ENDBRANCH  22  23
ENDBRANCH  21  22
ENDBRANCH  20  21
ENDBRANCH  19  20
ENDBRANCH  18  19
ENDBRANCH  16  18
ENDBRANCH  15  16
ENDBRANCH  12  15
ENDBRANCH  10  12
ENDBRANCH   2   4
TORSDOF 16
ENDMDL
