MODEL       31
REMARK 921   NORMALIZED FREE ENERGY PREDICTED BY IDOCK:   -5.97 KCAL/MOL
REMARK 922        TOTAL FREE ENERGY PREDICTED BY IDOCK:   -8.72 KCAL/MOL
REMARK 923 INTER-LIGAND FREE ENERGY PREDICTED BY IDOCK:   -8.20 KCAL/MOL
REMARK 924 INTRA-LIGAND FREE ENERGY PREDICTED BY IDOCK:   -0.52 KCAL/MOL
REMARK 927      BINDING AFFINITY PREDICTED BY RF-SCORE:    0.00 PKD
ROOT
HETATM    1  C   UNL     1     -12.677   8.925  72.133  1.00  0.00    -0.470 C  
HETATM    2  C   UNL     1     -11.313   8.615  71.508  1.00  0.00    -0.289 C  
HETATM    3  O   UNL     1     -10.624   9.845  71.166  1.00  0.00    -0.250 OA 
HETATM    4  C   UNL     1     -11.379   7.562  70.390  1.00  0.00    -0.253 C  
HETATM    5  C   UNL     1     -10.444   7.990  72.622  1.00  0.00    -0.339 C  
HETATM    6  O   UNL     1      -9.275   8.648  72.828  1.00  0.00    -0.293 OA 
HETATM    7  O   UNL     1     -10.745   6.992  73.262  1.00  0.00    -0.297 OA 
ENDROOT
BRANCH   3   8
HETATM    8  C   UNL     1     -10.743  10.392  69.923  1.00  0.00    -0.279 A  
HETATM    9  C   UNL     1      -9.913  10.113  68.847  1.00  0.00    -0.207 A  
HETATM   10  C   UNL     1     -10.061  10.805  67.647  1.00  0.00    -0.205 A  
HETATM   11  C   UNL     1     -11.083  11.743  67.475  1.00  0.00    -0.330 A  
HETATM   12  C   UNL     1     -11.796  11.291  69.752  1.00  0.00    -0.437 A  
HETATM   13  C   UNL     1     -11.962  11.971  68.541  1.00  0.00    -0.273 A  
BRANCH  11  14
HETATM   14  C   UNL     1     -11.198  12.566  66.209  1.00  0.00    -0.359 C  
BRANCH  14  15
HETATM   15  C   UNL     1     -11.938  13.898  66.384  1.00  0.00    -0.438 C  
BRANCH  15  16
HETATM   16  N   UNL     1     -11.047  14.996  66.689  1.00  0.00    -0.330 N  
HETATM   17  C   UNL     1     -10.735  15.936  65.727  1.00  0.00    -0.316 C  
HETATM   18  H   UNL     1     -10.645  15.077  67.623  1.00  0.00     0.000 HD 
HETATM   19  O   UNL     1     -11.125  15.877  64.566  1.00  0.00    -0.495 OA 
BRANCH  17  20
HETATM   20  C   UNL     1      -9.928  17.092  66.187  1.00  0.00    -0.314 A  
HETATM   21  C   UNL     1     -10.520  18.330  66.465  1.00  0.00    -0.378 A  
HETATM   22  C   UNL     1      -9.729  19.403  66.881  1.00  0.00    -0.431 A  
HETATM   23  C   UNL     1      -8.352  19.234  67.026  1.00  0.00    -0.278 A  
HETATM   24 CL   UNL     1      -7.382  20.561  67.535  1.00  0.00    -0.357 Cl 
HETATM   25  C   UNL     1      -7.758  18.000  66.768  1.00  0.00    -0.252 A  
HETATM   26  C   UNL     1      -8.548  16.924  66.353  1.00  0.00    -0.328 A  
ENDBRANCH  17  20
ENDBRANCH  15  16
ENDBRANCH  14  15
ENDBRANCH  11  14
ENDBRANCH   3   8
TORSDOF 5
ENDMDL
