MODEL       51
REMARK 921   NORMALIZED FREE ENERGY PREDICTED BY IDOCK:   -6.42 KCAL/MOL
REMARK 922        TOTAL FREE ENERGY PREDICTED BY IDOCK:  -10.80 KCAL/MOL
REMARK 923 INTER-LIGAND FREE ENERGY PREDICTED BY IDOCK:   -9.56 KCAL/MOL
REMARK 924 INTRA-LIGAND FREE ENERGY PREDICTED BY IDOCK:   -1.24 KCAL/MOL
REMARK 927      BINDING AFFINITY PREDICTED BY RF-SCORE:    0.00 PKD
ROOT
HETATM    1  C   UNL     1     -11.151   3.978  73.537  1.00  0.00    -0.350 C  
HETATM    2  C   UNL     1     -10.941   5.470  73.336  1.00  0.00    -0.324 C  
ENDROOT
BRANCH   2   3
HETATM    3  C   UNL     1     -10.598   5.805  71.888  1.00  0.00    -0.232 C  
BRANCH   3   4
HETATM    4  S   UNL     1     -11.825   6.906  71.178  1.00  0.00    -0.365 S  
HETATM    5  O   UNL     1     -13.111   6.650  71.785  1.00  0.00    -0.294 OA 
HETATM    6  O   UNL     1     -11.648   6.926  69.745  1.00  0.00    -0.240 OA 
BRANCH   4   7
HETATM    7  N   UNL     1     -11.243   8.409  71.691  1.00  0.00    -0.261 N  
HETATM    8  H   UNL     1     -11.322   8.701  72.665  1.00  0.00     0.000 HD 
BRANCH   7   9
HETATM    9  C   UNL     1     -10.636   9.255  70.710  1.00  0.00    -0.285 A  
HETATM   10  C   UNL     1     -11.367  10.293  70.120  1.00  0.00    -0.316 A  
HETATM   11  C   UNL     1     -10.720  11.274  69.364  1.00  0.00    -0.188 A  
HETATM   12  F   UNL     1     -12.686  10.368  70.362  1.00  0.00    -0.352 F  
HETATM   13  C   UNL     1      -9.297   9.068  70.377  1.00  0.00    -0.244 A  
HETATM   14  C   UNL     1      -9.378  11.075  69.034  1.00  0.00    -0.091 A  
HETATM   15  C   UNL     1      -8.675   9.966  69.511  1.00  0.00    -0.200 A  
HETATM   16  F   UNL     1      -8.705  11.958  68.283  1.00  0.00    -0.148 F  
BRANCH  11  17
HETATM   17  C   UNL     1     -11.391  12.529  68.951  1.00  0.00    -0.297 C  
HETATM   18  O   UNL     1     -11.786  13.300  69.822  1.00  0.00    -0.308 OA 
BRANCH  17  19
HETATM   19  C   UNL     1     -11.553  12.852  67.527  1.00  0.00    -0.409 A  
HETATM   20  C   UNL     1     -12.251  12.036  66.648  1.00  0.00     0.524 A  
HETATM   21  N   UNL     1     -12.375  12.684  65.449  1.00  0.00    -0.609 NA 
HETATM   22  C   UNL     1     -11.737  13.890  65.512  1.00  0.00    -0.349 A  
HETATM   23  H   UNL     1     -12.868  12.323  64.633  1.00  0.00     0.000 HD 
HETATM   24  N   UNL     1     -11.735  14.804  64.526  1.00  0.00    -0.409 NA 
HETATM   25  C   UNL     1     -11.021  15.919  64.837  1.00  0.00    -0.411 A  
HETATM   26  C   UNL     1     -10.279  16.145  66.000  1.00  0.00    -0.374 A  
HETATM   27  C   UNL     1     -10.305  15.116  66.958  1.00  0.00    -0.271 A  
HETATM   28  C   UNL     1     -11.112  13.979  66.750  1.00  0.00    -0.311 A  
BRANCH  26  29
HETATM   29  C   UNL     1      -9.543  17.404  66.261  1.00  0.00    -0.260 A  
HETATM   30  C   UNL     1     -10.210  18.634  66.420  1.00  0.00    -0.461 A  
HETATM   31  C   UNL     1      -9.510  19.806  66.735  1.00  0.00    -0.489 A  
HETATM   32  C   UNL     1      -8.130  19.768  66.904  1.00  0.00    -0.297 A  
HETATM   33  C   UNL     1      -7.442  18.572  66.739  1.00  0.00    -0.240 A  
HETATM   34 CL   UNL     1      -7.272  21.196  67.326  1.00  0.00    -0.379 Cl 
HETATM   35  C   UNL     1      -8.142  17.407  66.412  1.00  0.00    -0.315 A  
ENDBRANCH  26  29
ENDBRANCH  17  19
ENDBRANCH  11  17
ENDBRANCH   7   9
ENDBRANCH   4   7
ENDBRANCH   3   4
ENDBRANCH   2   3
TORSDOF 7
ENDMDL
