MODEL      162
REMARK 921   NORMALIZED FREE ENERGY PREDICTED BY IDOCK:   -4.39 KCAL/MOL
REMARK 922        TOTAL FREE ENERGY PREDICTED BY IDOCK:  -11.28 KCAL/MOL
REMARK 923 INTER-LIGAND FREE ENERGY PREDICTED BY IDOCK:  -10.16 KCAL/MOL
REMARK 924 INTRA-LIGAND FREE ENERGY PREDICTED BY IDOCK:   -1.12 KCAL/MOL
REMARK 927      BINDING AFFINITY PREDICTED BY RF-SCORE:    0.00 PKD
ROOT
HETATM    1  C   UNL     1     -10.380   5.590  72.399  1.00  0.00    -0.251 C  
HETATM    2  C   UNL     1      -9.834   6.028  71.045  1.00  0.00    -0.183 C  
HETATM    3  C   UNL     1     -10.273   5.066  69.948  1.00  0.00    -0.340 C  
ENDROOT
BRANCH   2   4
HETATM    4  O   UNL     1     -10.358   7.328  70.715  1.00  0.00    -0.202 OA 
BRANCH   4   5
HETATM    5  C   UNL     1     -11.651   7.545  71.094  1.00  0.00    -0.282 C  
HETATM    6  O   UNL     1     -12.607   6.846  70.781  1.00  0.00    -0.324 OA 
BRANCH   5   7
HETATM    7  C   UNL     1     -11.731   8.791  71.938  1.00  0.00    -0.429 C  
BRANCH   7   8
HETATM    8  C   UNL     1     -11.287  10.018  71.140  1.00  0.00    -0.397 C  
BRANCH   8   9
HETATM    9  C   UNL     1     -12.360  10.537  70.187  1.00  0.00    -0.339 C  
BRANCH   9  10
HETATM   10  C   UNL     1     -12.160  11.983  69.832  1.00  0.00    -0.334 C  
HETATM   11  C   UNL     1     -11.700  12.467  68.665  1.00  0.00    -0.372 C  
BRANCH  11  12
HETATM   12  C   UNL     1     -11.310  11.669  67.454  1.00  0.00    -0.367 C  
BRANCH  12  13
HETATM   13  C   UNL     1     -10.639  12.455  66.315  1.00  0.00    -0.277 C  
HETATM   14  C   UNL     1     -11.432  12.306  65.003  1.00  0.00    -0.336 C  
HETATM   15  C   UNL     1     -10.855  13.397  64.123  1.00  0.00    -0.313 C  
HETATM   16  O   UNL     1     -12.820  12.583  65.192  1.00  0.00    -0.685 OA 
HETATM   17  C   UNL     1     -10.715  14.579  65.077  1.00  0.00    -0.427 C  
HETATM   18  H   UNL     1     -13.310  12.490  64.382  1.00  0.00     0.000 HD 
HETATM   19  C   UNL     1     -10.566  13.992  66.506  1.00  0.00    -0.279 C  
HETATM   20  O   UNL     1     -11.888  15.389  65.029  1.00  0.00    -0.170 OA 
HETATM   21  H   UNL     1     -11.801  16.125  65.623  1.00  0.00     0.000 HD 
BRANCH  19  22
HETATM   22  C   UNL     1      -9.256  14.458  67.167  1.00  0.00    -0.230 C  
BRANCH  22  23
HETATM   23  C   UNL     1      -9.541  15.181  68.486  1.00  0.00    -0.214 C  
BRANCH  23  24
HETATM   24  C   UNL     1     -10.765  16.104  68.454  1.00  0.00    -0.298 C  
HETATM   25  O   UNL     1     -11.097  16.522  69.779  1.00  0.00    -0.337 OA 
HETATM   26  H   UNL     1     -11.855  17.094  69.759  1.00  0.00     0.000 HD 
BRANCH  24  27
HETATM   27  C   UNL     1     -10.488  17.374  67.634  1.00  0.00    -0.368 C  
BRANCH  27  28
HETATM   28  C   UNL     1     -10.254  18.607  68.508  1.00  0.00    -0.398 C  
BRANCH  28  29
HETATM   29  C   UNL     1      -8.921  19.251  68.239  1.00  0.00    -0.381 A  
HETATM   30  C   UNL     1      -7.773  18.788  68.895  1.00  0.00    -0.298 A  
HETATM   31  C   UNL     1      -6.534  19.377  68.648  1.00  0.00    -0.293 A  
HETATM   32  C   UNL     1      -6.434  20.436  67.748  1.00  0.00    -0.302 A  
HETATM   33  C   UNL     1      -7.574  20.909  67.098  1.00  0.00    -0.295 A  
HETATM   34  C   UNL     1      -8.815  20.320  67.344  1.00  0.00    -0.442 A  
ENDBRANCH  28  29
ENDBRANCH  27  28
ENDBRANCH  24  27
ENDBRANCH  23  24
ENDBRANCH  22  23
ENDBRANCH  19  22
ENDBRANCH  12  13
ENDBRANCH  11  12
ENDBRANCH   9  10
ENDBRANCH   8   9
ENDBRANCH   7   8
ENDBRANCH   5   7
ENDBRANCH   4   5
ENDBRANCH   2   4
TORSDOF 14
ENDMDL
