MODEL       27
REMARK 921   NORMALIZED FREE ENERGY PREDICTED BY IDOCK:   -5.92 KCAL/MOL
REMARK 922        TOTAL FREE ENERGY PREDICTED BY IDOCK:  -13.54 KCAL/MOL
REMARK 923 INTER-LIGAND FREE ENERGY PREDICTED BY IDOCK:  -12.19 KCAL/MOL
REMARK 924 INTRA-LIGAND FREE ENERGY PREDICTED BY IDOCK:   -1.35 KCAL/MOL
REMARK 927      BINDING AFFINITY PREDICTED BY RF-SCORE:    0.00 PKD
ROOT
HETATM    1  O   UNL     1     -11.905   6.691  72.955  1.00  0.00    -0.482 OA 
HETATM    2  C   UNL     1     -12.343   7.041  71.641  1.00  0.00    -0.368 C  
HETATM    3  H   UNL     1     -11.899   5.749  73.073  1.00  0.00     0.000 HD 
ENDROOT
BRANCH   2   4
HETATM    4  C   UNL     1     -12.352   8.537  71.455  1.00  0.00    -0.354 A  
HETATM    5  C   UNL     1     -13.220   9.392  72.144  1.00  0.00    -0.460 A  
HETATM    6  O   UNL     1     -14.081   8.930  73.100  1.00  0.00    -1.125 OA 
HETATM    7  C   UNL     1     -13.244  10.760  71.889  1.00  0.00    -0.524 A  
HETATM    8  C   UNL     1     -12.386  11.305  70.936  1.00  0.00    -0.490 A  
HETATM    9  H   UNL     1     -14.669   9.511  73.567  1.00  0.00     0.000 HD 
HETATM   10  C   UNL     1     -11.501  10.483  70.226  1.00  0.00    -0.416 A  
HETATM   11  C   UNL     1     -11.505   9.101  70.486  1.00  0.00    -0.271 A  
BRANCH  10  12
HETATM   12  C   UNL     1     -10.625  11.083  69.146  1.00  0.00    -0.219 C  
HETATM   13  O   UNL     1      -9.241  10.951  69.500  1.00  0.00    -0.402 OA 
HETATM   14  H   UNL     1      -8.692  11.327  68.823  1.00  0.00     0.000 HD 
BRANCH  12  15
HETATM   15  C   UNL     1     -10.883  10.383  67.795  1.00  0.00    -0.297 C  
BRANCH  15  16
HETATM   16  N   UNL     1      -9.800  10.656  66.835  1.00  0.00    -0.182 NA 
HETATM   17  H   UNL     1      -8.941  10.164  67.077  1.00  0.00     0.000 HD 
BRANCH  16  18
HETATM   18  C   UNL     1     -10.242  10.346  65.479  1.00  0.00    -0.246 C  
BRANCH  18  19
HETATM   19  C   UNL     1      -9.452  11.172  64.467  1.00  0.00    -0.254 C  
BRANCH  19  20
HETATM   20  C   UNL     1     -10.320  11.480  63.247  1.00  0.00    -0.435 C  
BRANCH  20  21
HETATM   21  C   UNL     1     -11.746  11.825  63.659  1.00  0.00    -0.517 C  
BRANCH  21  22
HETATM   22  C   UNL     1     -11.897  13.320  63.922  1.00  0.00    -0.522 C  
BRANCH  22  23
HETATM   23  C   UNL     1     -12.538  13.564  65.279  1.00  0.00    -0.468 C  
BRANCH  23  24
HETATM   24  O   UNL     1     -11.811  14.586  65.952  1.00  0.00    -0.369 OA 
BRANCH  24  25
HETATM   25  C   UNL     1     -11.532  14.204  67.297  1.00  0.00    -0.350 C  
BRANCH  25  26
HETATM   26  C   UNL     1     -11.649  15.414  68.209  1.00  0.00    -0.348 C  
BRANCH  26  27
HETATM   27  O   UNL     1     -10.832  16.463  67.689  1.00  0.00    -0.327 OA 
BRANCH  27  28
HETATM   28  C   UNL     1     -10.364  17.317  68.723  1.00  0.00    -0.358 C  
BRANCH  28  29
HETATM   29  C   UNL     1      -9.110  18.002  68.252  1.00  0.00    -0.284 A  
HETATM   30  C   UNL     1      -9.163  19.196  67.513  1.00  0.00    -0.296 A  
HETATM   31 CL   UNL     1     -10.661  19.922  67.037  1.00  0.00    -0.566 Cl 
HETATM   32  C   UNL     1      -7.991  19.857  67.122  1.00  0.00    -0.337 A  
HETATM   33  C   UNL     1      -6.746  19.326  67.441  1.00  0.00    -0.213 A  
HETATM   34  C   UNL     1      -6.671  18.117  68.125  1.00  0.00    -0.206 A  
HETATM   35  C   UNL     1      -7.842  17.454  68.517  1.00  0.00    -0.268 A  
HETATM   36 CL   UNL     1      -7.643  15.942  69.335  1.00  0.00    -0.230 Cl 
ENDBRANCH  28  29
ENDBRANCH  27  28
ENDBRANCH  26  27
ENDBRANCH  25  26
ENDBRANCH  24  25
ENDBRANCH  23  24
ENDBRANCH  22  23
ENDBRANCH  21  22
ENDBRANCH  20  21
ENDBRANCH  19  20
ENDBRANCH  18  19
ENDBRANCH  16  18
ENDBRANCH  15  16
ENDBRANCH  12  15
ENDBRANCH  10  12
ENDBRANCH   2   4
TORSDOF 16
ENDMDL
