MODEL      109
REMARK 921   NORMALIZED FREE ENERGY PREDICTED BY IDOCK:   -6.80 KCAL/MOL
REMARK 922        TOTAL FREE ENERGY PREDICTED BY IDOCK:  -12.13 KCAL/MOL
REMARK 923 INTER-LIGAND FREE ENERGY PREDICTED BY IDOCK:  -10.74 KCAL/MOL
REMARK 924 INTRA-LIGAND FREE ENERGY PREDICTED BY IDOCK:   -1.39 KCAL/MOL
REMARK 927      BINDING AFFINITY PREDICTED BY RF-SCORE:    0.00 PKD
ROOT
HETATM    1  C   UNL     1     -11.392  15.408  64.045  1.00  0.00     0.253 C  
HETATM    2  C   UNL     1     -11.472  13.925  64.455  1.00  0.00    -0.381 C  
HETATM    3  C   UNL     1     -12.267  13.684  65.909  1.00  0.00    -0.461 C  
HETATM    4  N   UNL     1     -10.072  13.425  64.584  1.00  0.00    -0.622 NA 
HETATM    5  C   UNL     1     -12.086  13.202  63.224  1.00  0.00    -0.460 C  
HETATM    6  H2  UNL     1      -9.506  13.986  65.222  1.00  0.00     0.000 HD 
HETATM    7  N   UNL     1     -11.503  13.741  67.080  1.00  0.00    -0.324 N  
HETATM    8  H1  UNL     1     -10.125  12.443  64.856  1.00  0.00     0.000 HD 
HETATM    9  O   UNL     1     -13.483  13.505  65.952  1.00  0.00    -0.134 OA 
HETATM   10  H   UNL     1     -10.500  13.752  66.895  1.00  0.00     0.000 HD 
ENDROOT
BRANCH   7  11
HETATM   11  C   UNL     1     -11.834  13.793  68.613  1.00  0.00    -0.374 C  
BRANCH  11  12
HETATM   12  C   UNL     1     -11.071  14.709  69.679  1.00  0.00    -0.284 C  
BRANCH  12  13
HETATM   13  C   UNL     1      -9.859  15.651  69.216  1.00  0.00    -0.269 A  
HETATM   14  C   UNL     1      -8.506  15.502  69.460  1.00  0.00    -0.211 A  
HETATM   15  C   UNL     1     -10.731  18.849  67.138  1.00  0.00    -0.506 A  
HETATM   16  C   UNL     1      -9.502  19.486  67.284  1.00  0.00    -0.422 A  
HETATM   17  C   UNL     1      -8.454  18.830  67.928  1.00  0.00    -0.316 A  
HETATM   18  N   UNL     1      -7.820  16.637  69.026  1.00  0.00    -0.236 NA 
HETATM   19  C   UNL     1     -10.959  17.576  67.702  1.00  0.00    -0.111 A  
HETATM   20  C   UNL     1      -9.938  16.903  68.424  1.00  0.00    -0.275 A  
HETATM   21  C   UNL     1      -8.692  17.531  68.452  1.00  0.00    -0.276 A  
HETATM   22  H   UNL     1      -6.816  16.782  69.122  1.00  0.00     0.000 HD 
ENDBRANCH  12  13
ENDBRANCH  11  12
BRANCH  11  23
HETATM   23  C   UNL     1     -12.060  12.328  69.076  1.00  0.00    -0.145 C  
HETATM   24  N   UNL     1     -11.993  12.074  70.432  1.00  0.00    -0.476 N  
HETATM   25  H   UNL     1     -11.938  12.851  71.090  1.00  0.00     0.000 HD 
HETATM   26  O   UNL     1     -12.206  11.428  68.243  1.00  0.00    -0.588 OA 
BRANCH  24  27
HETATM   27  C   UNL     1     -11.999  10.715  70.922  1.00  0.00    -0.363 C  
BRANCH  27  28
HETATM   28  N   UNL     1     -13.253  10.102  70.566  1.00  0.00    -0.575 N  
HETATM   29  O   UNL     1     -13.506   8.940  72.547  1.00  0.00    -0.438 OA 
HETATM   30  C   UNL     1     -13.902   9.255  71.435  1.00  0.00    -0.209 C  
HETATM   31  H   UNL     1     -13.666  10.299  69.655  1.00  0.00     0.000 HD 
ENDBRANCH  27  28
BRANCH  27  32
HETATM   32  C   UNL     1     -10.752   9.842  70.667  1.00  0.00    -0.394 C  
BRANCH  32  33
HETATM   33  C   UNL     1     -10.622   8.328  70.715  1.00  0.00    -0.236 A  
HETATM   34  C   UNL     1     -10.404   6.055  71.025  1.00  0.00    -0.216 A  
HETATM   35  H   UNL     1     -10.567   5.614  68.961  1.00  0.00     0.000 HD 
HETATM   36  C   UNL     1     -10.248   4.805  71.643  1.00  0.00    -0.249 A  
HETATM   37  C   UNL     1     -10.688   7.655  69.498  1.00  0.00    -0.209 A  
HETATM   38  C   UNL     1     -10.075   4.784  73.022  1.00  0.00    -0.201 A  
HETATM   39  N   UNL     1     -10.555   6.318  69.698  1.00  0.00    -0.234 NA 
HETATM   40  C   UNL     1     -10.055   5.977  73.743  1.00  0.00    -0.232 A  
HETATM   41  C   UNL     1     -10.226   7.225  73.106  1.00  0.00    -0.344 A  
HETATM   42  C   UNL     1     -10.414   7.287  71.708  1.00  0.00    -0.218 A  
ENDBRANCH  32  33
ENDBRANCH  27  32
ENDBRANCH  24  27
ENDBRANCH  11  23
ENDBRANCH   7  11
TORSDOF 8
ENDMDL
