MODEL       21
REMARK 921   NORMALIZED FREE ENERGY PREDICTED BY IDOCK:   -4.00 KCAL/MOL
REMARK 922        TOTAL FREE ENERGY PREDICTED BY IDOCK:  -18.28 KCAL/MOL
REMARK 923 INTER-LIGAND FREE ENERGY PREDICTED BY IDOCK:  -12.53 KCAL/MOL
REMARK 924 INTRA-LIGAND FREE ENERGY PREDICTED BY IDOCK:   -5.75 KCAL/MOL
REMARK 927      BINDING AFFINITY PREDICTED BY RF-SCORE:    0.00 PKD
ROOT
HETATM    1  C   UNL     1     -11.746  11.805  68.409  1.00  0.00    -0.389 C  
HETATM    2  C   UNL     1     -12.018  11.788  69.903  1.00  0.00    -0.405 C  
ENDROOT
BRANCH   2   3
HETATM    3  C   UNL     1     -12.784  10.536  70.304  1.00  0.00    -0.255 C  
BRANCH   3   4
HETATM    4  C   UNL     1     -12.928  10.443  71.821  1.00  0.00    -0.580 C  
BRANCH   4   5
HETATM    5  C   UNL     1     -13.393   9.052  72.232  1.00  0.00    -0.523 C  
BRANCH   5   6
HETATM    6  C   UNL     1     -12.235   8.066  72.189  1.00  0.00    -0.377 C  
BRANCH   6   7
HETATM    7  C   UNL     1     -12.468   7.030  71.098  1.00  0.00    -0.407 C  
BRANCH   7   8
HETATM    8  C   UNL     1     -11.297   6.062  71.035  1.00  0.00    -0.299 C  
BRANCH   8   9
HETATM    9  C   UNL     1     -10.948   5.569  72.429  1.00  0.00    -0.310 C  
BRANCH   9  10
HETATM   10  C   UNL     1      -9.594   4.885  72.411  1.00  0.00    -0.183 C  
BRANCH  10  11
HETATM   11  C   UNL     1      -8.484   5.918  72.347  1.00  0.00    -0.117 C  
BRANCH  11  12
HETATM   12  C   UNL     1      -8.647   6.903  73.488  1.00  0.00    -0.152 C  
BRANCH  12  13
HETATM   13  C   UNL     1      -8.564   8.323  72.967  1.00  0.00    -0.275 C  
BRANCH  13  14
HETATM   14  C   UNL     1      -8.277   8.303  71.477  1.00  0.00    -0.164 C  
BRANCH  14  15
HETATM   15  C   UNL     1      -9.139   9.339  70.793  1.00  0.00    -0.306 C  
BRANCH  15  16
HETATM   16  C   UNL     1      -9.619   8.839  69.440  1.00  0.00    -0.163 C  
BRANCH  16  17
HETATM   17  C   UNL     1      -8.602   9.279  68.404  1.00  0.00    -0.124 C  
BRANCH  17  18
HETATM   18  C   UNL     1      -9.245   9.489  67.046  1.00  0.00    -0.139 C  
BRANCH  18  19
HETATM   19  N   UNL     1      -8.471  10.513  66.188  1.00  0.00    -0.147 N  
HETATM   20  C   UNL     1      -8.561  11.909  66.812  1.00  0.00    -0.181 C  
HETATM   21  C   UNL     1      -7.004  10.097  66.057  1.00  0.00    -0.117 C  
BRANCH  19  22
HETATM   22  C   UNL     1      -9.161  10.498  64.806  1.00  0.00    -0.211 C  
BRANCH  22  23
HETATM   23  C   UNL     1     -10.496  11.214  64.825  1.00  0.00    -0.388 C  
BRANCH  23  24
HETATM   24  C   UNL     1     -10.914  11.655  63.434  1.00  0.00    -0.442 C  
BRANCH  24  25
HETATM   25  C   UNL     1     -11.853  12.837  63.593  1.00  0.00    -0.603 C  
BRANCH  25  26
HETATM   26  C   UNL     1     -12.558  12.795  64.929  1.00  0.00    -0.541 C  
BRANCH  26  27
HETATM   27  C   UNL     1     -12.502  14.171  65.568  1.00  0.00    -0.495 C  
BRANCH  27  28
HETATM   28  C   UNL     1     -11.500  15.034  64.829  1.00  0.00    -0.403 C  
BRANCH  28  29
HETATM   29  C   UNL     1     -10.486  15.603  65.801  1.00  0.00    -0.383 C  
BRANCH  29  30
HETATM   30  C   UNL     1     -10.822  15.145  67.207  1.00  0.00    -0.316 C  
BRANCH  30  31
HETATM   31  C   UNL     1     -10.548  16.252  68.205  1.00  0.00    -0.307 C  
BRANCH  31  32
HETATM   32  C   UNL     1     -10.751  17.604  67.547  1.00  0.00    -0.294 C  
BRANCH  32  33
HETATM   33  C   UNL     1     -10.149  18.702  68.408  1.00  0.00    -0.426 C  
BRANCH  33  34
HETATM   34  C   UNL     1     -10.097  20.010  67.633  1.00  0.00    -0.562 C  
BRANCH  34  35
HETATM   35  C   UNL     1      -8.973  19.972  66.607  1.00  0.00    -0.446 C  
BRANCH  35  36
HETATM   36  C   UNL     1      -7.628  20.225  67.275  1.00  0.00    -0.348 C  
BRANCH  36  37
HETATM   37  C   UNL     1      -6.568  19.282  66.715  1.00  0.00    -0.197 C  
BRANCH  37  38
HETATM   38  C   UNL     1      -7.210  18.051  66.084  1.00  0.00    -0.325 C  
HETATM   39  C   UNL     1      -7.106  16.850  67.008  1.00  0.00    -0.234 C  
ENDBRANCH  37  38
ENDBRANCH  36  37
ENDBRANCH  35  36
ENDBRANCH  34  35
ENDBRANCH  33  34
ENDBRANCH  32  33
ENDBRANCH  31  32
ENDBRANCH  30  31
ENDBRANCH  29  30
ENDBRANCH  28  29
ENDBRANCH  27  28
ENDBRANCH  26  27
ENDBRANCH  25  26
ENDBRANCH  24  25
ENDBRANCH  23  24
ENDBRANCH  22  23
ENDBRANCH  19  22
ENDBRANCH  18  19
ENDBRANCH  17  18
ENDBRANCH  16  17
ENDBRANCH  15  16
ENDBRANCH  14  15
ENDBRANCH  13  14
ENDBRANCH  12  13
ENDBRANCH  11  12
ENDBRANCH  10  11
ENDBRANCH   9  10
ENDBRANCH   8   9
ENDBRANCH   7   8
ENDBRANCH   6   7
ENDBRANCH   5   6
ENDBRANCH   4   5
ENDBRANCH   3   4
ENDBRANCH   2   3
TORSDOF 34
ENDMDL
