MODEL      125
REMARK 921   NORMALIZED FREE ENERGY PREDICTED BY IDOCK:   -4.88 KCAL/MOL
REMARK 922        TOTAL FREE ENERGY PREDICTED BY IDOCK:  -12.69 KCAL/MOL
REMARK 923 INTER-LIGAND FREE ENERGY PREDICTED BY IDOCK:  -11.79 KCAL/MOL
REMARK 924 INTRA-LIGAND FREE ENERGY PREDICTED BY IDOCK:   -0.90 KCAL/MOL
REMARK 927      BINDING AFFINITY PREDICTED BY RF-SCORE:    0.00 PKD
ROOT
HETATM    1  N   UNK A   1     -13.098  15.710  70.549  1.00  0.00    -0.725 NA 
HETATM    2  H1  UNK A   1     -12.902  16.709  70.613  1.00  0.00     0.000 HD 
HETATM    3  H2  UNK A   1     -13.723  15.515  69.766  1.00  0.00     0.000 HD 
HETATM    4  C   UNK A   1     -13.633  15.126  71.808  1.00  0.00    -0.455 C  
HETATM    5  O   UNK A   1     -12.574  14.841  74.006  1.00  0.00    -0.462 OA 
HETATM    6  C   UNK A   1     -12.666  15.459  72.957  1.00  0.00    -0.451 C  
HETATM    7  O   UNK A   1     -11.913  16.548  72.658  1.00  0.00    -0.533 OA 
ENDROOT
BRANCH   4   8
HETATM    8  C   UNK A   1     -13.926  13.628  71.711  1.00  0.00    -0.293 C  
BRANCH   8   9
HETATM    9  C   UNK A   1     -12.698  12.721  71.801  1.00  0.00    -0.244 C  
BRANCH   9  10
HETATM   10  C   UNK A   1     -12.145  12.467  70.418  1.00  0.00    -0.297 C  
HETATM   11  N   UNK A   1     -11.240  13.413  69.984  1.00  0.00    -0.477 N  
HETATM   12  O   UNK A   1     -12.510  11.519  69.729  1.00  0.00    -0.180 OA 
HETATM   13  H   UNK A   1     -11.014  14.214  70.572  1.00  0.00     0.000 HD 
BRANCH  11  14
HETATM   14  C   UNK A   1     -10.604  13.258  68.669  1.00  0.00    -0.246 C  
BRANCH  14  15
HETATM   15  C   UNK A   1     -11.644  13.579  67.576  1.00  0.00    -0.350 C  
ATOM     16  H   GLY A   2     -10.938  11.989  66.456  1.00  0.00     0.000 HD 
ATOM     17  N   GLY A   2     -11.638  12.730  66.491  1.00  0.00    -0.356 N  
HETATM   18  O   UNK A   1     -12.409  14.528  67.653  1.00  0.00    -0.218 OA 
BRANCH  17  19
ATOM     19  CA  GLY A   2     -12.585  12.846  65.396  1.00  0.00    -0.378 C  
ATOM     20  C   GLY A   2     -12.066  12.354  64.055  1.00  0.00    -0.475 C  
ATOM     21  O   GLY A   2     -10.709  12.411  63.901  1.00  0.00    -0.357 OA 
ATOM     22  OXT GLY A   2     -12.789  11.991  63.139  1.00  0.00    -0.661 OA 
ENDBRANCH  17  19
ENDBRANCH  14  15
BRANCH  14  23
HETATM   23  C   UNK A   1     -10.035  11.839  68.504  1.00  0.00    -0.199 C  
BRANCH  23  24
HETATM   24  S   UNK A   1      -8.230  11.722  68.290  1.00  0.00    -0.160 SA 
BRANCH  24  25
HETATM   25  S   UNK A   1      -7.974   9.722  67.921  1.00  0.00    -0.104 SA 
BRANCH  25  26
HETATM   26  C   UNK A   1      -9.310   9.376  66.723  1.00  0.00    -0.158 C  
BRANCH  26  27
HETATM   27  C   UNK A   1     -10.181   8.146  67.044  1.00  0.00    -0.308 C  
BRANCH  27  28
HETATM   28  C   UNK A   1      -9.419   6.831  66.704  1.00  0.00    -0.165 C  
ATOM     29  H   GLY A   2     -11.201   5.748  66.582  1.00  0.00     0.000 HD 
ATOM     30  N   GLY A   2     -10.190   5.712  66.458  1.00  0.00    -0.209 N  
HETATM   31  O   UNK A   1      -8.202   6.797  66.533  1.00  0.00    -0.111 OA 
BRANCH  30  32
ATOM     32  CA  GLY A   2      -9.547   4.479  66.022  1.00  0.00    -0.189 C  
ATOM     33  OXT GLY A   2      -8.145   2.699  66.933  1.00  0.00    -0.078 OA 
ATOM     34  C   GLY A   2      -9.063   3.494  67.095  1.00  0.00    -0.169 C  
ATOM     35  O   GLY A   2      -9.862   3.409  68.175  1.00  0.00    -0.063 OA 
ENDBRANCH  30  32
ENDBRANCH  27  28
BRANCH  27  36
HETATM   36  N   UNK A   1     -10.914   8.223  68.327  1.00  0.00    -0.435 N  
HETATM   37  H   UNK A   1     -11.826   8.679  68.347  1.00  0.00     0.000 HD 
HETATM   38  O   UNK A   1      -9.388   7.018  69.539  1.00  0.00    -0.149 OA 
HETATM   39  C   UNK A   1     -10.406   7.701  69.493  1.00  0.00    -0.217 C  
BRANCH  39  40
HETATM   40  C   UNK A   1     -11.253   7.894  70.742  1.00  0.00    -0.274 C  
BRANCH  40  41
HETATM   41  C   UNK A   1     -11.955   6.642  71.304  1.00  0.00    -0.409 C  
BRANCH  41  42
HETATM   42  C   UNK A   1     -11.453   6.086  72.644  1.00  0.00    -0.253 C  
HETATM   43  N   UNK A   1     -11.190   7.160  73.639  1.00  0.00    -0.504 NA 
HETATM   44  C   UNK A   1     -10.149   5.339  72.433  1.00  0.00    -0.182 C  
HETATM   45  O   UNK A   1      -9.981   4.212  72.002  1.00  0.00    -0.169 OA 
HETATM   46  O   UNK A   1      -9.118   6.159  72.739  1.00  0.00    -0.131 OA 
HETATM   47  H2  UNK A   1     -12.011   7.749  73.770  1.00  0.00     0.000 HD 
HETATM   48  H1  UNK A   1     -10.856   6.790  74.529  1.00  0.00     0.000 HD 
ENDBRANCH  41  42
ENDBRANCH  40  41
ENDBRANCH  39  40
ENDBRANCH  27  36
ENDBRANCH  26  27
ENDBRANCH  25  26
ENDBRANCH  24  25
ENDBRANCH  23  24
ENDBRANCH  14  23
ENDBRANCH  11  14
ENDBRANCH   9  10
ENDBRANCH   8   9
ENDBRANCH   4   8
TORSDOF 17
ENDMDL
