MODEL       33
REMARK 921   NORMALIZED FREE ENERGY PREDICTED BY IDOCK:   -5.88 KCAL/MOL
REMARK 922        TOTAL FREE ENERGY PREDICTED BY IDOCK:  -12.05 KCAL/MOL
REMARK 923 INTER-LIGAND FREE ENERGY PREDICTED BY IDOCK:  -10.21 KCAL/MOL
REMARK 924 INTRA-LIGAND FREE ENERGY PREDICTED BY IDOCK:   -1.84 KCAL/MOL
REMARK 927      BINDING AFFINITY PREDICTED BY RF-SCORE:    0.00 PKD
ROOT
HETATM    1  C   UNL     1     -11.259  12.575  67.571  1.00  0.00    -0.291 C  
ENDROOT
BRANCH   1   2
HETATM    2  C   UNL     1     -11.161  13.870  68.443  1.00  0.00    -0.255 C  
HETATM    3  O   UNL     1     -12.425  14.205  69.031  1.00  0.00    -0.531 OA 
HETATM    4  H   UNL     1     -12.365  14.992  69.561  1.00  0.00     0.000 HD 
BRANCH   2   5
HETATM    5  C   UNL     1     -10.566  15.063  67.690  1.00  0.00    -0.267 A  
HETATM    6  C   UNL     1      -9.620  19.615  67.796  1.00  0.00    -0.354 C  
HETATM    7  C   UNL     1     -10.356  17.479  67.455  1.00  0.00    -0.356 A  
HETATM    8  C   UNL     1      -9.560  14.919  66.716  1.00  0.00    -0.265 A  
HETATM    9  C   UNL     1      -9.369  17.322  66.482  1.00  0.00    -0.264 A  
HETATM   10  C   UNL     1      -9.161  19.651  66.347  1.00  0.00    -0.379 C  
HETATM   11  C   UNL     1     -10.982  16.366  68.025  1.00  0.00    -0.327 A  
HETATM   12  O   UNL     1      -8.700  18.368  65.901  1.00  0.00    -0.497 OA 
HETATM   13  O   UNL     1     -10.723  18.711  67.937  1.00  0.00    -0.383 OA 
HETATM   14  C   UNL     1      -8.985  16.039  66.099  1.00  0.00    -0.381 A  
ENDBRANCH   2   5
ENDBRANCH   1   2
BRANCH   1  15
HETATM   15  N   UNL     1     -12.453  12.687  66.715  1.00  0.00    -0.190 NA 
HETATM   16  H   UNL     1     -13.348  12.454  67.147  1.00  0.00     0.000 HD 
BRANCH  15  17
HETATM   17  C   UNL     1     -12.487  13.043  65.494  1.00  0.00    -0.438 C  
HETATM   18  H   UNL     1     -12.876  14.509  64.127  1.00  0.00     0.000 HD 
HETATM   19  O   UNL     1     -12.850  14.243  65.039  1.00  0.00    -0.674 OA 
BRANCH  17  20
HETATM   20  C   UNL     1     -12.106  12.066  64.410  1.00  0.00    -0.375 C  
BRANCH  20  21
HETATM   21  C   UNL     1     -11.045  12.619  63.465  1.00  0.00    -0.449 C  
BRANCH  21  22
HETATM   22  C   UNL     1      -9.758  11.792  63.451  1.00  0.00    -0.341 C  
BRANCH  22  23
HETATM   23  C   UNL     1      -9.932  10.500  64.251  1.00  0.00    -0.398 C  
BRANCH  23  24
HETATM   24  C   UNL     1      -8.844   9.478  63.921  1.00  0.00    -0.240 C  
BRANCH  24  25
HETATM   25  C   UNL     1      -8.532   8.597  65.132  1.00  0.00    -0.197 C  
HETATM   26  C   UNL     1      -9.552   8.790  66.241  1.00  0.00    -0.328 C  
ENDBRANCH  24  25
ENDBRANCH  23  24
ENDBRANCH  22  23
ENDBRANCH  21  22
ENDBRANCH  20  21
ENDBRANCH  17  20
ENDBRANCH  15  17
ENDBRANCH   1  15
BRANCH   1  27
HETATM   27  C   UNL     1     -11.474  11.220  68.330  1.00  0.00    -0.307 C  
BRANCH  27  28
HETATM   28  N   UNL     1     -11.538  11.140  69.810  1.00  0.00    -0.303 NA 
HETATM   29  C   UNL     1     -10.693  10.016  70.280  1.00  0.00    -0.309 C  
HETATM   30  C   UNL     1     -12.891  10.860  70.293  1.00  0.00    -0.142 C  
HETATM   31  C   UNL     1     -11.437   9.309  71.404  1.00  0.00    -0.439 C  
HETATM   32  C   UNL     1     -12.731  10.070  71.576  1.00  0.00    -0.532 C  
ENDBRANCH  27  28
ENDBRANCH   1  27
TORSDOF 12
ENDMDL
