MODEL        2
REMARK 921   NORMALIZED FREE ENERGY PREDICTED BY IDOCK:   -7.57 KCAL/MOL
REMARK 922        TOTAL FREE ENERGY PREDICTED BY IDOCK:   -9.71 KCAL/MOL
REMARK 923 INTER-LIGAND FREE ENERGY PREDICTED BY IDOCK:   -8.71 KCAL/MOL
REMARK 924 INTRA-LIGAND FREE ENERGY PREDICTED BY IDOCK:   -0.99 KCAL/MOL
REMARK 927      BINDING AFFINITY PREDICTED BY RF-SCORE:    0.00 PKD
ROOT
HETATM    1  C   UNL     1     -12.054   6.767  70.928  1.00  0.00    -0.421 C  
HETATM    2  C   UNL     1     -13.147   7.797  71.205  1.00  0.00    -0.247 C  
HETATM    3  C   UNL     1     -14.301   7.132  71.962  1.00  0.00    -0.398 C  
HETATM    4  C   UNL     1     -12.637   8.998  72.023  1.00  0.00    -0.464 C  
ENDROOT
BRANCH   4   5
HETATM    5  C   UNL     1     -11.567   9.835  71.323  1.00  0.00    -0.465 C  
BRANCH   5   6
HETATM    6  C   UNL     1     -12.213  10.873  70.375  1.00  0.00    -0.453 C  
HETATM    7  C   UNL     1     -11.212  11.566  69.405  1.00  0.00    -0.324 C  
HETATM    8  C   UNL     1     -11.900  12.757  68.523  1.00  0.00    -0.345 C  
HETATM    9  C   UNL     1     -10.487  10.461  68.615  1.00  0.00    -0.216 C  
HETATM   10  C   UNL     1     -12.328  13.882  69.470  1.00  0.00    -0.275 C  
HETATM   11  C   UNL     1     -11.085  14.744  69.636  1.00  0.00    -0.299 C  
HETATM   12  C   UNL     1     -10.046  14.276  68.576  1.00  0.00    -0.246 C  
HETATM   13  C   UNL     1      -9.171  15.454  68.149  1.00  0.00    -0.186 C  
HETATM   14  C   UNL     1      -8.824  15.427  66.684  1.00  0.00    -0.330 C  
HETATM   15  C   UNL     1      -8.744  16.410  69.004  1.00  0.00    -0.233 C  
HETATM   16  C   UNL     1     -10.434  12.463  66.504  1.00  0.00    -0.254 C  
HETATM   17  C   UNL     1     -10.057  15.176  65.792  1.00  0.00    -0.373 C  
HETATM   18  C   UNL     1     -10.937  13.521  67.508  1.00  0.00    -0.283 C  
HETATM   19  C   UNL     1     -11.348  14.682  66.551  1.00  0.00    -0.353 C  
BRANCH  15  20
HETATM   20  C   UNL     1      -7.602  17.268  68.743  1.00  0.00    -0.256 C  
HETATM   21  C   UNL     1      -7.491  18.490  68.193  1.00  0.00    -0.284 C  
HETATM   22  C   UNL     1      -6.132  19.173  68.271  1.00  0.00    -0.239 C  
HETATM   23  C   UNL     1      -5.635  19.656  66.909  1.00  0.00    -0.173 C  
HETATM   24  C   UNL     1      -6.674  20.548  66.235  1.00  0.00    -0.288 C  
HETATM   25  O   UNL     1      -5.306  18.550  66.067  1.00  0.00    -0.139 OA 
HETATM   26  C   UNL     1      -8.045  19.869  66.157  1.00  0.00    -0.347 C  
HETATM   27  H   UNL     1      -4.997  18.850  65.220  1.00  0.00     0.000 HD 
HETATM   28  C   UNL     1      -8.489  19.296  67.492  1.00  0.00    -0.324 C  
HETATM   29  C   UNL     1      -9.701  19.594  68.010  1.00  0.00    -0.501 C  
ENDBRANCH  15  20
ENDBRANCH   5   6
ENDBRANCH   4   5
TORSDOF 3
ENDMDL
