MODEL        4
REMARK 921   NORMALIZED FREE ENERGY PREDICTED BY IDOCK:   -7.01 KCAL/MOL
REMARK 922        TOTAL FREE ENERGY PREDICTED BY IDOCK:  -16.04 KCAL/MOL
REMARK 923 INTER-LIGAND FREE ENERGY PREDICTED BY IDOCK:  -11.99 KCAL/MOL
REMARK 924 INTRA-LIGAND FREE ENERGY PREDICTED BY IDOCK:   -4.04 KCAL/MOL
REMARK 927      BINDING AFFINITY PREDICTED BY RF-SCORE:    0.00 PKD
ROOT
HETATM    1  C   UNL     1      -9.910   7.799  68.830  1.00  0.00    -0.171 C  
HETATM    2  C   UNL     1      -8.564   7.858  69.290  1.00  0.00    -0.138 C  
HETATM    3  C   UNL     1      -9.522   8.145  70.414  1.00  0.00    -0.163 C  
HETATM    4  C   UNL     1     -11.404   7.629  69.851  1.00  0.00    -0.003 C  
HETATM    5  O   UNL     1     -12.676   7.374  70.456  1.00  0.00    -0.564 OA 
HETATM    6  C   UNL     1     -10.514   6.654  70.228  1.00  0.00    -0.247 C  
HETATM    7  C   UNL     1     -10.936   7.283  71.907  1.00  0.00    -0.260 C  
HETATM    8  C   UNL     1     -10.519   5.186  69.989  1.00  0.00    -0.305 C  
HETATM    9  H   UNL     1     -13.556   7.133  70.194  1.00  0.00     0.000 HD 
HETATM   10  C   UNL     1     -11.503   8.976  71.874  1.00  0.00    -0.440 C  
HETATM   11  C   UNL     1     -11.154  10.063  70.599  1.00  0.00    -0.408 C  
HETATM   12  C   UNL     1     -11.932  11.382  70.511  1.00  0.00    -0.451 A  
HETATM   13  C   UNL     1     -12.577  11.902  71.649  1.00  0.00    -0.237 A  
HETATM   14  C   UNL     1     -13.115  13.194  71.656  1.00  0.00    -0.444 A  
HETATM   15  C   UNL     1     -13.022  13.978  70.518  1.00  0.00    -0.133 A  
HETATM   16  C   UNL     1     -12.385  13.497  69.383  1.00  0.00    -0.162 A  
HETATM   17  O   UNL     1     -13.527  15.244  70.476  1.00  0.00    -0.693 OA 
HETATM   18  C   UNL     1     -11.801  12.216  69.372  1.00  0.00    -0.370 A  
HETATM   19  H   UNL     1     -13.464  15.782  69.696  1.00  0.00     0.000 HD 
HETATM   20  C   UNL     1     -11.058  11.807  68.112  1.00  0.00    -0.297 C  
HETATM   21  C   UNL     1      -9.982  10.710  68.288  1.00  0.00    -0.173 C  
HETATM   22  C   UNL     1     -10.696   9.528  68.985  1.00  0.00    -0.224 C  
ENDROOT
BRANCH  21  23
HETATM   23  C   UNL     1      -8.764  11.242  69.071  1.00  0.00     0.026 C  
BRANCH  23  24
HETATM   24  C   UNL     1      -7.604  11.764  68.244  1.00  0.00    -0.122 C  
BRANCH  24  25
HETATM   25  C   UNL     1      -6.811  10.599  67.633  1.00  0.00    -0.074 C  
BRANCH  25  26
HETATM   26  C   UNL     1      -7.058  10.373  66.132  1.00  0.00    -0.130 C  
BRANCH  26  27
HETATM   27  C   UNL     1      -7.645   9.002  65.797  1.00  0.00    -0.090 C  
BRANCH  27  28
HETATM   28  C   UNL     1      -9.114   9.100  65.383  1.00  0.00    -0.271 C  
BRANCH  28  29
HETATM   29  C   UNL     1      -9.372  10.162  64.312  1.00  0.00    -0.349 C  
BRANCH  29  30
HETATM   30  C   UNL     1     -10.630  11.016  64.534  1.00  0.00    -0.383 C  
BRANCH  30  31
HETATM   31  C   UNL     1     -10.529  12.460  64.063  1.00  0.00    -0.416 C  
BRANCH  31  32
HETATM   32  S   UNL     1     -12.146  13.301  64.064  1.00  0.00    -0.439 S  
HETATM   33  O   UNL     1     -13.194  12.249  64.285  1.00  0.00    -0.785 OA 
BRANCH  32  34
HETATM   34  C   UNL     1     -11.951  14.201  65.635  1.00  0.00    -0.396 C  
BRANCH  34  35
HETATM   35  C   UNL     1     -10.530  14.724  65.819  1.00  0.00    -0.348 C  
BRANCH  35  36
HETATM   36  C   UNL     1     -10.523  16.188  66.255  1.00  0.00    -0.321 C  
BRANCH  36  37
HETATM   37  C   UNL     1     -10.401  16.369  67.766  1.00  0.00    -0.287 C  
HETATM   38  F   UNL     1     -11.656  16.461  68.292  1.00  0.00    -0.344 F  
HETATM   39  C   UNL     1      -9.541  17.568  68.192  1.00  0.00    -0.294 C  
HETATM   40  F   UNL     1      -9.880  15.211  68.270  1.00  0.00    -0.210 F  
HETATM   41  F   UNL     1      -8.929  18.166  67.147  1.00  0.00    -0.243 F  
HETATM   42  F   UNL     1     -10.289  18.506  68.820  1.00  0.00    -0.374 F  
HETATM   43  F   UNL     1      -8.564  17.205  69.061  1.00  0.00    -0.260 F  
ENDBRANCH  36  37
ENDBRANCH  35  36
ENDBRANCH  34  35
ENDBRANCH  32  34
ENDBRANCH  31  32
ENDBRANCH  30  31
ENDBRANCH  29  30
ENDBRANCH  28  29
ENDBRANCH  27  28
ENDBRANCH  26  27
ENDBRANCH  25  26
ENDBRANCH  24  25
ENDBRANCH  23  24
ENDBRANCH  21  23
TORSDOF 14
ENDMDL
