MODEL      180
REMARK 921   NORMALIZED FREE ENERGY PREDICTED BY IDOCK:   -1.83 KCAL/MOL
REMARK 922        TOTAL FREE ENERGY PREDICTED BY IDOCK:   -1.61 KCAL/MOL
REMARK 923 INTER-LIGAND FREE ENERGY PREDICTED BY IDOCK:   -2.78 KCAL/MOL
REMARK 924 INTRA-LIGAND FREE ENERGY PREDICTED BY IDOCK:    1.17 KCAL/MOL
REMARK 927      BINDING AFFINITY PREDICTED BY RF-SCORE:    0.00 PKD
ROOT
HETATM    1 NA   UNL     1     -10.258  18.457  66.784  1.00  0.00    -0.282 Na 
HETATM    2  O   UNL     2      -8.508  16.741  65.470  1.00  0.00    -0.211 OA 
HETATM    3  C   UNL     2      -8.425  16.081  66.642  1.00  0.00    -0.288 C  
HETATM    4  O   UNL     2      -8.156  16.706  67.651  1.00  0.00    -0.167 OA 
HETATM    5  C   UNL     2      -8.696  14.594  66.647  1.00  0.00    -0.163 C  
ENDROOT
BRANCH   5   6
HETATM    6  N   UNL     2      -8.559  13.851  67.950  1.00  0.00    -0.168 N  
HETATM    7  C   UNL     2      -8.918  12.432  67.764  1.00  0.00    -0.182 C  
HETATM    8  C   UNL     2     -10.400  12.345  67.438  1.00  0.00    -0.207 C  
HETATM    9  N   UNL     2     -11.096  13.258  68.361  1.00  0.00    -0.257 N  
HETATM   10  C   UNL     2     -12.145  14.128  67.748  1.00  0.00    -0.286 C  
HETATM   11  C   UNL     2     -11.749  15.580  67.859  1.00  0.00    -0.138 C  
HETATM   12  O   UNL     2     -10.850  15.933  68.792  1.00  0.00    -0.251 OA 
HETATM   13  O   UNL     2     -12.233  16.422  67.121  1.00  0.00     1.299 OA 
HETATM   14 FE   UNL     2      -9.897  14.446  69.372  1.00  0.00    -0.199 Fe 
HETATM   15  O   UNL     2     -10.990  14.645  70.847  1.00  0.00    -0.025 OA 
HETATM   16  O   UNL     2      -8.369  15.364  69.979  1.00  0.00    -0.013 OA 
HETATM   17  C   UNL     2      -7.174  14.966  69.538  1.00  0.00    -0.184 C  
HETATM   18  C   UNL     2     -11.886  13.629  70.703  1.00  0.00    -0.154 C  
HETATM   19  C   UNL     2     -11.662  12.599  69.573  1.00  0.00    -0.308 C  
HETATM   20  O   UNL     2     -12.866  13.561  71.428  1.00  0.00    -0.350 OA 
HETATM   21  O   UNL     2      -6.142  15.360  70.060  1.00  0.00    -0.141 OA 
HETATM   22  C   UNL     2      -7.170  13.957  68.466  1.00  0.00    -0.107 C  
ENDBRANCH   5   6
TORSDOF 1
ENDMDL
