MODEL      199
REMARK 921   NORMALIZED FREE ENERGY PREDICTED BY IDOCK:   10.04 KCAL/MOL
REMARK 922        TOTAL FREE ENERGY PREDICTED BY IDOCK:   11.14 KCAL/MOL
REMARK 923 INTER-LIGAND FREE ENERGY PREDICTED BY IDOCK:    3.51 KCAL/MOL
REMARK 924 INTRA-LIGAND FREE ENERGY PREDICTED BY IDOCK:    7.63 KCAL/MOL
REMARK 927      BINDING AFFINITY PREDICTED BY RF-SCORE:    0.00 PKD
ROOT
HETATM    1  C   UNL     1     -11.229  15.053  67.380  1.00  0.00    -0.335 C  
HETATM    2  C   UNL     1     -12.652  15.309  66.894  1.00  0.00     1.345 C  
HETATM    3  C   UNL     1     -12.802  16.848  67.061  1.00  0.00     5.522 C  
HETATM    4  C   UNL     1     -11.643  17.294  67.943  1.00  0.00     0.758 C  
HETATM    5  N   UNL     1     -10.998  16.069  68.352  1.00  0.00    -0.315 N  
HETATM    6  C   UNL     1      -9.727  16.200  68.850  1.00  0.00    -0.242 C  
HETATM    7  O   UNL     1      -9.484  17.147  69.590  1.00  0.00     0.196 OA 
HETATM    8  C   UNL     1      -8.733  15.031  68.491  1.00  0.00    -0.175 C  
HETATM    9  C   UNL     1     -10.452  13.687  67.546  1.00  0.00    -0.241 C  
HETATM   10  N   UNL     1      -9.134  14.140  67.262  1.00  0.00    -0.203 N  
HETATM   11  C   UNL     1      -8.598  12.871  67.009  1.00  0.00    -0.169 C  
HETATM   12  H   UNL     1     -10.546  12.013  66.662  1.00  0.00     0.000 HD 
HETATM   13  C   UNL     1      -8.861  12.010  68.277  1.00  0.00    -0.182 C  
HETATM   14  O   UNL     1      -8.098  12.553  65.946  1.00  0.00     0.820 OA 
HETATM   15  O   UNL     1     -11.014  12.834  66.562  1.00  0.00    -0.254 OA 
HETATM   16  O   UNL     1     -10.086  12.878  68.707  1.00  0.00    -0.168 OA 
HETATM   17  C   UNL     1      -6.152  11.644  67.976  1.00  0.00    -0.047 C  
HETATM   18  C   UNL     1      -6.944  11.976  70.325  1.00  0.00     1.124 C  
HETATM   19  C   UNL     1      -7.329  12.182  68.858  1.00  0.00    -0.054 C  
ENDROOT
BRANCH   8  20
HETATM   20  C   UNL     1      -7.310  15.618  68.544  1.00  0.00    -0.122 C  
BRANCH  20  21
HETATM   21  C   UNL     1      -7.185  16.862  67.635  1.00  0.00    -0.161 A  
HETATM   22  C   UNL     1      -5.736  17.970  66.043  1.00  0.00    -0.236 A  
HETATM   23  C   UNL     1      -8.105  18.237  65.853  1.00  0.00     0.009 A  
HETATM   24  C   UNL     1      -8.290  17.482  67.007  1.00  0.00    -0.239 A  
HETATM   25  C   UNL     1      -6.842  18.449  65.339  1.00  0.00    -0.124 A  
HETATM   26  C   UNL     1      -5.902  17.187  67.182  1.00  0.00    -0.192 A  
ENDBRANCH  20  21
ENDBRANCH   8  20
BRANCH  13  27
HETATM   27  N   UNL     1      -9.329  10.617  68.053  1.00  0.00    -0.145 NA 
HETATM   28  H   UNL     1      -9.898  10.105  68.726  1.00  0.00     0.000 HD 
BRANCH  27  29
HETATM   29  C   UNL     1      -8.949  10.116  66.924  1.00  0.00    -0.132 C  
HETATM   30  H   UNL     1      -8.123  10.529  65.146  1.00  0.00     0.000 HD 
HETATM   31  O   UNL     1      -8.403  10.897  65.976  1.00  0.00    -0.164 OA 
BRANCH  29  32
HETATM   32  C   UNL     1      -9.054   8.673  66.427  1.00  0.00    -0.218 C  
HETATM   33  C   UNL     1      -7.824   7.793  66.639  1.00  0.00    -0.102 C  
HETATM   34  N   UNL     1      -8.176   6.386  66.367  1.00  0.00    -0.112 NA 
HETATM   35  C   UNL     1      -9.167   5.783  67.321  1.00  0.00    -0.110 C  
HETATM   36  C   UNL     1      -7.022   5.560  66.061  1.00  0.00    -0.066 C  
HETATM   37  C   UNL     1      -8.591   4.814  68.421  1.00  0.00    -0.104 C  
HETATM   38  C   UNL     1      -7.813   5.635  69.378  1.00  0.00    -0.088 A  
HETATM   39  C   UNL     1      -6.531   5.572  69.866  1.00  0.00    -0.034 A  
HETATM   40  N   UNL     1      -6.270   6.777  70.489  1.00  0.00    -0.031 NA 
HETATM   41  C   UNL     1      -7.379   7.601  70.431  1.00  0.00    -0.071 A  
HETATM   42  H   UNL     1      -5.384   7.025  70.930  1.00  0.00     0.000 HD 
HETATM   43  C   UNL     1      -7.583   8.936  70.780  1.00  0.00    -0.110 A  
HETATM   44  C   UNL     1      -8.840   9.489  70.472  1.00  0.00    -0.253 A  
HETATM   45  C   UNL     1      -9.797   8.786  69.729  1.00  0.00    -0.189 A  
HETATM   46  C   UNL     1      -9.488   7.517  69.227  1.00  0.00    -0.154 A  
HETATM   47  C   UNL     1     -10.112   6.895  67.978  1.00  0.00    -0.193 C  
HETATM   48  C   UNL     1      -8.341   6.892  69.744  1.00  0.00    -0.132 A  
HETATM   49  C   UNL     1     -10.362   7.943  66.872  1.00  0.00    -0.400 C  
ENDBRANCH  29  32
ENDBRANCH  27  29
ENDBRANCH  13  27
TORSDOF 5
ENDMDL
