MODEL       94
REMARK 921   NORMALIZED FREE ENERGY PREDICTED BY IDOCK:   -5.09 KCAL/MOL
REMARK 922        TOTAL FREE ENERGY PREDICTED BY IDOCK:  -13.12 KCAL/MOL
REMARK 923 INTER-LIGAND FREE ENERGY PREDICTED BY IDOCK:  -10.85 KCAL/MOL
REMARK 924 INTRA-LIGAND FREE ENERGY PREDICTED BY IDOCK:   -2.28 KCAL/MOL
REMARK 927      BINDING AFFINITY PREDICTED BY RF-SCORE:    0.00 PKD
ROOT
HETATM    1  N   UNK A   1     -12.769   7.446  70.561  1.00  0.00    -0.465 NA 
HETATM    2  H1  UNK A   1     -13.449   7.767  71.250  1.00  0.00     0.000 HD 
HETATM    3  H2  UNK A   1     -13.238   7.003  69.770  1.00  0.00     0.000 HD 
HETATM    4  C   UNK A   1     -11.729   6.546  71.127  1.00  0.00    -0.335 C  
HETATM    5  O   UNK A   1      -9.952   6.998  72.762  1.00  0.00    -0.167 OA 
HETATM    6  C   UNK A   1     -11.062   7.251  72.321  1.00  0.00    -0.260 C  
HETATM    7  O   UNK A   1     -11.877   8.207  72.836  1.00  0.00    -0.352 OA 
ENDROOT
BRANCH   4   8
HETATM    8  C   UNK A   1     -10.708   6.065  70.093  1.00  0.00    -0.379 C  
BRANCH   8   9
HETATM    9  C   UNK A   1     -11.088   6.334  68.636  1.00  0.00    -0.409 C  
BRANCH   9  10
HETATM   10  C   UNK A   1     -10.215   7.431  68.073  1.00  0.00    -0.191 C  
HETATM   11  N   UNK A   1      -9.951   8.458  68.954  1.00  0.00    -0.182 N  
HETATM   12  O   UNK A   1      -9.813   7.420  66.913  1.00  0.00    -0.184 OA 
HETATM   13  H   UNK A   1     -10.357   8.448  69.890  1.00  0.00     0.000 HD 
BRANCH  11  14
HETATM   14  C   UNK A   1      -9.083   9.567  68.537  1.00  0.00    -0.131 C  
BRANCH  14  15
HETATM   15  C   UNK A   1      -7.659   9.307  69.069  1.00  0.00    -0.074 C  
ATOM     16  H   GLY A   2      -8.280   9.854  70.965  1.00  0.00     0.000 HD 
ATOM     17  N   GLY A   2      -7.489   9.511  70.421  1.00  0.00    -0.137 N  
HETATM   18  O   UNK A   1      -6.738   8.963  68.344  1.00  0.00    -0.059 OA 
BRANCH  17  19
ATOM     19  CA  GLY A   2      -6.232   9.260  71.103  1.00  0.00    -0.075 C  
ATOM     20  C   GLY A   2      -6.371   8.600  72.465  1.00  0.00    -0.064 C  
ATOM     21  O   GLY A   2      -7.554   8.838  73.107  1.00  0.00    -0.375 OA 
ATOM     22  OXT GLY A   2      -5.482   7.956  73.001  1.00  0.00    -0.043 OA 
ENDBRANCH  17  19
ENDBRANCH  14  15
BRANCH  14  23
HETATM   23  C   UNK A   1      -9.635  10.910  69.044  1.00  0.00    -0.156 C  
BRANCH  23  24
HETATM   24  S   UNK A   1     -11.274  10.852  69.835  1.00  0.00    -0.259 SA 
BRANCH  24  25
HETATM   25  S   UNK A   1     -11.998  12.731  69.454  1.00  0.00    -0.218 SA 
BRANCH  25  26
HETATM   26  C   UNK A   1     -10.636  13.482  68.494  1.00  0.00    -0.247 C  
BRANCH  26  27
HETATM   27  C   UNK A   1     -11.069  14.281  67.250  1.00  0.00    -0.306 C  
BRANCH  27  28
HETATM   28  C   UNK A   1     -10.418  15.697  67.254  1.00  0.00    -0.292 C  
ATOM     29  H   GLY A   2     -12.226  16.604  67.775  1.00  0.00     0.000 HD 
ATOM     30  N   GLY A   2     -11.231  16.754  67.609  1.00  0.00    -0.077 N  
HETATM   31  O   UNK A   1      -9.213  15.870  67.077  1.00  0.00    -0.202 OA 
BRANCH  30  32
ATOM     32  CA  GLY A   2     -10.657  18.087  67.745  1.00  0.00    -0.394 C  
ATOM     33  OXT GLY A   2      -9.214  19.617  66.502  1.00  0.00    -0.340 OA 
ATOM     34  C   GLY A   2     -10.096  18.767  66.488  1.00  0.00    -0.397 C  
ATOM     35  O   GLY A   2     -10.793  18.520  65.362  1.00  0.00    -0.570 OA 
ENDBRANCH  30  32
ENDBRANCH  27  28
BRANCH  27  36
HETATM   36  N   UNK A   1     -11.071  13.511  65.988  1.00  0.00    -0.292 N  
HETATM   37  H   UNK A   1     -10.288  12.889  65.788  1.00  0.00     0.000 HD 
HETATM   38  O   UNK A   1     -13.135  14.216  65.289  1.00  0.00    -0.763 OA 
HETATM   39  C   UNK A   1     -12.094  13.605  65.074  1.00  0.00    -0.392 C  
BRANCH  39  40
HETATM   40  C   UNK A   1     -11.937  12.786  63.801  1.00  0.00    -0.585 C  
BRANCH  40  41
HETATM   41  C   UNK A   1     -10.534  12.222  63.507  1.00  0.00    -0.459 C  
BRANCH  41  42
HETATM   42  C   UNK A   1     -10.256  10.763  63.896  1.00  0.00    -0.309 C  
HETATM   43  N   UNK A   1     -10.481  10.512  65.345  1.00  0.00    -0.206 NA 
HETATM   44  C   UNK A   1      -8.808  10.421  63.600  1.00  0.00    -0.214 C  
HETATM   45  O   UNK A   1      -8.298  10.140  62.530  1.00  0.00    -0.133 OA 
HETATM   46  O   UNK A   1      -8.087  10.539  64.738  1.00  0.00    -0.154 OA 
HETATM   47  H2  UNK A   1     -11.419  10.796  65.626  1.00  0.00     0.000 HD 
HETATM   48  H1  UNK A   1     -10.297   9.543  65.604  1.00  0.00     0.000 HD 
ENDBRANCH  41  42
ENDBRANCH  40  41
ENDBRANCH  39  40
ENDBRANCH  27  36
ENDBRANCH  26  27
ENDBRANCH  25  26
ENDBRANCH  24  25
ENDBRANCH  23  24
ENDBRANCH  14  23
ENDBRANCH  11  14
ENDBRANCH   9  10
ENDBRANCH   8   9
ENDBRANCH   4   8
TORSDOF 17
ENDMDL
