MODEL      210
REMARK 921   NORMALIZED FREE ENERGY PREDICTED BY IDOCK:   -0.59 KCAL/MOL
REMARK 922        TOTAL FREE ENERGY PREDICTED BY IDOCK:   -8.08 KCAL/MOL
REMARK 923 INTER-LIGAND FREE ENERGY PREDICTED BY IDOCK:   -4.44 KCAL/MOL
REMARK 924 INTRA-LIGAND FREE ENERGY PREDICTED BY IDOCK:   -3.64 KCAL/MOL
REMARK 927      BINDING AFFINITY PREDICTED BY RF-SCORE:    0.00 PKD
ROOT
HETATM    1  C   UNL     1     -11.348   7.672  70.198  1.00  0.00    -0.147 C  
HETATM    2  C   UNL     1     -10.566   8.954  70.421  1.00  0.00    -0.252 C  
ENDROOT
BRANCH   2   3
HETATM    3  C   UNL     1     -11.499  10.117  70.724  1.00  0.00    -0.442 C  
BRANCH   3   4
HETATM    4  C   UNL     1     -12.693   9.660  71.557  1.00  0.00    -0.480 C  
BRANCH   4   5
HETATM    5  C   UNL     1     -13.552  10.851  71.964  1.00  0.00    -0.152 C  
BRANCH   5   6
HETATM    6  C   UNL     1     -13.099  12.110  71.239  1.00  0.00    -0.210 C  
BRANCH   6   7
HETATM    7  C   UNL     1     -13.296  13.328  72.129  1.00  0.00    -0.618 C  
BRANCH   7   8
HETATM    8  C   UNL     1     -13.961  14.449  71.345  1.00  0.00    -0.395 C  
BRANCH   8   9
HETATM    9  C   UNL     1     -12.940  15.515  70.985  1.00  0.00    -0.550 C  
BRANCH   9  10
HETATM   10  C   UNL     1     -11.537  14.953  71.122  1.00  0.00    -0.347 C  
BRANCH  10  11
HETATM   11  C   UNL     1     -10.950  14.665  69.752  1.00  0.00    -0.232 C  
BRANCH  11  12
HETATM   12  C   UNL     1      -9.610  15.362  69.622  1.00  0.00    -0.233 C  
BRANCH  12  13
HETATM   13  C   UNL     1      -8.498  14.340  69.508  1.00  0.00     0.492 C  
BRANCH  13  14
HETATM   14  C   UNL     1      -7.160  15.015  69.744  1.00  0.00    -0.170 C  
BRANCH  14  15
HETATM   15  C   UNL     1      -6.152  13.976  70.182  1.00  0.00    -0.154 C  
BRANCH  15  16
HETATM   16  C   UNL     1      -5.132  13.713  69.087  1.00  0.00    -0.077 C  
BRANCH  16  17
HETATM   17  C   UNL     1      -5.234  12.246  68.712  1.00  0.00    -0.054 C  
BRANCH  17  18
HETATM   18  C   UNL     1      -5.215  12.052  67.207  1.00  0.00    -0.113 C  
BRANCH  18  19
HETATM   19  N   UNL     1      -6.480  11.327  66.699  1.00  0.00    -0.130 N  
HETATM   20  C   UNL     1      -6.373  11.058  65.195  1.00  0.00     0.359 C  
HETATM   21  C   UNL     1      -6.677  10.009  67.450  1.00  0.00    -0.073 C  
BRANCH  19  22
HETATM   22  C   UNL     1      -7.652  12.292  66.989  1.00  0.00    -0.071 C  
BRANCH  22  23
HETATM   23  C   UNL     1      -8.992  11.693  66.612  1.00  0.00    -0.189 C  
BRANCH  23  24
HETATM   24  C   UNL     1     -10.134  12.375  67.343  1.00  0.00    -0.205 C  
BRANCH  24  25
HETATM   25  C   UNL     1     -11.335  12.375  66.414  1.00  0.00    -0.392 C  
BRANCH  25  26
HETATM   26  C   UNL     1     -10.936  12.775  65.012  1.00  0.00    -0.319 C  
BRANCH  26  27
HETATM   27  C   UNL     1     -10.972  14.288  64.894  1.00  0.00    -0.413 C  
BRANCH  27  28
HETATM   28  C   UNL     1     -12.391  14.779  65.086  1.00  0.00    -0.158 C  
BRANCH  28  29
HETATM   29  C   UNL     1     -12.429  15.861  66.147  1.00  0.00     2.092 C  
BRANCH  29  30
HETATM   30  C   UNL     1     -11.021  16.140  66.635  1.00  0.00    -0.055 C  
BRANCH  30  31
HETATM   31  C   UNL     1     -10.494  17.423  66.024  1.00  0.00    -0.278 C  
BRANCH  31  32
HETATM   32  C   UNL     1      -9.040  17.248  65.626  1.00  0.00     0.414 C  
BRANCH  32  33
HETATM   33  C   UNL     1      -8.148  18.104  66.508  1.00  0.00    -0.295 C  
BRANCH  33  34
HETATM   34  C   UNL     1      -7.217  17.224  67.329  1.00  0.00    -0.191 C  
BRANCH  34  35
HETATM   35  C   UNL     1      -6.175  18.077  68.039  1.00  0.00    -0.175 C  
BRANCH  35  36
HETATM   36  C   UNL     1      -6.027  19.428  67.352  1.00  0.00    -0.196 C  
BRANCH  36  37
HETATM   37  C   UNL     1      -6.094  20.558  68.374  1.00  0.00    -0.354 C  
BRANCH  37  38
HETATM   38  C   UNL     1      -6.671  20.065  69.696  1.00  0.00    -0.294 C  
HETATM   39  C   UNL     1      -8.188  20.006  69.639  1.00  0.00     0.619 C  
ENDBRANCH  37  38
ENDBRANCH  36  37
ENDBRANCH  35  36
ENDBRANCH  34  35
ENDBRANCH  33  34
ENDBRANCH  32  33
ENDBRANCH  31  32
ENDBRANCH  30  31
ENDBRANCH  29  30
ENDBRANCH  28  29
ENDBRANCH  27  28
ENDBRANCH  26  27
ENDBRANCH  25  26
ENDBRANCH  24  25
ENDBRANCH  23  24
ENDBRANCH  22  23
ENDBRANCH  19  22
ENDBRANCH  18  19
ENDBRANCH  17  18
ENDBRANCH  16  17
ENDBRANCH  15  16
ENDBRANCH  14  15
ENDBRANCH  13  14
ENDBRANCH  12  13
ENDBRANCH  11  12
ENDBRANCH  10  11
ENDBRANCH   9  10
ENDBRANCH   8   9
ENDBRANCH   7   8
ENDBRANCH   6   7
ENDBRANCH   5   6
ENDBRANCH   4   5
ENDBRANCH   3   4
ENDBRANCH   2   3
TORSDOF 34
ENDMDL
