MODEL       14
REMARK 921   NORMALIZED FREE ENERGY PREDICTED BY IDOCK:   -5.80 KCAL/MOL
REMARK 922        TOTAL FREE ENERGY PREDICTED BY IDOCK:   -9.73 KCAL/MOL
REMARK 923 INTER-LIGAND FREE ENERGY PREDICTED BY IDOCK:   -9.44 KCAL/MOL
REMARK 924 INTRA-LIGAND FREE ENERGY PREDICTED BY IDOCK:   -0.29 KCAL/MOL
REMARK 927      BINDING AFFINITY PREDICTED BY RF-SCORE:    0.00 PKD
ROOT
HETATM    1  C   UNL     1     -10.944   5.546  73.338  1.00  0.00    -0.324 C  
HETATM    2  C   UNL     1     -11.035   7.062  73.415  1.00  0.00    -0.216 C  
ENDROOT
BRANCH   2   3
HETATM    3  O   UNL     1     -12.151   7.501  72.645  1.00  0.00    -0.180 OA 
BRANCH   3   4
HETATM    4  C   UNL     1     -11.938   8.394  71.623  1.00  0.00    -0.307 A  
HETATM    5  C   UNL     1     -11.122   8.258  70.483  1.00  0.00    -0.249 A  
HETATM    6  C   UNL     1     -12.659   9.580  71.795  1.00  0.00    -0.490 A  
HETATM    7  C   UNL     1     -11.030   9.329  69.566  1.00  0.00    -0.169 A  
HETATM    8  C   UNL     1     -12.559  10.628  70.874  1.00  0.00    -0.503 A  
HETATM    9  C   UNL     1     -11.709  10.542  69.767  1.00  0.00    -0.354 A  
BRANCH   5  10
HETATM   10  O   UNL     1     -10.440   7.083  70.320  1.00  0.00    -0.201 OA 
BRANCH  10  11
HETATM   11  C   UNL     1     -11.132   5.946  69.830  1.00  0.00    -0.347 C  
HETATM   12  C   UNL     1     -10.126   4.816  69.704  1.00  0.00    -0.275 C  
ENDBRANCH  10  11
ENDBRANCH   5  10
BRANCH   9  13
HETATM   13  C   UNL     1     -11.513  11.659  68.799  1.00  0.00    -0.346 C  
HETATM   14  C   UNL     1     -11.376  12.964  69.127  1.00  0.00    -0.273 C  
HETATM   15  N   UNL     1     -11.435  13.373  70.461  1.00  0.00    -0.449 NA 
HETATM   16  C   UNL     1     -12.221  14.558  70.775  1.00  0.00    -0.333 C  
HETATM   17  H   UNL     1     -10.943  12.858  71.191  1.00  0.00     0.000 HD 
HETATM   18  C   UNL     1     -11.632  15.747  70.043  1.00  0.00    -0.361 C  
HETATM   19  C   UNL     1     -11.317  15.423  68.598  1.00  0.00    -0.337 A  
HETATM   20  C   UNL     1     -11.091  16.513  67.741  1.00  0.00    -0.179 A  
HETATM   21  C   UNL     1     -10.729  16.333  66.406  1.00  0.00    -0.182 A  
HETATM   22  C   UNL     1     -10.589  15.020  65.921  1.00  0.00    -0.329 A  
HETATM   23  C   UNL     1     -10.815  13.921  66.791  1.00  0.00    -0.286 A  
HETATM   24  C   UNL     1     -11.180  14.093  68.139  1.00  0.00    -0.299 A  
BRANCH  21  25
HETATM   25  O   UNL     1     -10.499  17.388  65.566  1.00  0.00    -0.624 OA 
BRANCH  25  26
HETATM   26  C   UNL     1     -10.410  18.703  66.110  1.00  0.00    -0.443 C  
HETATM   27  C   UNL     1      -8.943  19.088  66.164  1.00  0.00    -0.202 C  
ENDBRANCH  25  26
ENDBRANCH  21  25
BRANCH  22  28
HETATM   28  O   UNL     1     -10.230  14.633  64.645  1.00  0.00    -0.298 OA 
BRANCH  28  29
HETATM   29  C   UNL     1     -10.607  13.327  64.205  1.00  0.00    -0.384 C  
HETATM   30  C   UNL     1     -12.005  13.366  63.612  1.00  0.00    -0.504 C  
ENDBRANCH  28  29
ENDBRANCH  22  28
ENDBRANCH   9  13
ENDBRANCH   3   4
ENDBRANCH   2   3
TORSDOF 9
ENDMDL
