MODEL      303
REMARK 921   NORMALIZED FREE ENERGY PREDICTED BY IDOCK:   12.14 KCAL/MOL
REMARK 922        TOTAL FREE ENERGY PREDICTED BY IDOCK:   15.36 KCAL/MOL
REMARK 923 INTER-LIGAND FREE ENERGY PREDICTED BY IDOCK:    5.31 KCAL/MOL
REMARK 924 INTRA-LIGAND FREE ENERGY PREDICTED BY IDOCK:   10.06 KCAL/MOL
REMARK 927      BINDING AFFINITY PREDICTED BY RF-SCORE:    0.00 PKD
ROOT
HETATM    1  C   UNL     1      -8.204  12.769  68.141  1.00  0.00    -0.167 C  
HETATM    2  C   UNL     1      -7.731  11.331  68.410  1.00  0.00    -0.125 C  
HETATM    3  C   UNL     1      -6.234  11.378  68.774  1.00  0.00    -0.050 C  
HETATM    4  C   UNL     1      -7.889  10.479  67.138  1.00  0.00    -0.112 C  
HETATM    5  N   UNL     1      -8.423  10.706  69.553  1.00  0.00    -0.375 NA 
HETATM    6  H   UNL     1      -8.169  11.183  70.418  1.00  0.00     0.000 HD 
ENDROOT
BRANCH   5   7
HETATM    7  C   UNL     1      -9.879  10.619  69.439  1.00  0.00    -0.139 C  
BRANCH   7   8
HETATM    8  C   UNL     1     -10.470  11.404  68.251  1.00  0.00    -0.198 C  
HETATM    9  O   UNL     1      -9.358  11.968  67.526  1.00  0.00    -0.172 OA 
HETATM   10  H   UNL     1      -9.723  12.452  66.795  1.00  0.00     0.000 HD 
BRANCH   8  11
HETATM   11  C   UNL     1     -11.407  12.547  68.658  1.00  0.00    -0.288 C  
BRANCH  11  12
HETATM   12  O   UNL     1     -12.391  12.876  67.671  1.00  0.00    -0.220 OA 
BRANCH  12  13
HETATM   13  C   UNL     1     -12.444  14.208  67.311  1.00  0.00     0.037 A  
HETATM   14  C   UNL     1     -12.554  14.631  65.972  1.00  0.00     0.034 A  
HETATM   15  C   UNL     1     -12.539  15.982  65.637  1.00  0.00     2.352 A  
HETATM   16  C   UNL     1     -12.426  16.933  66.636  1.00  0.00     4.287 A  
HETATM   17  C   UNL     1     -12.343  16.531  67.971  1.00  0.00     1.650 A  
HETATM   18  C   UNL     1     -12.362  15.169  68.343  1.00  0.00     0.201 A  
BRANCH  18  19
HETATM   19  C   UNL     1     -12.224  14.769  69.805  1.00  0.00    -0.337 C  
HETATM   20  C   UNL     1     -10.933  15.190  70.529  1.00  0.00    -0.267 C  
HETATM   21  C   UNL     1     -11.256  14.937  71.990  1.00  0.00     0.082 C  
HETATM   22  C   UNL     1     -12.673  15.474  72.124  1.00  0.00    -0.486 C  
HETATM   23  C   UNL     1     -13.324  15.305  70.744  1.00  0.00    -0.402 C  
ENDBRANCH  18  19
ENDBRANCH  12  13
ENDBRANCH  11  12
ENDBRANCH   8  11
ENDBRANCH   7   8
ENDBRANCH   5   7
TORSDOF 6
ENDMDL
