MODEL       55
REMARK 921   NORMALIZED FREE ENERGY PREDICTED BY IDOCK:   -5.82 KCAL/MOL
REMARK 922        TOTAL FREE ENERGY PREDICTED BY IDOCK:   -9.98 KCAL/MOL
REMARK 923 INTER-LIGAND FREE ENERGY PREDICTED BY IDOCK:   -9.17 KCAL/MOL
REMARK 924 INTRA-LIGAND FREE ENERGY PREDICTED BY IDOCK:   -0.82 KCAL/MOL
REMARK 927      BINDING AFFINITY PREDICTED BY RF-SCORE:    0.00 PKD
ROOT
HETATM    1  C   UNL     1      -6.285  21.302  67.305  1.00  0.00    -0.351 C  
HETATM    2  O   UNL     1      -6.957  20.356  68.131  1.00  0.00    -0.289 OA 
ENDROOT
BRANCH   2   3
HETATM    3  C   UNL     1      -6.682  19.036  67.885  1.00  0.00    -0.219 A  
HETATM    4  C   UNL     1      -5.746  18.330  68.662  1.00  0.00    -0.182 A  
HETATM    5  C   UNL     1      -5.458  16.992  68.403  1.00  0.00    -0.131 A  
HETATM    6  C   UNL     1      -6.111  16.334  67.368  1.00  0.00    -0.197 A  
HETATM    7  C   UNL     1      -7.066  17.013  66.612  1.00  0.00    -0.289 A  
HETATM    8  C   UNL     1      -7.376  18.357  66.866  1.00  0.00    -0.208 A  
BRANCH   8   9
HETATM    9  O   UNL     1      -8.355  18.829  66.028  1.00  0.00    -0.468 OA 
BRANCH   9  10
HETATM   10  C   UNL     1      -9.708  18.455  66.284  1.00  0.00    -0.294 C  
BRANCH  10  11
HETATM   11  C   UNL     1      -9.973  18.462  67.802  1.00  0.00    -0.346 C  
HETATM   12  H   UNL     1     -10.750  19.692  69.167  1.00  0.00     0.000 HD 
HETATM   13  O   UNL     1     -10.586  19.688  68.232  1.00  0.00    -0.390 OA 
BRANCH  11  14
HETATM   14  C   UNL     1     -10.898  17.287  68.210  1.00  0.00    -0.287 C  
BRANCH  14  15
HETATM   15  N   UNL     1     -10.358  16.402  69.262  1.00  0.00    -0.274 NA 
HETATM   16  C   UNL     1     -11.378  16.051  70.261  1.00  0.00    -0.382 C  
HETATM   17  C   UNL     1     -12.500  15.188  69.662  1.00  0.00    -0.136 C  
HETATM   18  N   UNL     1     -12.046  13.884  69.126  1.00  0.00    -0.356 NA 
HETATM   19  C   UNL     1     -10.862  14.080  68.261  1.00  0.00    -0.255 C  
HETATM   20  C   UNL     1      -9.817  15.142  68.705  1.00  0.00    -0.223 C  
BRANCH  18  21
HETATM   21  C   UNL     1     -11.800  12.924  70.231  1.00  0.00    -0.213 C  
BRANCH  21  22
HETATM   22  C   UNL     1     -11.939  11.472  69.711  1.00  0.00    -0.346 C  
HETATM   23  N   UNL     1     -11.468  10.554  70.634  1.00  0.00    -0.336 N  
HETATM   24  O   UNL     1     -12.460  11.216  68.630  1.00  0.00    -0.463 OA 
HETATM   25  H   UNL     1     -11.127  10.936  71.516  1.00  0.00     0.000 HD 
BRANCH  23  26
HETATM   26  C   UNL     1     -11.404   9.158  70.497  1.00  0.00    -0.257 A  
HETATM   27  C   UNL     1     -10.414   8.499  69.737  1.00  0.00    -0.220 A  
HETATM   28  C   UNL     1     -10.416   7.094  69.696  1.00  0.00    -0.241 A  
HETATM   29  C   UNL     1      -9.300   9.193  69.004  1.00  0.00    -0.151 C  
HETATM   30  C   UNL     1     -11.342   6.354  70.425  1.00  0.00    -0.453 A  
HETATM   31  C   UNL     1     -12.291   7.005  71.205  1.00  0.00    -0.423 A  
HETATM   32  C   UNL     1     -12.333   8.406  71.251  1.00  0.00    -0.289 A  
HETATM   33  C   UNL     1     -13.426   9.072  72.045  1.00  0.00    -0.498 C  
ENDBRANCH  23  26
ENDBRANCH  21  22
ENDBRANCH  18  21
ENDBRANCH  14  15
ENDBRANCH  11  14
ENDBRANCH  10  11
ENDBRANCH   9  10
ENDBRANCH   8   9
ENDBRANCH   2   3
TORSDOF 9
ENDMDL
