MODEL      192
REMARK 921   NORMALIZED FREE ENERGY PREDICTED BY IDOCK:    1.35 KCAL/MOL
REMARK 922        TOTAL FREE ENERGY PREDICTED BY IDOCK:    0.90 KCAL/MOL
REMARK 923 INTER-LIGAND FREE ENERGY PREDICTED BY IDOCK:   -2.84 KCAL/MOL
REMARK 924 INTRA-LIGAND FREE ENERGY PREDICTED BY IDOCK:    3.74 KCAL/MOL
REMARK 927      BINDING AFFINITY PREDICTED BY RF-SCORE:    0.00 PKD
ROOT
HETATM    1  C   UNL     1      -6.262  19.561  70.671  1.00  0.00    -0.079 C  
HETATM    2  C   UNL     1      -6.220  18.298  69.813  1.00  0.00    -0.174 C  
HETATM    3  C   UNL     1      -5.939  18.655  68.352  1.00  0.00    -0.199 C  
HETATM    4  C   UNL     1      -5.176  17.313  70.362  1.00  0.00    -0.246 C  
ENDROOT
BRANCH   4   5
HETATM    5  O   UNL     1      -5.139  16.162  69.516  1.00  0.00    -0.110 OA 
BRANCH   5   6
HETATM    6  C   UNL     1      -6.272  15.893  68.799  1.00  0.00    -0.109 A  
HETATM    7  C   UNL     1      -6.876  14.647  69.012  1.00  0.00    -0.111 A  
HETATM    8  C   UNL     1      -8.019  14.285  68.280  1.00  0.00    -0.140 A  
HETATM    9  C   UNL     1      -6.363  13.725  69.987  1.00  0.00    -0.084 C  
HETATM   10  C   UNL     1      -8.573  15.149  67.322  1.00  0.00    -0.218 A  
HETATM   11  N   UNL     1      -5.998  12.950  70.771  1.00  0.00    -0.215 NA 
HETATM   12  C   UNL     1      -6.811  16.757  67.842  1.00  0.00    -0.156 A  
HETATM   13  C   UNL     1      -7.947  16.386  67.112  1.00  0.00    -0.215 A  
BRANCH  10  14
HETATM   14  C   UNL     1      -9.763  14.787  66.529  1.00  0.00    -0.278 A  
HETATM   15  N   UNL     1     -10.818  15.557  66.353  1.00  0.00    -0.302 NA 
HETATM   16  C   UNL     1     -11.761  14.928  65.546  1.00  0.00    -0.211 A  
HETATM   17  C   UNL     1     -11.419  13.646  65.147  1.00  0.00    -0.316 A  
HETATM   18  C   UNL     1     -13.008  15.667  65.201  1.00  0.00     1.514 C  
HETATM   19  C   UNL     1     -12.174  12.724  64.328  1.00  0.00    -0.425 C  
HETATM   20  S   UNL     1      -9.879  13.244  65.780  1.00  0.00    -0.140 SA 
HETATM   21  O   UNL     1     -13.282  12.937  63.856  1.00  0.00    -0.306 OA 
HETATM   22  O   UNL     1     -11.530  11.544  64.116  1.00  0.00    -0.320 OA 
ENDBRANCH  10  14
ENDBRANCH   5   6
ENDBRANCH   4   5
TORSDOF 3
ENDMDL
