MODEL       68
REMARK 921   NORMALIZED FREE ENERGY PREDICTED BY IDOCK:   -5.15 KCAL/MOL
REMARK 922        TOTAL FREE ENERGY PREDICTED BY IDOCK:   -9.60 KCAL/MOL
REMARK 923 INTER-LIGAND FREE ENERGY PREDICTED BY IDOCK:   -8.04 KCAL/MOL
REMARK 924 INTRA-LIGAND FREE ENERGY PREDICTED BY IDOCK:   -1.56 KCAL/MOL
REMARK 927      BINDING AFFINITY PREDICTED BY RF-SCORE:    0.00 PKD
ROOT
HETATM    1  C   UNL     1     -11.549   6.347  69.959  1.00  0.00    -0.446 C  
HETATM    2  C   UNL     1     -10.496   7.291  69.394  1.00  0.00    -0.216 C  
ENDROOT
BRANCH   2   3
HETATM    3  N   UNL     1     -10.389   8.548  70.141  1.00  0.00    -0.202 N  
BRANCH   3   4
HETATM    4  C   UNL     1     -11.464   8.882  71.081  1.00  0.00    -0.301 C  
HETATM    5  C   UNL     1     -11.982  10.303  70.958  1.00  0.00    -0.483 C  
ENDBRANCH   3   4
BRANCH   3   6
HETATM    6  C   UNL     1      -9.175   9.230  70.055  1.00  0.00    -0.210 C  
HETATM    7  O   UNL     1      -8.541   9.557  71.057  1.00  0.00    -0.273 OA 
BRANCH   6   8
HETATM    8  N   UNL     1      -8.734   9.467  68.766  1.00  0.00    -0.126 N  
HETATM    9  H   UNL     1      -8.280   8.712  68.253  1.00  0.00     0.000 HD 
BRANCH   8  10
HETATM   10  C   UNL     1      -8.892  10.718  68.142  1.00  0.00    -0.133 A  
HETATM   11  C   UNL     1      -8.038  11.787  68.404  1.00  0.00    -0.150 A  
HETATM   12  C   UNL     1      -8.188  12.994  67.715  1.00  0.00    -0.168 A  
HETATM   13  C   UNL     1      -9.179  13.148  66.735  1.00  0.00    -0.230 A  
HETATM   14  C   UNL     1      -9.927  10.882  67.222  1.00  0.00    -0.216 A  
HETATM   15  C   UNL     1     -10.061  12.079  66.496  1.00  0.00    -0.224 A  
BRANCH  13  16
HETATM   16  O   UNL     1      -9.303  14.270  65.961  1.00  0.00    -0.228 OA 
BRANCH  16  17
HETATM   17  C   UNL     1      -8.958  15.530  66.561  1.00  0.00    -0.312 C  
BRANCH  17  18
HETATM   18  C   UNL     1     -10.240  16.338  66.801  1.00  0.00    -0.280 C  
HETATM   19  H   UNL     1     -11.328  17.613  65.777  1.00  0.00     0.000 HD 
HETATM   20  O   UNL     1     -10.534  17.112  65.629  1.00  0.00    -0.541 OA 
BRANCH  18  21
HETATM   21  C   UNL     1     -11.467  15.465  67.129  1.00  0.00    -0.133 C  
BRANCH  21  22
HETATM   22  N   UNL     1     -12.117  15.820  68.396  1.00  0.00    -0.406 NA 
HETATM   23  C   UNL     1     -11.713  15.000  69.559  1.00  0.00    -0.322 C  
HETATM   24  H   UNL     1     -13.131  15.801  68.289  1.00  0.00     0.000 HD 
HETATM   25  C   UNL     1     -12.564  15.469  70.755  1.00  0.00    -0.505 C  
HETATM   26  C   UNL     1     -10.233  15.215  69.919  1.00  0.00    -0.178 C  
HETATM   27  C   UNL     1     -11.988  13.506  69.326  1.00  0.00    -0.378 C  
ENDBRANCH  21  22
ENDBRANCH  18  21
ENDBRANCH  17  18
ENDBRANCH  16  17
ENDBRANCH  13  16
BRANCH  15  28
HETATM   28  C   UNL     1     -11.121  12.049  65.442  1.00  0.00    -0.320 C  
HETATM   29  O   UNL     1     -12.290  12.277  65.761  1.00  0.00    -0.622 OA 
HETATM   30  C   UNL     1     -10.776  11.802  63.998  1.00  0.00    -0.434 C  
ENDBRANCH  15  28
ENDBRANCH   8  10
ENDBRANCH   6   8
ENDBRANCH   3   6
ENDBRANCH   2   3
TORSDOF 11
ENDMDL
