MODEL      126
REMARK 921   NORMALIZED FREE ENERGY PREDICTED BY IDOCK:    0.59 KCAL/MOL
REMARK 922        TOTAL FREE ENERGY PREDICTED BY IDOCK:    0.09 KCAL/MOL
REMARK 923 INTER-LIGAND FREE ENERGY PREDICTED BY IDOCK:    0.45 KCAL/MOL
REMARK 924 INTRA-LIGAND FREE ENERGY PREDICTED BY IDOCK:   -0.37 KCAL/MOL
REMARK 927      BINDING AFFINITY PREDICTED BY RF-SCORE:    0.00 PKD
ROOT
HETATM    1  C   UNL     1      -7.290  15.128  68.737  1.00  0.00    -0.131 C  
HETATM    2  N   UNL     1      -8.370  14.939  67.753  1.00  0.00    -0.148 N  
HETATM    3  C   UNL     1      -8.613  13.732  67.010  1.00  0.00    -0.166 C  
HETATM    4  O   UNL     1      -9.738  16.907  68.545  1.00  0.00    -0.243 OA 
HETATM    5  C   UNL     1      -9.606  13.664  66.079  1.00  0.00    -0.166 C  
HETATM    6  O   UNL     1      -8.151  17.184  66.610  1.00  0.00    -0.211 OA 
HETATM    7  O   UNL     1      -9.882  12.493  65.379  1.00  0.00    -0.359 OA 
HETATM    8  C   UNL     1     -10.527  14.753  65.710  1.00  0.00    -0.348 A  
HETATM    9  C   UNL     1     -12.354  16.821  65.023  1.00  0.00     3.144 A  
HETATM   10  C   UNL     1     -11.312  17.062  65.910  1.00  0.00     0.830 A  
HETATM   11  H   UNL     1     -10.574  12.445  64.730  1.00  0.00     0.000 HD 
HETATM   12  C   UNL     1     -11.588  14.535  64.807  1.00  0.00    -0.414 A  
HETATM   13  C   UNL     1     -10.413  16.029  66.235  1.00  0.00    -0.320 A  
HETATM   14  S   UNL     1      -9.122  16.394  67.338  1.00  0.00    -0.200 S  
HETATM   15  C   UNL     1     -12.491  15.554  64.468  1.00  0.00     0.138 A  
ENDROOT
BRANCH   3  16
HETATM   16  C   UNL     1      -7.891  12.432  67.321  1.00  0.00    -0.166 C  
HETATM   17  N   UNL     1      -8.231  11.791  68.484  1.00  0.00    -0.202 N  
HETATM   18  O   UNL     1      -6.948  12.089  66.603  1.00  0.00    -0.024 OA 
HETATM   19  H   UNL     1      -9.003  12.169  69.034  1.00  0.00     0.000 HD 
BRANCH  17  20
HETATM   20  C   UNL     1      -7.578  10.645  68.961  1.00  0.00    -0.122 A  
HETATM   21  N   UNL     1      -7.093  10.768  70.210  1.00  0.00    -0.167 NA 
HETATM   22  C   UNL     1      -6.139   8.553  70.007  1.00  0.00    -0.031 A  
HETATM   23  C   UNL     1      -6.722   8.411  68.756  1.00  0.00    -0.058 A  
HETATM   24  C   UNL     1      -6.354   9.740  70.689  1.00  0.00    -0.105 A  
HETATM   25  C   UNL     1      -7.444   9.477  68.215  1.00  0.00    -0.078 A  
ENDBRANCH  17  20
ENDBRANCH   3  16
TORSDOF 2
ENDMDL
