MODEL        8
REMARK 921   NORMALIZED FREE ENERGY PREDICTED BY IDOCK:   -6.93 KCAL/MOL
REMARK 922        TOTAL FREE ENERGY PREDICTED BY IDOCK:  -11.92 KCAL/MOL
REMARK 923 INTER-LIGAND FREE ENERGY PREDICTED BY IDOCK:  -10.48 KCAL/MOL
REMARK 924 INTRA-LIGAND FREE ENERGY PREDICTED BY IDOCK:   -1.45 KCAL/MOL
REMARK 927      BINDING AFFINITY PREDICTED BY RF-SCORE:    0.00 PKD
ROOT
HETATM    1  C   UNL     1     -14.270   8.041  71.675  1.00  0.00    -0.452 C  
HETATM    2  O   UNL     1     -13.303   7.095  71.226  1.00  0.00    -0.368 OA 
ENDROOT
BRANCH   2   3
HETATM    3  C   UNL     1     -11.993   7.482  71.352  1.00  0.00    -0.309 A  
HETATM    4  C   UNL     1     -11.449   8.568  70.655  1.00  0.00    -0.249 A  
HETATM    5  C   UNL     1     -10.103   8.939  70.795  1.00  0.00    -0.226 A  
HETATM    6  C   UNL     1      -9.301   8.180  71.668  1.00  0.00    -0.174 A  
HETATM    7  C   UNL     1     -11.160   6.727  72.186  1.00  0.00    -0.250 A  
HETATM    8 CL   UNL     1      -7.640   8.592  71.918  1.00  0.00    -0.133 Cl 
HETATM    9  C   UNL     1      -9.821   7.080  72.355  1.00  0.00    -0.172 A  
HETATM   10 CL   UNL     1     -11.759   5.358  73.056  1.00  0.00    -0.288 Cl 
BRANCH   5  11
HETATM   11  N   UNL     1      -9.539   9.977  70.009  1.00  0.00    -0.378 NA 
HETATM   12  H   UNL     1      -9.087  10.728  70.530  1.00  0.00     0.000 HD 
BRANCH  11  13
HETATM   13  C   UNL     1      -9.519  10.112  68.596  1.00  0.00    -0.164 A  
HETATM   14  C   UNL     1      -8.059   8.105  68.307  1.00  0.00    -0.128 C  
HETATM   15  C   UNL     1      -8.860   9.164  67.787  1.00  0.00    -0.125 A  
HETATM   16  C   UNL     1      -8.980   9.277  66.415  1.00  0.00    -0.154 A  
HETATM   17  N   UNL     1      -9.708  10.226  65.795  1.00  0.00    -0.220 NA 
HETATM   18  N   UNL     1      -7.420   7.214  68.689  1.00  0.00    -0.100 NA 
HETATM   19  C   UNL     1     -10.342  11.129  66.552  1.00  0.00    -0.243 A  
HETATM   20  C   UNL     1     -11.110  12.073  65.894  1.00  0.00    -0.369 A  
HETATM   21  C   UNL     1     -11.849  13.042  66.579  1.00  0.00    -0.403 A  
HETATM   22  C   UNL     1     -10.274  11.143  67.963  1.00  0.00    -0.201 A  
HETATM   23  C   UNL     1     -11.773  13.092  67.971  1.00  0.00    -0.355 A  
HETATM   24  C   UNL     1     -10.978  12.161  68.650  1.00  0.00    -0.284 A  
BRANCH  21  25
HETATM   25  O   UNL     1     -12.570  13.996  65.916  1.00  0.00    -0.488 OA 
BRANCH  25  26
HETATM   26  C   UNL     1     -12.102  14.302  64.596  1.00  0.00    -0.463 C  
BRANCH  26  27
HETATM   27  C   UNL     1     -11.533  15.712  64.642  1.00  0.00    -0.306 C  
BRANCH  27  28
HETATM   28  C   UNL     1     -10.461  15.886  65.718  1.00  0.00    -0.370 C  
BRANCH  28  29
HETATM   29  N   UNL     1      -9.667  17.122  65.606  1.00  0.00    -0.544 NA 
HETATM   30  C   UNL     1     -10.389  18.323  66.080  1.00  0.00    -0.398 C  
HETATM   31  C   UNL     1     -10.616  18.367  67.610  1.00  0.00    -0.408 C  
HETATM   32  N   UNL     1      -9.385  18.226  68.413  1.00  0.00    -0.305 NA 
HETATM   33  C   UNL     1      -8.602  17.069  67.929  1.00  0.00    -0.207 C  
HETATM   34  C   UNL     1      -8.590  19.453  68.376  1.00  0.00    -0.360 C  
HETATM   35  C   UNL     1      -8.413  16.999  66.390  1.00  0.00    -0.283 C  
ENDBRANCH  28  29
ENDBRANCH  27  28
ENDBRANCH  26  27
ENDBRANCH  25  26
ENDBRANCH  21  25
BRANCH  23  36
HETATM   36  O   UNL     1     -12.383  14.011  68.784  1.00  0.00    -0.287 OA 
HETATM   37  C   UNL     1     -11.546  15.067  69.244  1.00  0.00    -0.315 C  
ENDBRANCH  23  36
ENDBRANCH  11  13
ENDBRANCH   5  11
ENDBRANCH   2   3
TORSDOF 9
ENDMDL
