MODEL      129
REMARK 921   NORMALIZED FREE ENERGY PREDICTED BY IDOCK:   -4.42 KCAL/MOL
REMARK 922        TOTAL FREE ENERGY PREDICTED BY IDOCK:   -8.45 KCAL/MOL
REMARK 923 INTER-LIGAND FREE ENERGY PREDICTED BY IDOCK:   -7.68 KCAL/MOL
REMARK 924 INTRA-LIGAND FREE ENERGY PREDICTED BY IDOCK:   -0.77 KCAL/MOL
REMARK 927      BINDING AFFINITY PREDICTED BY RF-SCORE:    0.00 PKD
ROOT
HETATM    1  O   UNL     1     -10.296  10.136  63.863  1.00  0.00    -0.437 OA 
HETATM    2  H   UNL     1     -10.803   9.333  63.890  1.00  0.00     0.000 HD 
HETATM    3  C   UNL     1     -11.128  11.293  63.940  1.00  0.00    -0.238 C  
ENDROOT
BRANCH   3   4
HETATM    4  C   UNL     1     -10.303  12.599  63.896  1.00  0.00    -0.377 C  
BRANCH   4   5
HETATM    5  N   UNL     1     -10.172  13.315  65.183  1.00  0.00    -0.304 NA 
BRANCH   5   6
HETATM    6  C   UNL     1     -10.192  12.513  66.311  1.00  0.00    -0.248 A  
HETATM    7  C   UNL     1      -8.875   9.340  67.541  1.00  0.00    -0.118 A  
HETATM    8  N   UNL     1      -8.847   8.628  68.695  1.00  0.00    -0.141 NA 
HETATM    9  N   UNL     1      -9.548  11.346  66.310  1.00  0.00    -0.207 NA 
HETATM   10  C   UNL     1      -9.517  10.590  67.442  1.00  0.00    -0.153 A  
HETATM   11  N   UNL     1     -10.835  12.949  67.386  1.00  0.00    -0.247 NA 
HETATM   12  C   UNL     1      -9.481   9.096  69.761  1.00  0.00    -0.182 A  
HETATM   13  C   UNL     1     -10.156  10.986  68.604  1.00  0.00    -0.197 A  
HETATM   14  C   UNL     1     -10.831  12.211  68.514  1.00  0.00    -0.236 A  
HETATM   15  N   UNL     1     -10.172  10.227  69.728  1.00  0.00    -0.238 NA 
BRANCH  14  16
HETATM   16  N   UNL     1     -11.596  12.714  69.560  1.00  0.00    -0.293 NA 
HETATM   17  C   UNL     1     -13.524  12.300  70.938  1.00  0.00     0.806 C  
HETATM   18  C   UNL     1     -13.575  13.794  71.278  1.00  0.00    -0.170 C  
HETATM   19  C   UNL     1     -12.094  11.857  70.631  1.00  0.00    -0.294 C  
HETATM   20  C   UNL     1     -11.470  14.128  69.911  1.00  0.00    -0.226 C  
HETATM   21  C   UNL     1     -12.878  14.649  70.215  1.00  0.00    -0.254 C  
ENDBRANCH  14  16
BRANCH  12  22
HETATM   22  N   UNL     1      -9.423   8.413  70.957  1.00  0.00    -0.160 NA 
BRANCH  22  23
HETATM   23  C   UNL     1      -8.207   7.634  71.220  1.00  0.00    -0.099 C  
BRANCH  23  24
HETATM   24  C   UNL     1      -7.079   8.460  71.864  1.00  0.00    -0.092 C  
HETATM   25  O   UNL     1      -6.948   9.741  71.249  1.00  0.00    -0.330 OA 
HETATM   26  H   UNL     1      -6.251  10.251  71.647  1.00  0.00     0.000 HD 
ENDBRANCH  23  24
ENDBRANCH  22  23
BRANCH  22  27
HETATM   27  C   UNL     1     -10.257   8.841  72.082  1.00  0.00    -0.301 C  
BRANCH  27  28
HETATM   28  C   UNL     1     -10.402   7.731  73.138  1.00  0.00    -0.340 C  
HETATM   29  O   UNL     1     -11.590   6.965  72.932  1.00  0.00    -0.491 OA 
HETATM   30  H   UNL     1     -11.679   6.280  73.584  1.00  0.00     0.000 HD 
ENDBRANCH  27  28
ENDBRANCH  22  27
ENDBRANCH  12  22
BRANCH   7  31
HETATM   31  N   UNL     1      -8.176   8.744  66.493  1.00  0.00    -0.109 NA 
HETATM   32  C   UNL     1      -8.551   7.459  65.913  1.00  0.00    -0.153 C  
HETATM   33  C   UNL     1      -6.771   9.122  66.330  1.00  0.00    -0.071 C  
HETATM   34  C   UNL     1      -8.265   7.503  64.411  1.00  0.00    -0.018 C  
HETATM   35  C   UNL     1      -6.449   9.197  64.838  1.00  0.00    -0.067 C  
HETATM   36  C   UNL     1      -6.820   7.899  64.120  1.00  0.00    -0.061 C  
ENDBRANCH   7  31
ENDBRANCH   5   6
BRANCH   5  37
HETATM   37  C   UNL     1     -10.798  14.640  65.279  1.00  0.00    -0.377 C  
BRANCH  37  38
HETATM   38  C   UNL     1     -12.151  14.708  64.543  1.00  0.00    -0.475 C  
HETATM   39  O   UNL     1     -13.177  13.995  65.233  1.00  0.00    -0.782 OA 
HETATM   40  H   UNL     1     -14.010  14.037  64.780  1.00  0.00     0.000 HD 
ENDBRANCH  37  38
ENDBRANCH   5  37
ENDBRANCH   4   5
ENDBRANCH   3   4
TORSDOF 12
ENDMDL
