MODEL      102
REMARK 921   NORMALIZED FREE ENERGY PREDICTED BY IDOCK:   -4.97 KCAL/MOL
REMARK 922        TOTAL FREE ENERGY PREDICTED BY IDOCK:  -12.33 KCAL/MOL
REMARK 923 INTER-LIGAND FREE ENERGY PREDICTED BY IDOCK:   -9.84 KCAL/MOL
REMARK 924 INTRA-LIGAND FREE ENERGY PREDICTED BY IDOCK:   -2.48 KCAL/MOL
REMARK 927      BINDING AFFINITY PREDICTED BY RF-SCORE:    0.00 PKD
ROOT
HETATM    1  C   UNL     1     -11.024   6.460  67.889  1.00  0.00    -0.416 C  
HETATM    2  C   UNL     1      -9.602   6.070  68.275  1.00  0.00    -0.119 C  
HETATM    3  C   UNL     1      -9.609   4.953  69.310  1.00  0.00    -0.241 C  
ENDROOT
BRANCH   2   4
HETATM    4  O   UNL     1      -8.907   5.580  67.113  1.00  0.00    -0.109 OA 
BRANCH   4   5
HETATM    5  C   UNL     1      -8.359   6.542  66.316  1.00  0.00    -0.124 C  
HETATM    6  O   UNL     1      -8.672   6.761  65.153  1.00  0.00    -0.024 OA 
BRANCH   5   7
HETATM    7  C   UNL     1      -7.289   7.283  67.078  1.00  0.00    -0.093 C  
BRANCH   7   8
HETATM    8  C   UNL     1      -7.380   8.788  66.818  1.00  0.00    -0.082 C  
BRANCH   8   9
HETATM    9  C   UNL     1      -8.168   9.536  67.890  1.00  0.00    -0.114 C  
BRANCH   9  10
HETATM   10  C   UNL     1      -9.623   9.675  67.539  1.00  0.00    -0.180 C  
HETATM   11  C   UNL     1     -10.165  10.584  66.711  1.00  0.00    -0.288 C  
BRANCH  11  12
HETATM   12  C   UNL     1      -9.434  11.642  65.937  1.00  0.00    -0.246 C  
BRANCH  12  13
HETATM   13  C   UNL     1     -10.309  12.718  65.270  1.00  0.00    -0.313 C  
HETATM   14  C   UNL     1     -10.648  12.329  63.819  1.00  0.00    -0.451 C  
HETATM   15  C   UNL     1     -11.770  13.283  63.458  1.00  0.00    -0.390 C  
HETATM   16  O   UNL     1     -11.159  10.998  63.735  1.00  0.00    -0.521 OA 
HETATM   17  C   UNL     1     -12.633  13.300  64.715  1.00  0.00    -0.337 C  
HETATM   18  H   UNL     1     -11.368  10.758  62.840  1.00  0.00     0.000 HD 
HETATM   19  C   UNL     1     -11.704  12.943  65.906  1.00  0.00    -0.449 C  
HETATM   20  O   UNL     1     -13.660  12.316  64.618  1.00  0.00    -0.442 OA 
HETATM   21  H   UNL     1     -14.198  12.327  65.402  1.00  0.00     0.000 HD 
BRANCH  19  22
HETATM   22  C   UNL     1     -11.711  14.055  66.972  1.00  0.00    -0.425 C  
BRANCH  22  23
HETATM   23  C   UNL     1     -10.893  13.638  68.198  1.00  0.00    -0.262 C  
BRANCH  23  24
HETATM   24  C   UNL     1     -11.488  14.082  69.539  1.00  0.00    -0.275 C  
HETATM   25  O   UNL     1     -12.582  14.972  69.318  1.00  0.00    -0.576 OA 
HETATM   26  H   UNL     1     -12.951  15.247  70.149  1.00  0.00     0.000 HD 
BRANCH  24  27
HETATM   27  C   UNL     1     -12.030  12.885  70.335  1.00  0.00    -0.329 C  
BRANCH  27  28
HETATM   28  C   UNL     1     -11.607  11.539  69.747  1.00  0.00    -0.401 C  
BRANCH  28  29
HETATM   29  C   UNL     1     -11.784  10.409  70.724  1.00  0.00    -0.464 A  
HETATM   30  C   UNL     1     -10.814   9.401  70.815  1.00  0.00    -0.372 A  
HETATM   31  C   UNL     1     -10.969   8.354  71.722  1.00  0.00    -0.359 A  
HETATM   32  C   UNL     1     -12.095   8.303  72.540  1.00  0.00    -0.400 A  
HETATM   33  C   UNL     1     -13.070   9.296  72.450  1.00  0.00    -0.481 A  
HETATM   34  C   UNL     1     -12.916  10.345  71.542  1.00  0.00    -0.562 A  
ENDBRANCH  28  29
ENDBRANCH  27  28
ENDBRANCH  24  27
ENDBRANCH  23  24
ENDBRANCH  22  23
ENDBRANCH  19  22
ENDBRANCH  12  13
ENDBRANCH  11  12
ENDBRANCH   9  10
ENDBRANCH   8   9
ENDBRANCH   7   8
ENDBRANCH   5   7
ENDBRANCH   4   5
ENDBRANCH   2   4
TORSDOF 14
ENDMDL
