MODEL        3
REMARK 921   NORMALIZED FREE ENERGY PREDICTED BY IDOCK:   -5.42 KCAL/MOL
REMARK 922        TOTAL FREE ENERGY PREDICTED BY IDOCK:  -16.02 KCAL/MOL
REMARK 923 INTER-LIGAND FREE ENERGY PREDICTED BY IDOCK:  -12.29 KCAL/MOL
REMARK 924 INTRA-LIGAND FREE ENERGY PREDICTED BY IDOCK:   -3.73 KCAL/MOL
REMARK 927      BINDING AFFINITY PREDICTED BY RF-SCORE:    0.00 PKD
ROOT
HETATM    1  C   UNL     1     -11.267   6.293  69.389  1.00  0.00    -0.489 C  
HETATM    2  C   UNL     1     -10.783   5.939  70.785  1.00  0.00    -0.344 C  
ENDROOT
BRANCH   2   3
HETATM    3  C   UNL     1     -11.196   7.010  71.790  1.00  0.00    -0.278 C  
BRANCH   3   4
HETATM    4  C   UNL     1     -12.705   7.235  71.790  1.00  0.00    -0.370 C  
BRANCH   4   5
HETATM    5  C   UNL     1     -13.033   8.720  71.954  1.00  0.00    -0.421 C  
BRANCH   5   6
HETATM    6  C   UNL     1     -11.881   9.580  71.452  1.00  0.00    -0.464 C  
BRANCH   6   7
HETATM    7  C   UNL     1     -12.350  10.943  70.939  1.00  0.00    -0.501 C  
BRANCH   7   8
HETATM    8  C   UNL     1     -13.352  11.516  71.934  1.00  0.00    -0.408 C  
BRANCH   8   9
HETATM    9  C   UNL     1     -13.432  13.039  71.927  1.00  0.00    -0.498 C  
BRANCH   9  10
HETATM   10  C   UNL     1     -12.202  13.580  71.191  1.00  0.00    -0.283 C  
BRANCH  10  11
HETATM   11  C   UNL     1     -12.515  14.676  70.184  1.00  0.00    -0.369 C  
BRANCH  11  12
HETATM   12  C   UNL     1     -11.736  14.627  68.857  1.00  0.00    -0.309 C  
BRANCH  12  13
HETATM   13  C   UNL     1     -10.252  15.049  68.946  1.00  0.00    -0.235 C  
BRANCH  13  14
HETATM   14  C   UNL     1      -9.894  16.284  68.112  1.00  0.00    -0.229 C  
HETATM   15  O   UNL     1     -11.001  16.732  67.277  1.00  0.00    -0.195 OA 
HETATM   16  O   UNL     1     -10.681  16.734  64.995  1.00  0.00    -0.692 OA 
HETATM   17  C   UNL     1      -9.046  16.027  66.835  1.00  0.00    -0.251 C  
HETATM   18  C   UNL     1     -10.316  16.537  66.129  1.00  0.00    -0.334 C  
BRANCH  17  19
HETATM   19  C   UNL     1      -7.809  16.873  66.554  1.00  0.00    -0.330 C  
BRANCH  19  20
HETATM   20  C   UNL     1      -7.137  17.292  67.859  1.00  0.00    -0.174 C  
BRANCH  20  21
HETATM   21  C   UNL     1      -7.119  18.815  68.015  1.00  0.00    -0.255 C  
BRANCH  21  22
HETATM   22  C   UNL     1      -7.880  19.496  66.876  1.00  0.00    -0.289 C  
BRANCH  22  23
HETATM   23  C   UNL     1      -9.248  20.004  67.331  1.00  0.00    -0.477 C  
HETATM   24  C   UNL     1     -10.241  20.018  66.177  1.00  0.00    -0.589 C  
ENDBRANCH  22  23
ENDBRANCH  21  22
ENDBRANCH  20  21
ENDBRANCH  19  20
ENDBRANCH  17  19
ENDBRANCH  13  14
ENDBRANCH  12  13
BRANCH  12  25
HETATM   25  O   UNL     1     -11.770  13.296  68.291  1.00  0.00    -0.312 OA 
BRANCH  25  26
HETATM   26  C   UNL     1     -11.965  13.192  66.947  1.00  0.00    -0.362 C  
HETATM   27  O   UNL     1     -12.761  13.845  66.281  1.00  0.00    -0.399 OA 
BRANCH  26  28
HETATM   28  C   UNL     1     -11.032  12.148  66.341  1.00  0.00    -0.288 C  
BRANCH  28  29
HETATM   29  C   UNL     1     -10.166  11.463  67.411  1.00  0.00    -0.221 C  
HETATM   30  C   UNL     1      -9.978   9.085  66.426  1.00  0.00    -0.370 C  
HETATM   31  C   UNL     1      -9.588   9.493  68.847  1.00  0.00    -0.156 C  
HETATM   32  C   UNL     1     -10.386   9.948  67.622  1.00  0.00    -0.275 C  
ENDBRANCH  28  29
BRANCH  28  33
HETATM   33  N   UNL     1     -10.246  12.778  65.281  1.00  0.00    -0.302 N  
HETATM   34  C   UNL     1     -10.368  12.432  63.966  1.00  0.00    -0.409 C  
HETATM   35  O   UNL     1     -11.092  11.550  63.530  1.00  0.00    -0.407 OA 
HETATM   36  H   UNL     1      -9.578  13.507  65.535  1.00  0.00     0.000 HD 
ENDBRANCH  28  33
ENDBRANCH  26  28
ENDBRANCH  25  26
ENDBRANCH  12  25
ENDBRANCH  11  12
ENDBRANCH  10  11
ENDBRANCH   9  10
ENDBRANCH   8   9
ENDBRANCH   7   8
ENDBRANCH   6   7
ENDBRANCH   5   6
ENDBRANCH   4   5
ENDBRANCH   3   4
ENDBRANCH   2   3
TORSDOF 22
ENDMDL
