MODEL       19
REMARK 921   NORMALIZED FREE ENERGY PREDICTED BY IDOCK:   -7.14 KCAL/MOL
REMARK 922        TOTAL FREE ENERGY PREDICTED BY IDOCK:  -13.61 KCAL/MOL
REMARK 923 INTER-LIGAND FREE ENERGY PREDICTED BY IDOCK:  -11.84 KCAL/MOL
REMARK 924 INTRA-LIGAND FREE ENERGY PREDICTED BY IDOCK:   -1.77 KCAL/MOL
REMARK 927      BINDING AFFINITY PREDICTED BY RF-SCORE:    0.00 PKD
ROOT
HETATM    1  C   UNL     1      -9.064  10.674  67.329  1.00  0.00    -0.143 C  
HETATM    2  S   UNL     1     -10.733  11.234  66.916  1.00  0.00    -0.284 SA 
HETATM    3  C   UNL     1     -10.146  12.655  65.967  1.00  0.00    -0.262 C  
HETATM    4  C   UNL     1      -9.056  13.482  66.640  1.00  0.00    -0.182 C  
HETATM    5  CA  UNL     1      -8.280  13.026  67.667  1.00  0.00    -0.171 C  
HETATM    6  CA  UNL     1      -8.955   9.787  68.620  1.00  0.00    -0.130 C  
HETATM    7  O   UNL     1      -7.223  11.211  69.996  1.00  0.00    -0.019 OA 
HETATM    8  N   UNL     1      -8.400  11.725  68.076  1.00  0.00    -0.146 N  
HETATM    9  C   UNL     1      -7.354  13.975  68.409  1.00  0.00    -0.113 C  
HETATM   10  OXT UNL     1      -7.431  15.193  68.335  1.00  0.00    -0.109 OA 
HETATM   11  O   UNL     1      -6.350  13.413  69.111  1.00  0.00    -0.091 OA 
HETATM   12  C   UNL     1      -8.005  10.948  69.112  1.00  0.00    -0.112 C  
ENDROOT
BRANCH   4  13
HETATM   13  C   UNL     1      -9.064  14.909  66.091  1.00  0.00    -0.167 C  
BRANCH  13  14
HETATM   14  S   UNL     1     -10.696  15.659  65.860  1.00  0.00    -0.311 SA 
BRANCH  14  15
HETATM   15  C   UNL     1     -10.493  17.290  66.353  1.00  0.00    -0.263 A  
HETATM   16  N   UNL     1     -10.414  18.362  65.602  1.00  0.00    -0.619 NA 
HETATM   17  C   UNL     1     -10.388  16.868  68.853  1.00  0.00    -0.333 C  
HETATM   18  N   UNL     1     -10.205  19.411  66.467  1.00  0.00    -0.410 NA 
HETATM   19  N   UNL     1     -10.353  17.664  67.659  1.00  0.00    -0.354 NA 
HETATM   20  N   UNL     1     -10.164  18.993  67.725  1.00  0.00    -0.379 NA 
ENDBRANCH  14  15
ENDBRANCH  13  14
ENDBRANCH   4  13
BRANCH   6  21
HETATM   21  N   UNL     1     -10.235   9.598  69.359  1.00  0.00    -0.197 N  
HETATM   22  H   UNL     1     -11.104   9.591  68.825  1.00  0.00     0.000 HD 
HETATM   23  O   UNL     1      -9.302   9.265  71.413  1.00  0.00    -0.263 OA 
HETATM   24  C   UNL     1     -10.309   9.432  70.727  1.00  0.00    -0.298 C  
BRANCH  24  25
HETATM   25  CA  UNL     1     -11.723   9.648  71.333  1.00  0.00    -0.404 C  
BRANCH  25  26
HETATM   26  C   UNL     1     -12.177  11.091  71.164  1.00  0.00    -0.415 A  
HETATM   27  C   UNL     1     -12.108  13.227  69.993  1.00  0.00    -0.385 A  
HETATM   28  C   UNL     1     -13.144  11.626  72.028  1.00  0.00    -0.433 A  
HETATM   29  O   UNL     1     -13.495  15.010  70.657  1.00  0.00    -0.637 OA 
HETATM   30  C   UNL     1     -11.665  11.912  70.141  1.00  0.00    -0.337 A  
HETATM   31  C   UNL     1     -13.593  12.942  71.876  1.00  0.00    -0.382 A  
HETATM   32  H   UNL     1     -13.141  15.547  69.959  1.00  0.00     0.000 HD 
HETATM   33  C   UNL     1     -13.074  13.729  70.854  1.00  0.00    -0.152 A  
ENDBRANCH  25  26
BRANCH  25  34
HETATM   34  N   UNL     1     -12.710   8.749  70.740  1.00  0.00    -0.473 N  
HETATM   35  H   UNL     1     -13.221   9.057  69.912  1.00  0.00     0.000 HD 
BRANCH  34  36
HETATM   36  C   UNL     1     -12.976   7.509  71.252  1.00  0.00    -0.278 C  
HETATM   37  O   UNL     1     -14.122   7.168  71.535  1.00  0.00    -0.395 OA 
BRANCH  36  38
HETATM   38  N   UNL     1     -11.879   6.672  71.414  1.00  0.00    -0.323 N  
HETATM   39  C   UNL     1     -11.372   6.463  72.766  1.00  0.00    -0.191 C  
HETATM   40  N   UNL     1     -10.075   4.546  71.986  1.00  0.00    -0.193 N  
HETATM   41  C   UNL     1     -10.994   5.015  73.008  1.00  0.00    -0.295 C  
HETATM   42  C   UNL     1     -10.338   4.829  70.647  1.00  0.00    -0.114 C  
HETATM   43  O   UNL     1     -11.246   6.504  69.195  1.00  0.00    -0.318 OA 
HETATM   44  C   UNL     1     -11.208   6.071  70.345  1.00  0.00    -0.310 C  
HETATM   45  O   UNL     1      -9.892   4.174  69.713  1.00  0.00    -0.215 OA 
BRANCH  40  46
HETATM   46  C   UNL     1      -9.021   3.598  72.327  1.00  0.00    -0.100 C  
HETATM   47  C   UNL     1      -9.516   2.203  72.655  1.00  0.00    -0.135 C  
ENDBRANCH  40  46
ENDBRANCH  36  38
ENDBRANCH  34  36
ENDBRANCH  25  34
ENDBRANCH  24  25
ENDBRANCH   6  21
TORSDOF 10
ENDMDL
