MODEL        6
REMARK 921   NORMALIZED FREE ENERGY PREDICTED BY IDOCK:   -7.75 KCAL/MOL
REMARK 922        TOTAL FREE ENERGY PREDICTED BY IDOCK:  -14.09 KCAL/MOL
REMARK 923 INTER-LIGAND FREE ENERGY PREDICTED BY IDOCK:  -12.32 KCAL/MOL
REMARK 924 INTRA-LIGAND FREE ENERGY PREDICTED BY IDOCK:   -1.77 KCAL/MOL
REMARK 927      BINDING AFFINITY PREDICTED BY RF-SCORE:    0.00 PKD
ROOT
HETATM    1  C   UNL     1      -8.328  13.934  67.342  1.00  0.00    -0.208 C  
HETATM    2  C   UNL     1      -8.483  15.426  67.534  1.00  0.00    -0.173 A  
HETATM    3  C   UNL     1      -7.569  16.072  68.357  1.00  0.00    -0.145 A  
HETATM    4  C   UNL     1      -7.631  17.440  68.574  1.00  0.00    -0.254 A  
HETATM    5  N   UNL     1      -6.590  18.029  69.300  1.00  0.00    -0.251 NA 
HETATM    6  C   UNL     1      -8.591  18.187  67.864  1.00  0.00    -0.259 A  
HETATM    7  H2  UNL     1      -5.700  17.798  68.858  1.00  0.00     0.000 HD 
HETATM    8  C   UNL     1      -8.639  19.599  67.929  1.00  0.00    -0.360 A  
HETATM    9  H1  UNL     1      -6.636  19.035  69.459  1.00  0.00     0.000 HD 
HETATM   10  C   UNL     1      -9.599  20.338  67.240  1.00  0.00    -0.581 A  
HETATM   11  C   UNL     1     -10.546  19.687  66.473  1.00  0.00    -0.591 A  
HETATM   12  C   UNL     1     -10.522  18.293  66.382  1.00  0.00    -0.387 A  
HETATM   13  C   UNL     1      -9.536  17.516  67.044  1.00  0.00    -0.268 A  
HETATM   14  N   UNL     1      -9.454  16.148  66.898  1.00  0.00    -0.223 NA 
ENDROOT
BRANCH  14  15
HETATM   15  C   UNL     1     -10.392  15.443  65.981  1.00  0.00    -0.324 C  
BRANCH  15  16
HETATM   16  C   UNL     1     -11.525  14.788  66.768  1.00  0.00    -0.343 C  
BRANCH  16  17
HETATM   17  C   UNL     1     -12.389  13.899  65.878  1.00  0.00    -0.517 C  
BRANCH  17  18
HETATM   18  C   UNL     1     -12.066  14.054  64.389  1.00  0.00    -0.486 C  
BRANCH  18  19
HETATM   19  C   UNL     1     -11.429  12.798  63.802  1.00  0.00    -0.533 C  
BRANCH  19  20
HETATM   20  C   UNL     1     -11.488  11.594  64.745  1.00  0.00    -0.225 C  
BRANCH  20  21
HETATM   21  C   UNL     1     -10.154  11.281  65.435  1.00  0.00    -0.314 C  
BRANCH  21  22
HETATM   22  C   UNL     1     -10.309  10.345  66.638  1.00  0.00    -0.292 C  
BRANCH  22  23
HETATM   23  C   UNL     1     -11.227  10.909  67.728  1.00  0.00    -0.384 C  
BRANCH  23  24
HETATM   24  C   UNL     1     -10.510  11.003  69.075  1.00  0.00    -0.216 C  
BRANCH  24  25
HETATM   25  N   UNL     1     -11.379  10.495  70.167  1.00  0.00    -0.302 NA 
HETATM   26  C   UNL     1     -12.214  11.349  70.836  1.00  0.00    -0.344 A  
HETATM   27  C   UNL     1     -13.081  10.851  71.812  1.00  0.00    -0.564 A  
HETATM   28  C   UNL     1     -12.338  12.832  70.565  1.00  0.00    -0.355 C  
HETATM   29  C   UNL     1     -13.102   9.507  72.148  1.00  0.00    -0.436 A  
HETATM   30  N   UNL     1     -14.099   9.078  73.029  1.00  0.00    -1.146 NA 
HETATM   31  C   UNL     1     -12.288   8.628  71.415  1.00  0.00    -0.344 A  
HETATM   32  H1  UNL     1     -14.115   8.089  73.277  1.00  0.00     0.000 HD 
HETATM   33  C   UNL     1     -11.389   9.143  70.440  1.00  0.00    -0.224 A  
HETATM   34  H2  UNL     1     -15.012   9.348  72.662  1.00  0.00     0.000 HD 
HETATM   35  C   UNL     1     -10.545   8.228  69.759  1.00  0.00    -0.228 A  
HETATM   36  C   UNL     1     -10.609   6.855  69.983  1.00  0.00    -0.254 A  
HETATM   37  C   UNL     1     -11.513   6.355  70.901  1.00  0.00    -0.406 A  
HETATM   38  C   UNL     1     -12.334   7.229  71.610  1.00  0.00    -0.387 A  
ENDBRANCH  24  25
ENDBRANCH  23  24
ENDBRANCH  22  23
ENDBRANCH  21  22
ENDBRANCH  20  21
ENDBRANCH  19  20
ENDBRANCH  18  19
ENDBRANCH  17  18
ENDBRANCH  16  17
ENDBRANCH  15  16
ENDBRANCH  14  15
TORSDOF 11
ENDMDL
