MODEL        9
REMARK 921   NORMALIZED FREE ENERGY PREDICTED BY IDOCK:   -6.35 KCAL/MOL
REMARK 922        TOTAL FREE ENERGY PREDICTED BY IDOCK:  -11.59 KCAL/MOL
REMARK 923 INTER-LIGAND FREE ENERGY PREDICTED BY IDOCK:  -10.08 KCAL/MOL
REMARK 924 INTRA-LIGAND FREE ENERGY PREDICTED BY IDOCK:   -1.51 KCAL/MOL
REMARK 927      BINDING AFFINITY PREDICTED BY RF-SCORE:    0.00 PKD
ROOT
HETATM    1  N   UNK A   0     -14.226   8.302  72.460  1.00  0.00    -0.675 NA 
HETATM    2  H1  UNK A   0     -14.316   8.921  73.265  1.00  0.00     0.000 HD 
HETATM    3  C   UNK A   0     -13.006   8.010  71.940  1.00  0.00    -0.312 C  
HETATM    4  H2  UNK A   0     -15.062   7.897  72.040  1.00  0.00     0.000 HD 
HETATM    5  N   UNK A   0     -12.891   7.220  70.914  1.00  0.00    -0.599 N  
HETATM    6  H   UNK A   0     -13.723   6.824  70.476  1.00  0.00     0.000 HD 
HETATM    7  C   UNK A   0     -11.622   6.916  70.414  1.00  0.00    -0.335 C  
HETATM    8  C   UNK A   0     -10.493   7.498  71.145  1.00  0.00    -0.216 A  
HETATM    9  O   UNK A   0     -11.451   6.204  69.433  1.00  0.00    -0.423 OA 
HETATM   10  C   UNK A   0     -10.737   8.321  72.210  1.00  0.00    -0.329 A  
HETATM   11  N   UNK A   0      -9.571   8.728  72.769  1.00  0.00    -0.165 NA 
HETATM   12  N   UNK A   0     -11.979   8.616  72.615  1.00  0.00    -0.287 NA 
HETATM   13  H   UNK A   0      -9.476   9.346  73.575  1.00  0.00     0.000 HD 
HETATM   14  C   UNK A   0      -8.540   8.162  72.057  1.00  0.00    -0.162 A  
HETATM   15  C   UNK A   0      -9.074   7.386  71.034  1.00  0.00    -0.152 A  
ENDROOT
BRANCH  15  16
HETATM   16  C   UNK A   0      -8.298   6.552  70.064  1.00  0.00    -0.134 C  
BRANCH  16  17
HETATM   17  C   UNK A   0      -7.529   7.372  69.015  1.00  0.00    -0.100 C  
BRANCH  17  18
HETATM   18  C   UNK A   0      -8.365   8.461  68.365  1.00  0.00    -0.131 A  
HETATM   19  C   UNK A   0      -8.148   9.816  68.649  1.00  0.00    -0.105 A  
HETATM   20  C   UNK A   0      -9.000  10.797  68.143  1.00  0.00    -0.140 A  
HETATM   21  C   UNK A   0     -10.072  10.441  67.321  1.00  0.00    -0.244 A  
HETATM   22  C   UNK A   0     -10.226   9.111  66.923  1.00  0.00    -0.336 A  
HETATM   23  C   UNK A   0      -9.377   8.126  67.448  1.00  0.00    -0.171 A  
BRANCH  21  24
HETATM   24  C   UNK A   0     -11.080  11.466  66.928  1.00  0.00    -0.295 C  
HETATM   25  O   UNK A   0     -12.157  11.594  67.496  1.00  0.00    -0.611 OA 
ATOM     26  N   GLU A   1     -10.691  12.290  65.890  1.00  0.00    -0.251 N  
ATOM     27  H   GLU A   1      -9.779  12.145  65.456  1.00  0.00     0.000 HD 
BRANCH  26  28
ATOM     28  CA  GLU A   1     -11.548  13.359  65.401  1.00  0.00    -0.314 C  
ATOM     29  C   GLU A   1     -12.318  12.859  64.173  1.00  0.00    -0.376 C  
ATOM     30  O   GLU A   1     -13.496  12.271  64.479  1.00  0.00    -0.686 OA 
ATOM     31  OXT GLU A   1     -11.911  12.961  63.016  1.00  0.00    -0.403 OA 
BRANCH  28  32
ATOM     32  CB  GLU A   1     -10.721  14.602  65.046  1.00  0.00    -0.448 C  
BRANCH  32  33
ATOM     33  CG  GLU A   1     -10.575  15.546  66.238  1.00  0.00    -0.310 C  
ATOM     34  CD  GLU A   1      -9.779  16.766  65.863  1.00  0.00    -0.217 C  
ATOM     35  OE1 GLU A   1     -10.538  17.796  65.431  1.00  0.00    -0.659 OA 
ATOM     36  OE2 GLU A   1      -8.559  16.816  65.909  1.00  0.00    -0.500 OA 
ENDBRANCH  32  33
ENDBRANCH  28  32
ENDBRANCH  26  28
ENDBRANCH  21  24
ENDBRANCH  17  18
ENDBRANCH  16  17
ENDBRANCH  15  16
TORSDOF 7
ENDMDL
