MODEL       30
REMARK 921   NORMALIZED FREE ENERGY PREDICTED BY IDOCK:   -5.25 KCAL/MOL
REMARK 922        TOTAL FREE ENERGY PREDICTED BY IDOCK:   -7.58 KCAL/MOL
REMARK 923 INTER-LIGAND FREE ENERGY PREDICTED BY IDOCK:   -6.86 KCAL/MOL
REMARK 924 INTRA-LIGAND FREE ENERGY PREDICTED BY IDOCK:   -0.72 KCAL/MOL
REMARK 927      BINDING AFFINITY PREDICTED BY RF-SCORE:    0.00 PKD
ROOT
HETATM    1  C   UNL     1     -10.348  18.160  66.281  1.00  0.00    -0.397 C  
HETATM    2  O   UNL     1      -9.726  16.897  66.059  1.00  0.00    -0.393 OA 
ENDROOT
BRANCH   2   3
HETATM    3  C   UNL     1     -10.553  15.829  65.849  1.00  0.00    -0.339 A  
HETATM    4  C   UNL     1     -10.757  14.772  66.734  1.00  0.00    -0.309 A  
HETATM    5  C   UNL     1     -11.623  13.697  66.430  1.00  0.00    -0.375 A  
HETATM    6  C   UNL     1     -12.305  13.724  65.194  1.00  0.00    -0.448 A  
HETATM    7  C   UNL     1     -12.101  14.789  64.307  1.00  0.00    -0.415 A  
HETATM    8  C   UNL     1     -11.229  15.832  64.634  1.00  0.00    -0.373 A  
BRANCH   5   9
HETATM    9  C   UNL     1     -11.816  12.538  67.412  1.00  0.00    -0.312 C  
HETATM   10  O   UNL     1     -11.589  11.276  66.763  1.00  0.00    -0.433 OA 
HETATM   11  H   UNL     1     -11.708  10.557  67.372  1.00  0.00     0.000 HD 
BRANCH   9  12
HETATM   12  C   UNL     1     -10.866  12.574  68.628  1.00  0.00    -0.248 C  
BRANCH  12  13
HETATM   13  N   UNL     1     -11.392  11.978  69.836  1.00  0.00    -0.510 N  
HETATM   14  H   UNL     1     -11.950  12.534  70.484  1.00  0.00     0.000 HD 
HETATM   15  C   UNL     1     -11.131  10.650  70.105  1.00  0.00    -0.268 C  
HETATM   16  O   UNL     1     -10.392   9.956  69.410  1.00  0.00    -0.194 OA 
BRANCH  15  17
HETATM   17  C   UNL     1     -11.856  10.090  71.330  1.00  0.00    -0.385 C  
HETATM   18  N   UNL     1     -13.310  10.319  71.239  1.00  0.00    -0.332 NA 
HETATM   19  H1  UNL     1     -13.793   9.945  72.056  1.00  0.00     0.000 HD 
HETATM   20  H2  UNL     1     -13.694   9.945  70.371  1.00  0.00     0.000 HD 
ENDBRANCH  15  17
ENDBRANCH  12  13
ENDBRANCH   9  12
ENDBRANCH   5   9
BRANCH   6  21
HETATM   21  O   UNL     1     -13.139  12.666  64.942  1.00  0.00    -0.850 OA 
HETATM   22  C   UNL     1     -12.891  11.898  63.768  1.00  0.00    -0.278 C  
ENDBRANCH   6  21
ENDBRANCH   2   3
TORSDOF 6
ENDMDL
