MODEL       44
REMARK 921   NORMALIZED FREE ENERGY PREDICTED BY IDOCK:   -5.76 KCAL/MOL
REMARK 922        TOTAL FREE ENERGY PREDICTED BY IDOCK:  -11.40 KCAL/MOL
REMARK 923 INTER-LIGAND FREE ENERGY PREDICTED BY IDOCK:  -10.33 KCAL/MOL
REMARK 924 INTRA-LIGAND FREE ENERGY PREDICTED BY IDOCK:   -1.07 KCAL/MOL
REMARK 927      BINDING AFFINITY PREDICTED BY RF-SCORE:    0.00 PKD
ROOT
HETATM    1  C   UNL     1      -7.906  19.811  66.314  1.00  0.00    -0.340 C  
HETATM    2  C   UNL     1      -9.190  19.266  66.970  1.00  0.00    -0.357 C  
HETATM    3  C   UNL     1      -9.227  19.735  68.430  1.00  0.00    -0.370 C  
HETATM    4  C   UNL     1     -10.399  19.833  66.210  1.00  0.00    -0.626 C  
ENDROOT
BRANCH   2   5
HETATM    5  C   UNL     1      -9.189  17.734  66.860  1.00  0.00    -0.258 C  
HETATM    6  O   UNL     1      -8.799  17.130  65.865  1.00  0.00    -0.520 OA 
BRANCH   5   7
HETATM    7  O   UNL     1      -9.758  17.121  67.936  1.00  0.00    -0.258 OA 
BRANCH   7   8
HETATM    8  C   UNL     1     -10.945  16.365  67.630  1.00  0.00    -0.225 C  
BRANCH   8   9
HETATM    9  O   UNL     1     -10.688  15.004  67.295  1.00  0.00    -0.285 OA 
HETATM   10  P   UNL     1      -9.790  14.184  68.378  1.00  0.00    -0.216 P  
HETATM   11  C   UNL     1     -10.786  14.162  69.887  1.00  0.00     0.133 C  
HETATM   12  O   UNL     1      -8.399  14.709  68.530  1.00  0.00    -0.149 OA 
HETATM   13  O   UNL     1      -9.917  12.631  67.975  1.00  0.00    -0.207 OA 
BRANCH  13  14
HETATM   14  C   UNL     1      -9.230  12.053  66.903  1.00  0.00    -0.197 C  
BRANCH  14  15
HETATM   15  O   UNL     1     -10.143  11.237  66.131  1.00  0.00    -0.220 OA 
BRANCH  15  16
HETATM   16  C   UNL     1     -11.302  11.844  65.747  1.00  0.00    -0.299 C  
HETATM   17  O   UNL     1     -12.277  11.981  66.477  1.00  0.00    -0.548 OA 
BRANCH  16  18
HETATM   18  C   UNL     1     -11.252  12.332  64.283  1.00  0.00    -0.409 C  
HETATM   19  C   UNL     1     -10.089  11.637  63.547  1.00  0.00    -0.455 C  
HETATM   20  C   UNL     1     -11.015  13.847  64.235  1.00  0.00    -0.219 C  
HETATM   21  C   UNL     1     -12.554  11.985  63.547  1.00  0.00    -0.625 C  
ENDBRANCH  16  18
ENDBRANCH  15  16
ENDBRANCH  14  15
ENDBRANCH  13  14
BRANCH  11  22
HETATM   22  O   UNL     1     -12.015  13.547  69.492  1.00  0.00    -0.311 OA 
BRANCH  22  23
HETATM   23  C   UNL     1     -12.530  12.664  70.468  1.00  0.00    -0.193 C  
BRANCH  23  24
HETATM   24  C   UNL     1     -12.501  11.251  69.903  1.00  0.00    -0.153 C  
BRANCH  24  25
HETATM   25  N   UNL     1     -12.303  10.296  70.962  1.00  0.00    -0.347 NA 
HETATM   26  C   UNL     1     -11.165   9.573  71.155  1.00  0.00    -0.376 A  
HETATM   27  N   UNL     1      -9.979   9.728  70.543  1.00  0.00    -0.248 NA 
HETATM   28  H2  UNL     1     -11.584   6.069  72.873  1.00  0.00     0.000 HD 
HETATM   29  H1  UNL     1     -10.057   5.876  73.453  1.00  0.00     0.000 HD 
HETATM   30  C   UNL     1     -13.271   9.796  71.789  1.00  0.00    -0.436 A  
HETATM   31  N   UNL     1     -12.833   8.763  72.477  1.00  0.00    -0.375 NA 
HETATM   32  C   UNL     1     -11.520   8.597  72.067  1.00  0.00    -0.367 A  
HETATM   33  C   UNL     1     -10.542   7.642  72.377  1.00  0.00    -0.260 A  
HETATM   34  N   UNL     1     -10.770   6.571  73.228  1.00  0.00    -0.271 NA 
HETATM   35  N   UNL     1      -9.315   7.769  71.815  1.00  0.00    -0.137 NA 
HETATM   36  C   UNL     1      -9.106   8.785  70.947  1.00  0.00    -0.208 A  
ENDBRANCH  24  25
ENDBRANCH  23  24
ENDBRANCH  22  23
ENDBRANCH  11  22
ENDBRANCH   8   9
ENDBRANCH   7   8
ENDBRANCH   5   7
ENDBRANCH   2   5
TORSDOF 12
ENDMDL
