MODEL       35
REMARK 921   NORMALIZED FREE ENERGY PREDICTED BY IDOCK:   -6.89 KCAL/MOL
REMARK 922        TOTAL FREE ENERGY PREDICTED BY IDOCK:  -10.99 KCAL/MOL
REMARK 923 INTER-LIGAND FREE ENERGY PREDICTED BY IDOCK:   -9.93 KCAL/MOL
REMARK 924 INTRA-LIGAND FREE ENERGY PREDICTED BY IDOCK:   -1.05 KCAL/MOL
REMARK 927      BINDING AFFINITY PREDICTED BY RF-SCORE:    0.00 PKD
ROOT
HETATM    1  C   UNK A   0     -11.135  16.515  69.224  1.00  0.00    -0.260 C  
HETATM    2  N   UNK A   0     -10.687  16.574  67.912  1.00  0.00    -0.335 N  
HETATM    3  O   UNK A   0     -11.917  15.693  69.694  1.00  0.00    -0.351 OA 
HETATM    4  C   UNK A   0     -11.144  15.575  66.877  1.00  0.00    -0.221 C  
HETATM    5  C   UNK A   0      -9.924  15.136  66.035  1.00  0.00    -0.311 C  
HETATM    6  C   UNK A   0      -8.006  19.454  66.506  1.00  0.00    -0.298 C  
HETATM    7  H   UNK A   0      -8.224  20.418  68.304  1.00  0.00     0.000 HD 
HETATM    8  N   UNK A   0      -9.291  16.328  65.496  1.00  0.00    -0.380 NA 
HETATM    9  H   UNK A   0      -8.961  16.328  64.531  1.00  0.00     0.000 HD 
HETATM   10  H2  UNK A   0      -6.969  21.252  66.609  1.00  0.00     0.000 HD 
HETATM   11  C   UNK A   0      -9.128  17.464  66.272  1.00  0.00    -0.203 C  
HETATM   12  O   UNK A   0     -10.225  19.222  69.157  1.00  0.00    -0.340 OA 
HETATM   13  C   UNK A   0      -9.802  17.581  67.448  1.00  0.00    -0.297 C  
HETATM   14  H1  UNK A   0      -6.751  20.271  65.139  1.00  0.00     0.000 HD 
HETATM   15  C   UNK A   0      -9.556  18.851  68.198  1.00  0.00    -0.338 C  
HETATM   16  N   UNK A   0      -8.254  18.409  65.793  1.00  0.00    -0.451 NA 
HETATM   17  N   UNK A   0      -7.171  20.419  66.057  1.00  0.00    -0.434 NA 
HETATM   18  N   UNK A   0      -8.561  19.650  67.724  1.00  0.00    -0.316 N  
ENDROOT
BRANCH   4  19
HETATM   19  C   UNK A   0     -11.902  14.333  67.395  1.00  0.00    -0.409 C  
BRANCH  19  20
HETATM   20  N   UNK A   0     -11.516  13.112  66.669  1.00  0.00    -0.331 NA 
HETATM   21  H   UNK A   0     -11.366  13.117  65.660  1.00  0.00     0.000 HD 
BRANCH  20  22
HETATM   22  C   UNK A   0     -11.365  11.942  67.422  1.00  0.00    -0.324 A  
HETATM   23  C   UNK A   0     -10.385   9.717  67.591  1.00  0.00    -0.290 A  
HETATM   24  C   UNK A   0     -10.755   9.655  68.939  1.00  0.00    -0.230 A  
HETATM   25  C   UNK A   0     -11.833  11.806  68.735  1.00  0.00    -0.380 A  
HETATM   26  C   UNK A   0     -10.702  10.856  66.839  1.00  0.00    -0.318 A  
HETATM   27  C   UNK A   0     -11.527  10.678  69.494  1.00  0.00    -0.360 A  
BRANCH  24  28
HETATM   28  C   UNK A   0     -10.325   8.507  69.772  1.00  0.00    -0.212 C  
ATOM     29  H   GLU A   1     -12.038   8.687  70.969  1.00  0.00     0.000 HD 
ATOM     30  N   GLU A   1     -11.151   8.199  70.846  1.00  0.00    -0.254 N  
HETATM   31  O   UNK A   0      -9.287   7.906  69.529  1.00  0.00    -0.156 OA 
BRANCH  30  32
ATOM     32  CA  GLU A   1     -10.735   7.160  71.808  1.00  0.00    -0.215 C  
ATOM     33  C   GLU A   1     -11.935   6.248  72.125  1.00  0.00    -0.287 C  
ATOM     34  O   GLU A   1     -13.132   6.855  71.924  1.00  0.00    -0.316 OA 
ATOM     35  OXT GLU A   1     -11.844   5.149  72.655  1.00  0.00    -0.155 OA 
BRANCH  32  36
ATOM     36  CB  GLU A   1     -10.214   7.810  73.099  1.00  0.00    -0.398 C  
BRANCH  36  37
ATOM     37  CG  GLU A   1      -8.916   7.174  73.607  1.00  0.00    -0.214 C  
ATOM     38  CD  GLU A   1      -7.693   7.963  73.212  1.00  0.00    -0.143 C  
ATOM     39  OE2 GLU A   1      -7.702   8.988  72.549  1.00  0.00    -0.338 OA 
ATOM     40  OE1 GLU A   1      -6.555   7.409  73.689  1.00  0.00    -0.067 OA 
ENDBRANCH  36  37
ENDBRANCH  32  36
ENDBRANCH  30  32
ENDBRANCH  24  28
ENDBRANCH  20  22
ENDBRANCH  19  20
ENDBRANCH   4  19
TORSDOF 7
ENDMDL
