MODEL      165
REMARK 921   NORMALIZED FREE ENERGY PREDICTED BY IDOCK:   -0.93 KCAL/MOL
REMARK 922        TOTAL FREE ENERGY PREDICTED BY IDOCK:   -1.45 KCAL/MOL
REMARK 923 INTER-LIGAND FREE ENERGY PREDICTED BY IDOCK:   -4.63 KCAL/MOL
REMARK 924 INTRA-LIGAND FREE ENERGY PREDICTED BY IDOCK:    3.18 KCAL/MOL
REMARK 927      BINDING AFFINITY PREDICTED BY RF-SCORE:    0.00 PKD
ROOT
HETATM    1  F   UNL     1     -12.861  15.607  68.196  1.00  0.00     0.634 F  
HETATM    2  C   UNL     1     -11.562  15.924  68.284  1.00  0.00    -0.272 A  
HETATM    3  C   UNL     1     -10.939  15.911  69.525  1.00  0.00    -0.311 A  
HETATM    4  C   UNL     1      -9.595  16.278  69.624  1.00  0.00     0.007 A  
HETATM    5  C   UNL     1      -8.863  16.657  68.480  1.00  0.00    -0.235 A  
HETATM    6  C   UNL     1      -9.510  16.617  67.231  1.00  0.00    -0.234 A  
HETATM    7  C   UNL     1     -10.857  16.262  67.135  1.00  0.00    -0.190 A  
ENDROOT
BRANCH   5   8
HETATM    8  C   UNL     1      -7.391  17.077  68.612  1.00  0.00    -0.229 C  
BRANCH   8   9
HETATM    9  N   UNL     1      -6.456  15.915  68.488  1.00  0.00    -0.109 NA 
HETATM   10  C   UNL     1      -6.654  15.167  67.217  1.00  0.00     0.066 C  
HETATM   11  C   UNL     1      -6.613  14.932  69.588  1.00  0.00    -0.162 C  
HETATM   12  C   UNL     1      -7.931  14.289  67.154  1.00  0.00    -0.101 C  
HETATM   13  N   UNL     1      -8.137  13.374  68.301  1.00  0.00    -0.147 NA 
HETATM   14  C   UNL     1      -7.933  14.127  69.554  1.00  0.00     0.408 C  
BRANCH  13  15
HETATM   15  C   UNL     1      -7.260  12.191  68.281  1.00  0.00    -0.095 C  
BRANCH  15  16
HETATM   16  C   UNL     1      -7.911  11.004  68.915  1.00  0.00    -0.138 C  
HETATM   17  C   UNL     1      -8.838  10.254  68.300  1.00  0.00    -0.126 C  
BRANCH  17  18
HETATM   18  C   UNL     1      -9.568   9.252  69.068  1.00  0.00    -0.159 A  
HETATM   19  C   UNL     1      -9.562   9.351  70.465  1.00  0.00    -0.330 A  
HETATM   20  C   UNL     1     -10.156   8.355  71.238  1.00  0.00    -0.260 A  
HETATM   21  C   UNL     1     -10.760   7.264  70.615  1.00  0.00    -0.252 A  
HETATM   22  C   UNL     1     -10.778   7.171  69.222  1.00  0.00    -0.231 A  
HETATM   23  C   UNL     1     -10.183   8.166  68.446  1.00  0.00    -0.240 A  
ENDBRANCH  17  18
ENDBRANCH  15  16
ENDBRANCH  13  15
ENDBRANCH   8   9
BRANCH   8  24
HETATM   24  C   UNL     1      -7.064  18.250  67.662  1.00  0.00    -0.202 A  
HETATM   25  C   UNL     1      -6.556  19.029  65.402  1.00  0.00    -0.292 A  
HETATM   26  F   UNL     1      -6.519  21.344  64.951  1.00  0.00    -0.214 F  
HETATM   27  C   UNL     1      -6.752  17.986  66.313  1.00  0.00    -0.282 A  
HETATM   28  C   UNL     1      -6.923  20.636  67.162  1.00  0.00    -0.377 A  
HETATM   29  C   UNL     1      -7.104  19.595  68.082  1.00  0.00    -0.327 A  
HETATM   30  C   UNL     1      -6.660  20.344  65.831  1.00  0.00    -0.235 A  
ENDBRANCH   8  24
ENDBRANCH   5   8
TORSDOF 6
ENDMDL
