MODEL       37
REMARK 921   NORMALIZED FREE ENERGY PREDICTED BY IDOCK:   -4.86 KCAL/MOL
REMARK 922        TOTAL FREE ENERGY PREDICTED BY IDOCK:   -6.87 KCAL/MOL
REMARK 923 INTER-LIGAND FREE ENERGY PREDICTED BY IDOCK:   -6.31 KCAL/MOL
REMARK 924 INTRA-LIGAND FREE ENERGY PREDICTED BY IDOCK:   -0.57 KCAL/MOL
REMARK 927      BINDING AFFINITY PREDICTED BY RF-SCORE:    0.00 PKD
ROOT
HETATM    1 ZN   UNL     1     -11.202   9.286  70.213  1.00  0.00    -0.214 Zn 
HETATM    2  C   UNL     2      -9.774  11.910  68.656  1.00  0.00    -0.108 C  
HETATM    3  O   UNL     2      -9.570  13.233  68.090  1.00  0.00    -0.217 OA 
HETATM    4  C   UNL     3     -10.191  12.956  64.888  1.00  0.00    -0.275 C  
HETATM    5  H   UNL     2     -13.281  13.355  70.328  1.00  0.00     0.000 HD 
HETATM    6  O   UNL     3      -9.996  14.285  64.377  1.00  0.00    -0.062 OA 
HETATM    7  O   UNL     3     -13.301  14.541  65.807  1.00  0.00    -0.425 OA 
HETATM    8  C   UNL     3     -11.665  12.882  65.261  1.00  0.00    -0.364 C  
HETATM    9  C   UNL     2     -10.633  14.046  68.380  1.00  0.00    -0.254 C  
HETATM   10  O   UNL     2     -11.352  11.150  70.295  1.00  0.00    -0.268 OA 
HETATM   11  C   UNL     3     -11.104  15.032  64.673  1.00  0.00    -0.321 C  
HETATM   12  C   UNL     2     -11.561  13.282  69.221  1.00  0.00    -0.314 C  
HETATM   13  O   UNL     2     -12.680  13.849  69.784  1.00  0.00    -0.178 OA 
HETATM   14  O   UNL     2     -10.728  15.234  68.116  1.00  0.00    -0.245 OA 
HETATM   15  C   UNL     2     -11.049  12.061  69.482  1.00  0.00    -0.073 C  
HETATM   16  O   UNL     3     -12.169  11.790  65.647  1.00  0.00    -0.289 OA 
HETATM   17  H   UNL     3     -13.955  13.963  66.184  1.00  0.00     0.000 HD 
HETATM   18  C   UNL     3     -12.111  14.142  65.255  1.00  0.00    -0.405 C  
HETATM   19  O   UNL     3     -11.213  16.227  64.416  1.00  0.00    -0.716 OA 
ENDROOT
BRANCH   2  20
HETATM   20  C   UNL     2      -9.677  10.836  67.513  1.00  0.00    -0.166 C  
HETATM   21  O   UNL     2      -8.333  10.326  67.417  1.00  0.00    -0.117 OA 
HETATM   22  H   UNL     2      -8.275   9.677  66.726  1.00  0.00     0.000 HD 
BRANCH  20  23
HETATM   23  C   UNL     2     -10.575   9.594  67.453  1.00  0.00    -0.268 C  
HETATM   24  H   UNL     2     -10.625   7.699  68.180  1.00  0.00     0.000 HD 
HETATM   25  O   UNL     2     -10.069   8.468  68.217  1.00  0.00    -0.179 OA 
ENDBRANCH  20  23
ENDBRANCH   2  20
BRANCH   4  26
HETATM   26  C   UNL     3      -9.479  11.945  63.962  1.00  0.00     0.047 C  
HETATM   27  H   UNL     3      -8.274  10.312  64.082  1.00  0.00     0.000 HD 
HETATM   28  O   UNL     3      -8.712  10.934  64.651  1.00  0.00    -0.140 OA 
BRANCH  26  29
HETATM   29  C   UNL     3     -10.410  11.315  62.929  1.00  0.00    -0.078 C  
HETATM   30  O   UNL     3      -9.793  10.165  62.339  1.00  0.00    -0.677 OA 
HETATM   31  H   UNL     3     -10.373   9.773  61.696  1.00  0.00     0.000 HD 
ENDBRANCH  26  29
ENDBRANCH   4  26
TORSDOF 4
ENDMDL
