MODEL        3
REMARK 921   NORMALIZED FREE ENERGY PREDICTED BY IDOCK:   -8.93 KCAL/MOL
REMARK 922        TOTAL FREE ENERGY PREDICTED BY IDOCK:  -11.42 KCAL/MOL
REMARK 923 INTER-LIGAND FREE ENERGY PREDICTED BY IDOCK:  -10.38 KCAL/MOL
REMARK 924 INTRA-LIGAND FREE ENERGY PREDICTED BY IDOCK:   -1.03 KCAL/MOL
REMARK 927      BINDING AFFINITY PREDICTED BY RF-SCORE:    0.00 PKD
ROOT
HETATM    1  C   UNL     1      -6.611  21.195  67.289  1.00  0.00    -0.359 C  
HETATM    2  N   UNL     1      -7.450  20.027  67.286  1.00  0.00    -0.264 N  
HETATM    3  C   UNL     1      -7.613  19.263  66.152  1.00  0.00    -0.287 C  
HETATM    4  H   UNL     1      -7.934  19.758  68.142  1.00  0.00     0.000 HD 
HETATM    5  O   UNL     1      -7.060  19.506  65.087  1.00  0.00    -0.407 OA 
ENDROOT
BRANCH   3   6
HETATM    6  C   UNL     1      -8.470  18.061  66.286  1.00  0.00    -0.214 A  
HETATM    7  C   UNL     1      -9.862  18.120  66.247  1.00  0.00    -0.310 A  
HETATM    8  F   UNL     1     -10.496  19.286  66.048  1.00  0.00    -0.449 F  
HETATM    9  C   UNL     1     -10.644  16.976  66.427  1.00  0.00    -0.172 A  
HETATM   10  C   UNL     1     -10.044  15.743  66.684  1.00  0.00    -0.279 A  
HETATM   11  C   UNL     1      -8.639  15.681  66.670  1.00  0.00    -0.330 A  
HETATM   12  C   UNL     1      -7.857  16.822  66.471  1.00  0.00    -0.338 A  
BRANCH  10  13
HETATM   13  N   UNL     1     -10.801  14.560  66.918  1.00  0.00    -0.299 N  
HETATM   14  C   UNL     1     -11.052  13.993  68.193  1.00  0.00    -0.260 C  
HETATM   15  N   UNL     1     -11.198  12.620  68.015  1.00  0.00    -0.247 N  
HETATM   16  S   UNL     1     -11.350  14.912  69.572  1.00  0.00    -0.298 S  
HETATM   17  C   UNL     1     -12.783  14.168  65.477  1.00  0.00    -0.468 C  
HETATM   18  C   UNL     1     -11.503  12.399  66.682  1.00  0.00    -0.370 C  
HETATM   19  C   UNL     1     -10.481  13.433  64.676  1.00  0.00    -0.428 C  
HETATM   20  C   UNL     1     -11.374  13.715  65.887  1.00  0.00    -0.309 C  
HETATM   21  O   UNL     1     -11.890  11.362  66.152  1.00  0.00    -0.218 OA 
BRANCH  15  22
HETATM   22  C   UNL     1     -11.036  11.580  69.002  1.00  0.00    -0.245 A  
HETATM   23  C   UNL     1      -9.692   9.842  70.095  1.00  0.00    -0.255 A  
HETATM   24  C   UNL     1      -9.845  10.856  69.134  1.00  0.00    -0.164 A  
HETATM   25  C   UNL     1     -10.736   9.497  70.958  1.00  0.00    -0.411 A  
HETATM   26  C   UNL     1     -11.928  10.221  70.892  1.00  0.00    -0.473 A  
HETATM   27  C   UNL     1     -10.525   8.412  71.872  1.00  0.00    -0.296 C  
HETATM   28  C   UNL     1     -12.034  11.276  69.947  1.00  0.00    -0.440 A  
HETATM   29  N   UNL     1     -10.324   7.525  72.596  1.00  0.00    -0.235 NA 
HETATM   30  C   UNL     1     -13.134   9.948  71.764  1.00  0.00    -0.452 C  
HETATM   31  F   UNL     1     -14.251   9.721  71.020  1.00  0.00    -0.211 F  
HETATM   32  F   UNL     1     -13.431  11.009  72.564  1.00  0.00    -0.445 F  
HETATM   33  F   UNL     1     -13.021   8.878  72.589  1.00  0.00    -0.450 F  
ENDBRANCH  15  22
ENDBRANCH  10  13
ENDBRANCH   3   6
TORSDOF 3
ENDMDL
