MODEL       36
REMARK 921   NORMALIZED FREE ENERGY PREDICTED BY IDOCK:   -6.36 KCAL/MOL
REMARK 922        TOTAL FREE ENERGY PREDICTED BY IDOCK:  -11.46 KCAL/MOL
REMARK 923 INTER-LIGAND FREE ENERGY PREDICTED BY IDOCK:  -10.78 KCAL/MOL
REMARK 924 INTRA-LIGAND FREE ENERGY PREDICTED BY IDOCK:   -0.68 KCAL/MOL
REMARK 927      BINDING AFFINITY PREDICTED BY RF-SCORE:    0.00 PKD
ROOT
HETATM    1  C   UNL     1     -12.680  10.931  71.353  1.00  0.00    -0.434 C  
HETATM    2  O   UNL     1     -11.796  11.512  70.403  1.00  0.00    -0.346 OA 
ENDROOT
BRANCH   2   3
HETATM    3  C   UNL     1     -11.085  10.666  69.593  1.00  0.00    -0.284 A  
HETATM    4  C   UNL     1     -11.115   9.267  69.690  1.00  0.00    -0.134 A  
HETATM    5  C   UNL     1     -10.387   8.468  68.794  1.00  0.00    -0.233 A  
HETATM    6  C   UNL     1     -10.314  11.279  68.586  1.00  0.00    -0.217 A  
HETATM    7  C   UNL     1      -9.692   9.070  67.744  1.00  0.00    -0.190 A  
HETATM    8  C   UNL     1      -9.672  10.460  67.639  1.00  0.00    -0.191 A  
BRANCH   5   9
HETATM    9  C   UNL     1     -10.356   7.000  69.015  1.00  0.00    -0.200 C  
HETATM   10  N   UNL     1      -9.109   6.466  69.370  1.00  0.00    -0.140 N  
HETATM   11  H   UNL     1      -8.312   7.101  69.388  1.00  0.00     0.000 HD 
HETATM   12  O   UNL     1     -11.363   6.326  68.879  1.00  0.00    -0.373 OA 
BRANCH  10  13
HETATM   13  S   UNL     1      -8.833   4.874  69.764  1.00  0.00    -0.100 S  
HETATM   14  O   UNL     1      -7.410   4.713  69.984  1.00  0.00    -0.052 OA 
HETATM   15  O   UNL     1      -9.506   4.097  68.741  1.00  0.00    -0.151 OA 
BRANCH  13  16
HETATM   16  C   UNL     1      -9.703   4.611  71.297  1.00  0.00    -0.182 A  
HETATM   17  C   UNL     1     -10.119   5.748  72.008  1.00  0.00    -0.225 A  
HETATM   18  C   UNL     1      -9.514   2.060  71.110  1.00  0.00    -0.209 C  
HETATM   19  C   UNL     1     -10.791   5.611  73.221  1.00  0.00    -0.321 A  
HETATM   20  C   UNL     1      -9.950   3.318  71.802  1.00  0.00    -0.192 A  
HETATM   21  C   UNL     1     -11.049   4.341  73.729  1.00  0.00    -0.314 A  
HETATM   22  C   UNL     1     -10.634   3.206  73.026  1.00  0.00    -0.242 A  
ENDBRANCH  13  16
ENDBRANCH  10  13
ENDBRANCH   5   9
BRANCH   6  23
HETATM   23  C   UNL     1     -10.193  12.783  68.463  1.00  0.00    -0.206 C  
BRANCH  23  24
HETATM   24  C   UNL     1     -11.003  13.275  67.289  1.00  0.00    -0.284 A  
HETATM   25  N   UNL     1     -12.248  13.220  65.428  1.00  0.00    -0.428 NA 
HETATM   26  C   UNL     1     -11.650  14.461  65.424  1.00  0.00    -0.347 A  
HETATM   27  C   UNL     1     -10.874  14.522  66.582  1.00  0.00    -0.311 A  
HETATM   28  C   UNL     1     -11.945  12.545  66.582  1.00  0.00    -0.281 A  
HETATM   29  C   UNL     1     -12.997  12.665  64.322  1.00  0.00    -0.110 C  
HETATM   30  C   UNL     1     -10.126  15.694  66.802  1.00  0.00    -0.277 A  
HETATM   31  C   UNL     1     -10.212  16.799  65.948  1.00  0.00    -0.328 A  
HETATM   32  C   UNL     1     -10.970  16.688  64.783  1.00  0.00    -0.123 A  
HETATM   33  C   UNL     1     -11.689  15.516  64.494  1.00  0.00    -0.253 A  
BRANCH  31  34
HETATM   34  N   UNL     1      -9.574  18.030  66.234  1.00  0.00    -0.272 N  
HETATM   35  H   UNL     1      -8.650  18.179  65.831  1.00  0.00     0.000 HD 
HETATM   36  C   UNL     1     -10.089  19.039  67.005  1.00  0.00    -0.364 C  
HETATM   37  O   UNL     1     -11.152  19.034  67.604  1.00  0.00    -0.340 OA 
BRANCH  36  38
HETATM   38  O   UNL     1      -9.246  20.113  67.024  1.00  0.00    -0.345 OA 
BRANCH  38  39
HETATM   39  C   UNL     1      -7.921  19.758  67.427  1.00  0.00    -0.283 C  
HETATM   40  C   UNL     1      -6.948  20.919  67.229  1.00  0.00    -0.436 C  
HETATM   41  C   UNL     1      -5.787  20.541  68.125  1.00  0.00    -0.309 C  
HETATM   42  C   UNL     1      -6.451  19.948  69.364  1.00  0.00    -0.382 C  
HETATM   43  C   UNL     1      -7.834  19.461  68.921  1.00  0.00    -0.370 C  
ENDBRANCH  38  39
ENDBRANCH  36  38
ENDBRANCH  31  34
ENDBRANCH  23  24
ENDBRANCH   6  23
ENDBRANCH   2   3
TORSDOF 9
ENDMDL
