MODEL       26
REMARK 921   NORMALIZED FREE ENERGY PREDICTED BY IDOCK:   -7.62 KCAL/MOL
REMARK 922        TOTAL FREE ENERGY PREDICTED BY IDOCK:  -13.73 KCAL/MOL
REMARK 923 INTER-LIGAND FREE ENERGY PREDICTED BY IDOCK:  -12.14 KCAL/MOL
REMARK 924 INTRA-LIGAND FREE ENERGY PREDICTED BY IDOCK:   -1.60 KCAL/MOL
REMARK 927      BINDING AFFINITY PREDICTED BY RF-SCORE:    0.00 PKD
ROOT
HETATM    1  O   UNL     1     -13.783  14.136  65.281  1.00  0.00    -0.248 OA 
HETATM    2  C   UNL     1     -12.525  13.810  64.890  1.00  0.00    -0.386 C  
HETATM    3  C   UNL     1     -12.416  12.382  64.394  1.00  0.00    -0.520 C  
HETATM    4  O   UNL     1     -11.619  14.627  64.903  1.00  0.00    -0.372 OA 
ENDROOT
BRANCH   3   5
HETATM    5  C   UNL     1     -11.006  11.798  64.478  1.00  0.00    -0.382 C  
HETATM    6  C   UNL     1      -9.937  12.458  63.618  1.00  0.00    -0.199 C  
HETATM    7  C   UNL     1     -10.476  11.110  63.230  1.00  0.00    -0.323 C  
BRANCH   5   8
HETATM    8  C   UNL     1     -10.687  11.242  65.860  1.00  0.00    -0.232 C  
BRANCH   8   9
HETATM    9  S   UNL     1      -9.212  11.846  66.705  1.00  0.00    -0.198 SA 
BRANCH   9  10
HETATM   10  C   UNL     1      -9.773  13.548  67.195  1.00  0.00    -0.244 C  
BRANCH  10  11
HETATM   11  C   UNL     1      -8.625  14.566  67.401  1.00  0.00    -0.213 C  
BRANCH  11  12
HETATM   12  C   UNL     1      -8.610  15.746  66.404  1.00  0.00    -0.346 C  
BRANCH  12  13
HETATM   13  C   UNL     1      -7.762  16.910  66.900  1.00  0.00    -0.252 A  
HETATM   14  C   UNL     1      -6.375  16.635  67.023  1.00  0.00    -0.222 A  
HETATM   15  C   UNL     1      -5.912  18.867  67.734  1.00  0.00    -0.201 A  
HETATM   16  H   UNL     1     -11.074  18.704  65.640  1.00  0.00     0.000 HD 
HETATM   17  C   UNL     1      -5.464  17.591  67.451  1.00  0.00    -0.153 A  
HETATM   18  C   UNL     1      -9.960  20.158  67.329  1.00  0.00    -0.583 C  
HETATM   19  C   UNL     1      -7.267  19.173  67.595  1.00  0.00    -0.246 A  
HETATM   20  C   UNL     1      -8.235  18.219  67.189  1.00  0.00    -0.239 A  
HETATM   21  O   UNL     1     -10.167  18.435  65.719  1.00  0.00    -0.571 OA 
HETATM   22  C   UNL     1     -10.639  17.888  68.010  1.00  0.00    -0.366 C  
HETATM   23  C   UNL     1      -9.709  18.657  67.060  1.00  0.00    -0.308 C  
ENDBRANCH  12  13
ENDBRANCH  11  12
ENDBRANCH  10  11
BRANCH  10  24
HETATM   24  C   UNL     1     -10.771  13.460  68.353  1.00  0.00    -0.271 A  
HETATM   25  C   UNL     1     -12.534  13.203  70.540  1.00  0.00    -0.322 A  
HETATM   26  C   UNL     1     -11.450  14.575  68.867  1.00  0.00    -0.327 A  
HETATM   27  C   UNL     1     -11.000  12.211  68.970  1.00  0.00    -0.255 A  
HETATM   28  C   UNL     1     -12.321  14.447  69.950  1.00  0.00    -0.365 A  
HETATM   29  C   UNL     1     -11.890  12.065  70.048  1.00  0.00    -0.392 A  
BRANCH  29  30
HETATM   30  C   UNL     1     -12.046  10.740  70.670  1.00  0.00    -0.467 C  
HETATM   31  C   UNL     1     -11.030   9.929  71.014  1.00  0.00    -0.360 C  
BRANCH  31  32
HETATM   32  C   UNL     1     -11.168   8.595  71.609  1.00  0.00    -0.309 A  
HETATM   33  N   UNL     1     -10.040   8.118  72.189  1.00  0.00    -0.228 NA 
HETATM   34  C   UNL     1     -10.052   6.875  72.704  1.00  0.00    -0.175 A  
HETATM   35  C   UNL     1     -11.192   6.049  72.647  1.00  0.00    -0.326 A  
HETATM   36  C   UNL     1     -12.343   6.558  72.041  1.00  0.00    -0.308 A  
HETATM   37  C   UNL     1     -11.157   4.746  73.177  1.00  0.00    -0.388 A  
HETATM   38  C   UNL     1      -9.990   4.261  73.760  1.00  0.00    -0.174 A  
HETATM   39  C   UNL     1     -12.330   7.842  71.509  1.00  0.00    -0.340 A  
HETATM   40  C   UNL     1      -8.868   5.081  73.823  1.00  0.00    -0.115 A  
HETATM   41  C   UNL     1      -8.905   6.374  73.301  1.00  0.00    -0.129 A  
HETATM   42 CL   UNL     1      -7.422   4.486  74.542  1.00  0.00    -0.080 Cl 
ENDBRANCH  31  32
ENDBRANCH  29  30
ENDBRANCH  10  24
ENDBRANCH   9  10
ENDBRANCH   8   9
ENDBRANCH   5   8
ENDBRANCH   3   5
TORSDOF 10
ENDMDL
