MODEL       48
REMARK 921   NORMALIZED FREE ENERGY PREDICTED BY IDOCK:   -7.52 KCAL/MOL
REMARK 922        TOTAL FREE ENERGY PREDICTED BY IDOCK:  -11.46 KCAL/MOL
REMARK 923 INTER-LIGAND FREE ENERGY PREDICTED BY IDOCK:  -10.58 KCAL/MOL
REMARK 924 INTRA-LIGAND FREE ENERGY PREDICTED BY IDOCK:   -0.88 KCAL/MOL
REMARK 927      BINDING AFFINITY PREDICTED BY RF-SCORE:    0.00 PKD
ROOT
HETATM    1  O   UNL     1     -10.243  10.094  65.286  1.00  0.00    -0.304 OA 
HETATM    2  C   UNL     1      -9.881  10.622  66.577  1.00  0.00    -0.204 C  
HETATM    3  H   UNL     1     -10.264   9.147  65.356  1.00  0.00     0.000 HD 
ENDROOT
BRANCH   2   4
HETATM    4  C   UNL     1     -10.904  10.141  67.606  1.00  0.00    -0.290 C  
BRANCH   4   5
HETATM    5  O   UNL     1     -10.279  10.064  68.894  1.00  0.00    -0.175 OA 
BRANCH   5   6
HETATM    6  C   UNL     1     -11.055   9.732  69.970  1.00  0.00    -0.267 A  
HETATM    7  O   UNL     1      -9.714   3.808  72.283  1.00  0.00    -0.139 OA 
HETATM    8  O   UNL     1     -11.516   4.518  73.451  1.00  0.00    -0.316 OA 
HETATM    9  C   UNL     1     -11.990  10.611  70.539  1.00  0.00    -0.446 A  
HETATM   10  C   UNL     1     -12.798  10.214  71.604  1.00  0.00    -0.559 A  
HETATM   11  C   UNL     1     -10.567   4.651  72.496  1.00  0.00    -0.179 C  
HETATM   12  C   UNL     1     -12.684   8.930  72.118  1.00  0.00    -0.470 A  
HETATM   13  O   UNL     1     -11.684   6.811  72.174  1.00  0.00    -0.285 OA 
HETATM   14  C   UNL     1     -10.695   5.941  71.766  1.00  0.00    -0.245 C  
HETATM   15  C   UNL     1     -11.747   8.049  71.579  1.00  0.00    -0.284 A  
HETATM   16  C   UNL     1      -9.841   6.180  70.764  1.00  0.00    -0.220 C  
HETATM   17  C   UNL     1     -10.930   8.435  70.507  1.00  0.00    -0.258 A  
HETATM   18  O   UNL     1      -9.170   7.629  69.082  1.00  0.00    -0.142 OA 
HETATM   19  C   UNL     1      -9.929   7.449  70.021  1.00  0.00    -0.185 C  
ENDBRANCH   5   6
ENDBRANCH   4   5
ENDBRANCH   2   4
BRANCH   2  20
HETATM   20  C   UNL     1      -9.848  12.151  66.464  1.00  0.00    -0.218 C  
BRANCH  20  21
HETATM   21  O   UNL     1     -11.121  12.765  66.466  1.00  0.00    -0.270 OA 
BRANCH  21  22
HETATM   22  C   UNL     1     -11.348  13.847  67.285  1.00  0.00    -0.323 A  
HETATM   23  C   UNL     1     -10.233  17.327  65.985  1.00  0.00    -0.314 C  
HETATM   24  C   UNL     1     -10.710  15.947  65.873  1.00  0.00    -0.296 C  
HETATM   25  C   UNL     1     -11.100  15.232  67.125  1.00  0.00    -0.323 A  
HETATM   26  C   UNL     1     -11.277  16.079  68.244  1.00  0.00    -0.350 A  
HETATM   27  C   UNL     1     -10.417  17.984  67.128  1.00  0.00    -0.367 C  
HETATM   28  C   UNL     1     -11.780  15.595  69.458  1.00  0.00    -0.382 A  
HETATM   29  O   UNL     1     -10.984  17.429  68.255  1.00  0.00    -0.317 OA 
HETATM   30  C   UNL     1     -12.098  14.253  69.586  1.00  0.00    -0.396 A  
HETATM   31  C   UNL     1     -10.040  19.422  67.143  1.00  0.00    -0.384 C  
HETATM   32  O   UNL     1     -10.278  20.000  68.339  1.00  0.00    -0.439 OA 
HETATM   33  C   UNL     1     -11.859  13.390  68.520  1.00  0.00    -0.401 A  
HETATM   34  O   UNL     1     -10.841  15.520  64.736  1.00  0.00    -0.430 OA 
HETATM   35  O   UNL     1      -9.578  20.027  66.189  1.00  0.00    -0.402 OA 
ENDBRANCH  21  22
ENDBRANCH  20  21
ENDBRANCH   2  20
TORSDOF 6
ENDMDL
