MODEL       23
REMARK 921   NORMALIZED FREE ENERGY PREDICTED BY IDOCK:   -6.67 KCAL/MOL
REMARK 922        TOTAL FREE ENERGY PREDICTED BY IDOCK:  -13.58 KCAL/MOL
REMARK 923 INTER-LIGAND FREE ENERGY PREDICTED BY IDOCK:  -11.68 KCAL/MOL
REMARK 924 INTRA-LIGAND FREE ENERGY PREDICTED BY IDOCK:   -1.90 KCAL/MOL
REMARK 927      BINDING AFFINITY PREDICTED BY RF-SCORE:    0.00 PKD
ROOT
HETATM    1  C   UNL     1      -9.178  18.161  68.042  1.00  0.00    -0.285 C  
HETATM    2  C   UNL     1     -10.243  19.217  67.810  1.00  0.00    -0.492 C  
HETATM    3  C   UNL     1      -9.481  20.431  67.314  1.00  0.00    -0.431 C  
HETATM    4  O   UNL     1      -8.109  20.067  67.169  1.00  0.00    -0.294 OA 
HETATM    5  C   UNL     1      -8.020  18.650  67.208  1.00  0.00    -0.237 C  
HETATM    6  O   UNL     1      -8.195  18.076  65.913  1.00  0.00    -0.517 OA 
HETATM    7  C   UNL     1      -8.849  16.815  66.089  1.00  0.00    -0.263 C  
HETATM    8  C   UNL     1      -9.451  16.772  67.493  1.00  0.00    -0.237 C  
ENDROOT
BRANCH   8   9
HETATM    9  O   UNL     1     -10.858  16.501  67.382  1.00  0.00    -0.294 OA 
BRANCH   9  10
HETATM   10  C   UNL     1     -11.352  15.546  68.207  1.00  0.00    -0.357 C  
HETATM   11  O   UNL     1     -11.827  15.751  69.311  1.00  0.00    -0.365 OA 
HETATM   12  N   UNL     1     -11.140  14.327  67.632  1.00  0.00    -0.283 N  
HETATM   13  H   UNL     1     -10.827  14.298  66.662  1.00  0.00     0.000 HD 
BRANCH  12  14
HETATM   14  C   UNL     1     -11.341  13.051  68.337  1.00  0.00    -0.291 C  
BRANCH  14  15
HETATM   15  C   UNL     1     -12.024  11.986  67.419  1.00  0.00    -0.125 C  
BRANCH  15  16
HETATM   16  C   UNL     1     -11.678  12.049  65.940  1.00  0.00    -0.312 A  
HETATM   17  C   UNL     1     -10.560  11.367  65.441  1.00  0.00    -0.333 A  
HETATM   18  C   UNL     1     -12.444  12.819  65.050  1.00  0.00    -0.572 A  
HETATM   19  C   UNL     1     -10.215  11.457  64.090  1.00  0.00    -0.376 A  
HETATM   20  C   UNL     1     -10.989  12.220  63.217  1.00  0.00    -0.373 A  
HETATM   21  C   UNL     1     -12.109  12.895  63.696  1.00  0.00    -0.611 A  
ENDBRANCH  15  16
ENDBRANCH  14  15
BRANCH  14  22
HETATM   22  C   UNL     1     -10.039  12.467  68.966  1.00  0.00     0.158 C  
HETATM   23  O   UNL     1      -8.878  13.110  68.423  1.00  0.00    -0.230 OA 
HETATM   24  H   UNL     1      -8.085  12.754  68.807  1.00  0.00     0.000 HD 
BRANCH  22  25
HETATM   25  C   UNL     1      -9.867  10.934  68.976  1.00  0.00    -0.180 C  
BRANCH  25  26
HETATM   26  N   UNL     1     -10.066  10.163  70.277  1.00  0.00    -0.167 N  
BRANCH  26  27
HETATM   27  C   UNL     1     -11.459   9.537  70.336  1.00  0.00    -0.242 C  
HETATM   28  C   UNL     1     -12.434   9.973  71.450  1.00  0.00    -0.510 C  
HETATM   29  C   UNL     1     -12.819  11.450  71.399  1.00  0.00    -0.502 C  
HETATM   30  C   UNL     1     -13.732   9.151  71.335  1.00  0.00    -0.326 C  
ENDBRANCH  26  27
BRANCH  26  31
HETATM   31  S   UNL     1      -8.790   8.956  70.435  1.00  0.00    -0.201 S  
HETATM   32  O   UNL     1      -8.538   8.374  69.141  1.00  0.00    -0.131 OA 
HETATM   33  O   UNL     1      -7.731   9.582  71.206  1.00  0.00    -0.322 OA 
BRANCH  31  34
HETATM   34  C   UNL     1      -9.508   7.674  71.460  1.00  0.00    -0.143 A  
HETATM   35  C   UNL     1     -10.584   5.519  71.678  1.00  0.00    -0.294 A  
HETATM   36  C   UNL     1      -9.959   6.489  70.879  1.00  0.00    -0.204 A  
HETATM   37  C   UNL     1     -10.804   5.738  73.043  1.00  0.00    -0.271 A  
HETATM   38  N   UNL     1     -11.330   4.726  73.847  1.00  0.00    -0.368 NA 
HETATM   39  C   UNL     1     -10.270   6.891  73.623  1.00  0.00    -0.372 A  
HETATM   40  H1  UNL     1     -11.490   4.885  74.842  1.00  0.00     0.000 HD 
HETATM   41  C   UNL     1      -9.638   7.867  72.840  1.00  0.00    -0.329 A  
HETATM   42  H2  UNL     1     -10.741   3.899  73.748  1.00  0.00     0.000 HD 
ENDBRANCH  31  34
ENDBRANCH  26  31
ENDBRANCH  25  26
ENDBRANCH  22  25
ENDBRANCH  14  22
ENDBRANCH  12  14
ENDBRANCH   9  10
ENDBRANCH   8   9
TORSDOF 11
ENDMDL
