MODEL      157
REMARK 921   NORMALIZED FREE ENERGY PREDICTED BY IDOCK:   -5.78 KCAL/MOL
REMARK 922        TOTAL FREE ENERGY PREDICTED BY IDOCK:  -11.65 KCAL/MOL
REMARK 923 INTER-LIGAND FREE ENERGY PREDICTED BY IDOCK:  -10.73 KCAL/MOL
REMARK 924 INTRA-LIGAND FREE ENERGY PREDICTED BY IDOCK:   -0.92 KCAL/MOL
REMARK 927      BINDING AFFINITY PREDICTED BY RF-SCORE:    0.00 PKD
ROOT
HETATM    1 CA   UNL     1      -9.442  14.796  69.807  1.00  0.00    -0.254 Ca 
HETATM    2  O   UNL     2     -10.115   9.148  69.048  1.00  0.00    -0.179 OA 
HETATM    3  O   UNL     3     -10.774  20.185  66.852  1.00  0.00    -0.331 OA 
HETATM    4  H   UNL     2      -9.242   8.886  68.777  1.00  0.00     0.000 HD 
HETATM    5  C   UNL     2     -10.139  10.565  69.218  1.00  0.00    -0.224 C  
HETATM    6  C   UNL     3      -9.720  19.243  67.031  1.00  0.00    -0.328 C  
HETATM    7  H   UNL     3     -10.467  21.062  67.048  1.00  0.00     0.000 HD 
ENDROOT
BRANCH   5   8
HETATM    8  C   UNL     2     -11.555  10.990  69.659  1.00  0.00    -0.318 C  
HETATM    9  O   UNL     2     -12.490  10.432  68.742  1.00  0.00    -0.593 OA 
HETATM   10  H   UNL     2     -13.362  10.694  69.014  1.00  0.00     0.000 HD 
BRANCH   8  11
HETATM   11  C   UNL     2     -11.887  10.458  71.062  1.00  0.00    -0.361 C  
HETATM   12  H   UNL     2     -12.937  11.024  72.680  1.00  0.00     0.000 HD 
HETATM   13  O   UNL     2     -12.732  11.353  71.812  1.00  0.00    -0.348 OA 
BRANCH  11  14
HETATM   14  C   UNL     2     -12.421   9.013  71.225  1.00  0.00    -0.289 C  
HETATM   15  O   UNL     2     -13.714   9.036  71.809  1.00  0.00    -0.390 OA 
HETATM   16  H   UNL     2     -14.042   8.150  71.909  1.00  0.00     0.000 HD 
BRANCH  14  17
HETATM   17  C   UNL     2     -11.466   7.950  71.799  1.00  0.00    -0.269 C  
HETATM   18  H   UNL     2     -11.269   7.051  73.522  1.00  0.00     0.000 HD 
HETATM   19  O   UNL     2     -11.859   7.707  73.168  1.00  0.00    -0.096 OA 
BRANCH  17  20
HETATM   20  C   UNL     2     -11.355   6.650  71.002  1.00  0.00    -0.315 C  
HETATM   21  O   UNL     2     -12.028   6.751  69.728  1.00  0.00    -0.654 OA 
HETATM   22  C   UNL     2      -9.843   6.371  70.771  1.00  0.00    -0.184 C  
HETATM   23  H   UNL     2     -11.959   5.944  69.233  1.00  0.00     0.000 HD 
HETATM   24  O   UNL     2      -9.112   6.632  71.763  1.00  0.00    -0.145 OA 
HETATM   25  O   UNL     2      -9.584   5.951  69.612  1.00  0.00    -0.143 OA 
ENDBRANCH  17  20
ENDBRANCH  14  17
ENDBRANCH  11  14
ENDBRANCH   8  11
ENDBRANCH   5   8
BRANCH   6  26
HETATM   26  C   UNL     3     -10.218  17.826  66.714  1.00  0.00    -0.351 C  
HETATM   27  H   UNL     3      -9.701  16.460  65.469  1.00  0.00     0.000 HD 
HETATM   28  O   UNL     3      -9.393  17.337  65.664  1.00  0.00    -0.506 OA 
BRANCH  26  29
HETATM   29  C   UNL     3     -10.222  16.910  67.967  1.00  0.00    -0.310 C  
HETATM   30  O   UNL     3     -10.470  17.748  69.181  1.00  0.00    -0.426 OA 
HETATM   31  H   UNL     3     -10.472  17.187  69.948  1.00  0.00     0.000 HD 
BRANCH  29  32
HETATM   32  C   UNL     3     -11.392  15.904  68.014  1.00  0.00    -0.284 C  
HETATM   33  H   UNL     3     -12.616  15.265  69.419  1.00  0.00     0.000 HD 
HETATM   34  O   UNL     3     -11.895  15.883  69.390  1.00  0.00    -0.362 OA 
BRANCH  32  35
HETATM   35  C   UNL     3     -11.416  14.543  67.301  1.00  0.00    -0.365 C  
HETATM   36  H   UNL     3     -11.983  12.760  67.790  1.00  0.00     0.000 HD 
HETATM   37  O   UNL     3     -11.968  13.602  68.231  1.00  0.00    -0.354 OA 
BRANCH  35  38
HETATM   38  C   UNL     3     -12.112  14.492  65.945  1.00  0.00    -0.280 C  
HETATM   39  C   UNL     3     -12.353  13.023  65.509  1.00  0.00    -0.472 C  
HETATM   40  O   UNL     3     -11.320  15.148  64.935  1.00  0.00    -0.385 OA 
HETATM   41  O   UNL     3     -12.025  12.130  66.352  1.00  0.00    -0.611 OA 
HETATM   42  O   UNL     3     -12.624  12.896  64.283  1.00  0.00    -0.604 OA 
HETATM   43  H   UNL     3     -11.753  15.116  64.090  1.00  0.00     0.000 HD 
ENDBRANCH  35  38
ENDBRANCH  32  35
ENDBRANCH  29  32
ENDBRANCH  26  29
ENDBRANCH   6  26
TORSDOF 10
ENDMDL
