MODEL       40
REMARK 921   NORMALIZED FREE ENERGY PREDICTED BY IDOCK:   -6.36 KCAL/MOL
REMARK 922        TOTAL FREE ENERGY PREDICTED BY IDOCK:   -9.44 KCAL/MOL
REMARK 923 INTER-LIGAND FREE ENERGY PREDICTED BY IDOCK:   -8.82 KCAL/MOL
REMARK 924 INTRA-LIGAND FREE ENERGY PREDICTED BY IDOCK:   -0.62 KCAL/MOL
REMARK 927      BINDING AFFINITY PREDICTED BY RF-SCORE:    0.00 PKD
ROOT
HETATM    1  C   UNL     1     -12.027  15.481  70.058  1.00  0.00    -0.364 C  
HETATM    2  O   UNL     1     -11.638  15.720  68.707  1.00  0.00    -0.363 OA 
ENDROOT
BRANCH   2   3
HETATM    3  C   UNL     1     -11.568  14.622  67.884  1.00  0.00    -0.348 A  
HETATM    4  C   UNL     1     -11.801  13.333  68.396  1.00  0.00    -0.395 A  
HETATM    5  C   UNL     1     -11.767  12.196  67.591  1.00  0.00    -0.316 A  
HETATM    6  C   UNL     1     -11.449  12.378  66.248  1.00  0.00    -0.423 A  
HETATM    7  C   UNL     1     -11.304  14.798  66.507  1.00  0.00    -0.344 A  
HETATM    8  C   UNL     1     -11.244  13.651  65.689  1.00  0.00    -0.297 A  
BRANCH   5   9
HETATM    9  N   UNL     1     -11.903  10.940  68.196  1.00  0.00    -0.753 NA 
HETATM   10  H   UNL     1     -12.820  10.587  68.473  1.00  0.00     0.000 HD 
BRANCH   9  11
HETATM   11  C   UNL     1     -10.698  10.149  68.421  1.00  0.00    -0.230 C  
BRANCH  11  12
HETATM   12  C   UNL     1     -10.794   9.256  69.648  1.00  0.00    -0.228 A  
HETATM   13  C   UNL     1     -10.659   7.849  69.520  1.00  0.00    -0.220 A  
HETATM   14  H2  UNL     1      -9.130   5.271  69.358  1.00  0.00     0.000 HD 
HETATM   15  C   UNL     1     -10.669   7.003  70.697  1.00  0.00    -0.255 A  
HETATM   16  H1  UNL     1      -9.794   3.834  69.793  1.00  0.00     0.000 HD 
HETATM   17  C   UNL     1     -10.514   7.232  68.146  1.00  0.00    -0.244 C  
HETATM   18  C   UNL     1     -10.929   7.585  71.946  1.00  0.00    -0.235 A  
HETATM   19  N   UNL     1     -11.036   6.893  73.084  1.00  0.00    -0.282 NA 
HETATM   20  C   UNL     1     -11.073   8.956  72.039  1.00  0.00    -0.421 A  
HETATM   21  C   UNL     1     -10.983   9.790  70.926  1.00  0.00    -0.411 A  
HETATM   22  C   UNL     1     -10.859   5.578  73.023  1.00  0.00    -0.274 A  
HETATM   23  N   UNL     1     -10.508   4.909  71.932  1.00  0.00    -0.192 NA 
HETATM   24  N   UNL     1     -11.010   4.857  74.188  1.00  0.00    -0.373 NA 
HETATM   25  C   UNL     1     -10.416   5.614  70.795  1.00  0.00    -0.265 A  
HETATM   26  H2  UNL     1     -11.249   5.317  75.067  1.00  0.00     0.000 HD 
HETATM   27  H1  UNL     1     -10.875   3.848  74.141  1.00  0.00     0.000 HD 
HETATM   28  N   UNL     1      -9.976   4.835  69.722  1.00  0.00    -0.229 NA 
ENDBRANCH  11  12
ENDBRANCH   9  11
ENDBRANCH   5   9
BRANCH   8  29
HETATM   29  O   UNL     1     -10.988  13.558  64.343  1.00  0.00    -0.378 OA 
HETATM   30  C   UNL     1     -11.971  13.028  63.469  1.00  0.00    -0.545 C  
ENDBRANCH   8  29
BRANCH   7  31
HETATM   31  O   UNL     1     -11.076  15.993  65.879  1.00  0.00    -0.167 OA 
HETATM   32  C   UNL     1      -9.800  16.606  65.926  1.00  0.00    -0.273 C  
ENDBRANCH   7  31
ENDBRANCH   2   3
TORSDOF 6
ENDMDL
