MODEL       51
REMARK 921   NORMALIZED FREE ENERGY PREDICTED BY IDOCK:   -5.66 KCAL/MOL
REMARK 922        TOTAL FREE ENERGY PREDICTED BY IDOCK:  -10.54 KCAL/MOL
REMARK 923 INTER-LIGAND FREE ENERGY PREDICTED BY IDOCK:   -9.27 KCAL/MOL
REMARK 924 INTRA-LIGAND FREE ENERGY PREDICTED BY IDOCK:   -1.27 KCAL/MOL
REMARK 927      BINDING AFFINITY PREDICTED BY RF-SCORE:    0.00 PKD
ROOT
HETATM    1  C   UNL     1     -11.240  16.432  64.567  1.00  0.00    -0.136 C  
HETATM    2  C   UNL     1     -10.524  16.326  65.905  1.00  0.00    -0.345 C  
ENDROOT
BRANCH   2   3
HETATM    3  O   UNL     1      -9.246  16.921  65.710  1.00  0.00    -0.527 OA 
BRANCH   3   4
HETATM    4  C   UNL     1      -8.751  17.822  66.603  1.00  0.00    -0.261 A  
HETATM    5  C   UNL     1      -8.908  19.208  66.465  1.00  0.00    -0.348 A  
HETATM    6  C   UNL     1      -8.355  20.090  67.397  1.00  0.00    -0.382 A  
HETATM    7  C   UNL     1      -7.637  19.595  68.484  1.00  0.00    -0.372 A  
HETATM    8  C   UNL     1      -7.485  18.218  68.639  1.00  0.00    -0.308 A  
HETATM    9  C   UNL     1      -8.039  17.320  67.713  1.00  0.00    -0.198 A  
BRANCH   9  10
HETATM   10  O   UNL     1      -7.793  16.008  68.046  1.00  0.00    -0.133 OA 
BRANCH  10  11
HETATM   11  C   UNL     1      -8.262  15.535  69.308  1.00  0.00    -0.255 C  
BRANCH  11  12
HETATM   12  C   UNL     1      -9.796  15.565  69.333  1.00  0.00    -0.283 C  
BRANCH  12  13
HETATM   13  N   UNL     1     -10.439  14.491  70.107  1.00  0.00    -0.373 NA 
HETATM   14  H   UNL     1     -10.526  14.769  71.085  1.00  0.00     0.000 HD 
BRANCH  13  15
HETATM   15  C   UNL     1     -11.744  14.032  69.595  1.00  0.00    -0.311 C  
HETATM   16  C   UNL     1     -12.824  14.643  70.502  1.00  0.00    -0.371 C  
BRANCH  15  17
HETATM   17  C   UNL     1     -11.878  12.484  69.526  1.00  0.00    -0.375 C  
BRANCH  17  18
HETATM   18  C   UNL     1     -11.292  11.926  68.248  1.00  0.00    -0.335 A  
HETATM   19  C   UNL     1     -11.498  12.602  67.041  1.00  0.00    -0.406 A  
HETATM   20  C   UNL     1     -11.169  11.991  65.824  1.00  0.00    -0.334 A  
HETATM   21  C   UNL     1     -10.525  10.747  65.801  1.00  0.00    -0.188 A  
HETATM   22  C   UNL     1     -10.637  10.694  68.230  1.00  0.00    -0.227 A  
HETATM   23  C   UNL     1     -10.238  10.120  67.018  1.00  0.00    -0.290 A  
BRANCH  20  24
HETATM   24  S   UNL     1     -11.675  12.723  64.286  1.00  0.00    -0.415 S  
HETATM   25  O   UNL     1     -10.489  13.160  63.587  1.00  0.00    -0.219 OA 
HETATM   26  N   UNL     1     -12.274  11.442  63.377  1.00  0.00    -0.691 N  
HETATM   27  O   UNL     1     -12.822  13.566  64.532  1.00  0.00    -0.645 OA 
HETATM   28  H1  UNL     1     -12.564  11.862  62.495  1.00  0.00     0.000 HD 
HETATM   29  H2  UNL     1     -12.334  10.461  63.648  1.00  0.00     0.000 HD 
ENDBRANCH  20  24
BRANCH  21  30
HETATM   30  O   UNL     1     -10.221  10.223  64.576  1.00  0.00    -0.314 OA 
HETATM   31  C   UNL     1      -8.866  10.265  64.148  1.00  0.00    -0.222 C  
ENDBRANCH  21  30
ENDBRANCH  17  18
ENDBRANCH  15  17
ENDBRANCH  13  15
ENDBRANCH  12  13
ENDBRANCH  11  12
ENDBRANCH  10  11
ENDBRANCH   9  10
ENDBRANCH   3   4
ENDBRANCH   2   3
TORSDOF 11
ENDMDL
