MODEL        5
REMARK 921   NORMALIZED FREE ENERGY PREDICTED BY IDOCK:   -6.16 KCAL/MOL
REMARK 922        TOTAL FREE ENERGY PREDICTED BY IDOCK:   -8.36 KCAL/MOL
REMARK 923 INTER-LIGAND FREE ENERGY PREDICTED BY IDOCK:   -7.44 KCAL/MOL
REMARK 924 INTRA-LIGAND FREE ENERGY PREDICTED BY IDOCK:   -0.92 KCAL/MOL
REMARK 927      BINDING AFFINITY PREDICTED BY RF-SCORE:    0.00 PKD
ROOT
HETATM    1  N   UNL     1      -8.478  15.185  69.542  1.00  0.00    -0.403 N  
HETATM    2  H2  UNL     1      -8.359  14.534  70.317  1.00  0.00     0.000 HD 
HETATM    3  C   UNL     1      -9.668  15.838  69.371  1.00  0.00    -0.286 C  
HETATM    4  C   UNL     2     -10.149  11.870  68.488  1.00  0.00    -0.206 C  
HETATM    5  H1  UNL     1      -7.710  15.353  68.892  1.00  0.00     0.000 HD 
HETATM    6  O   UNL     2      -8.728  11.770  68.743  1.00  0.00    -0.330 OA 
HETATM    7  H   UNL     2      -8.410  12.625  69.011  1.00  0.00     0.000 HD 
HETATM    8  O   UNL     1     -10.590  15.637  70.152  1.00  0.00    -0.309 OA 
ENDROOT
BRANCH   4   9
HETATM    9  C   UNL     2     -10.660  10.496  68.056  1.00  0.00    -0.214 C  
HETATM   10  O   UNL     2     -12.087  10.476  68.158  1.00  0.00    -0.756 OA 
HETATM   11  H   UNL     2     -12.405   9.622  67.890  1.00  0.00     0.000 HD 
ENDBRANCH   4   9
BRANCH   3  12
HETATM   12  C   UNL     1      -9.829  16.729  68.195  1.00  0.00    -0.264 A  
HETATM   13  C   UNL     1      -9.294  16.315  66.980  1.00  0.00    -0.221 A  
HETATM   14  C   UNL     1     -10.573  18.721  67.058  1.00  0.00    -0.483 A  
HETATM   15  C   UNL     1     -10.469  17.970  68.229  1.00  0.00    -0.355 A  
HETATM   16  C   UNL     1     -10.025  18.211  65.892  1.00  0.00    -0.097 A  
HETATM   17  N   UNL     1      -9.377  17.030  65.828  1.00  0.00    -0.528 NA 
ENDBRANCH   3  12
BRANCH   4  18
HETATM   18  C   UNL     2     -10.393  12.990  67.473  1.00  0.00    -0.224 C  
HETATM   19  O   UNL     2     -10.846  13.441  64.088  1.00  0.00    -0.390 OA 
HETATM   20  C   UNL     2     -10.940  13.307  65.293  1.00  0.00    -0.291 C  
HETATM   21  C   UNL     2     -11.755  13.557  67.368  1.00  0.00    -0.380 C  
HETATM   22  O   UNL     2     -13.161  14.461  65.630  1.00  0.00    -0.569 OA 
HETATM   23  O   UNL     2     -10.068  12.648  66.114  1.00  0.00    -0.247 OA 
HETATM   24  H   UNL     2     -13.883  14.789  66.153  1.00  0.00     0.000 HD 
HETATM   25  O   UNL     2     -12.510  13.854  68.465  1.00  0.00    -0.442 OA 
HETATM   26  C   UNL     2     -12.057  13.813  66.103  1.00  0.00    -0.441 C  
HETATM   27  H   UNL     2     -13.385  14.218  68.397  1.00  0.00     0.000 HD 
ENDBRANCH   4  18
TORSDOF 3
ENDMDL
