MODEL       45
REMARK 921   NORMALIZED FREE ENERGY PREDICTED BY IDOCK:   -7.00 KCAL/MOL
REMARK 922        TOTAL FREE ENERGY PREDICTED BY IDOCK:  -11.59 KCAL/MOL
REMARK 923 INTER-LIGAND FREE ENERGY PREDICTED BY IDOCK:  -10.14 KCAL/MOL
REMARK 924 INTRA-LIGAND FREE ENERGY PREDICTED BY IDOCK:   -1.46 KCAL/MOL
REMARK 927      BINDING AFFINITY PREDICTED BY RF-SCORE:    0.00 PKD
ROOT
HETATM    1  C   UNL     1     -12.212  11.306  68.140  1.00  0.00     0.256 C  
HETATM    2  C   UNL     1     -10.842  11.553  68.788  1.00  0.00    -0.216 C  
ENDROOT
BRANCH   2   3
HETATM    3  C   UNL     1     -10.417  10.441  69.763  1.00  0.00    -0.284 A  
HETATM    4  C   UNL     1     -11.354   9.717  70.525  1.00  0.00    -0.382 A  
HETATM    5  C   UNL     1      -9.056  10.128  69.930  1.00  0.00    -0.110 A  
HETATM    6  F   UNL     1     -12.913   7.333  71.433  1.00  0.00    -0.362 F  
HETATM    7  F   UNL     1     -11.506   7.031  73.063  1.00  0.00    -0.272 F  
HETATM    8  C   UNL     1      -8.637   9.126  70.830  1.00  0.00    -0.265 A  
HETATM    9  C   UNL     1      -7.172   8.808  71.027  1.00  0.00    -0.088 C  
HETATM   10  C   UNL     1      -9.601   8.424  71.573  1.00  0.00    -0.273 A  
HETATM   11  F   UNL     1     -12.750   8.812  73.018  1.00  0.00    -0.405 F  
HETATM   12  F   UNL     1      -6.340   9.537  70.232  1.00  0.00    -0.042 F  
HETATM   13  F   UNL     1      -6.759   9.028  72.305  1.00  0.00    -0.077 F  
HETATM   14  F   UNL     1      -6.884   7.502  70.764  1.00  0.00    -0.045 F  
HETATM   15  C   UNL     1     -12.016   7.980  72.229  1.00  0.00    -0.358 C  
HETATM   16  C   UNL     1     -10.963   8.714  71.430  1.00  0.00    -0.341 A  
ENDBRANCH   2   3
BRANCH   2  17
HETATM   17  O   UNL     1     -10.682  12.912  69.266  1.00  0.00    -0.086 OA 
BRANCH  17  18
HETATM   18  C   UNL     1     -11.800  13.787  69.060  1.00  0.00    -0.357 C  
HETATM   19  C   UNL     1     -10.901  16.481  69.553  1.00  0.00    -0.315 C  
HETATM   20  C   UNL     1     -11.015  15.373  70.595  1.00  0.00    -0.319 C  
HETATM   21  O   UNL     1     -12.101  14.496  70.271  1.00  0.00    -0.283 OA 
HETATM   22  N   UNL     1     -10.656  15.978  68.171  1.00  0.00    -0.275 NA 
HETATM   23  C   UNL     1     -11.659  14.878  67.894  1.00  0.00    -0.344 C  
BRANCH  22  24
HETATM   24  C   UNL     1     -10.860  17.111  67.225  1.00  0.00    -0.118 C  
BRANCH  24  25
HETATM   25  C   UNL     1      -9.545  17.671  66.734  1.00  0.00    -0.294 C  
HETATM   26  N   UNL     1      -9.111  18.876  67.148  1.00  0.00    -0.283 NA 
HETATM   27  N   UNL     1      -8.739  17.062  65.907  1.00  0.00    -0.533 NA 
HETATM   28  O   UNL     1      -7.146  20.009  66.707  1.00  0.00    -0.219 OA 
HETATM   29  C   UNL     1      -7.896  19.063  66.564  1.00  0.00    -0.268 C  
HETATM   30  N   UNL     1      -7.689  17.934  65.780  1.00  0.00    -0.551 NA 
HETATM   31  H   UNL     1      -8.862  16.152  65.463  1.00  0.00     0.000 HD 
ENDBRANCH  24  25
ENDBRANCH  22  24
BRANCH  23  32
HETATM   32  C   UNL     1     -11.568  14.304  66.477  1.00  0.00    -0.390 A  
HETATM   33  C   UNL     1     -11.304  13.001  63.995  1.00  0.00    -0.410 A  
HETATM   34  F   UNL     1     -11.190  12.349  62.833  1.00  0.00    -0.391 F  
HETATM   35  C   UNL     1     -12.697  14.032  65.692  1.00  0.00    -0.515 A  
HETATM   36  C   UNL     1     -10.170  13.284  64.740  1.00  0.00    -0.323 A  
HETATM   37  C   UNL     1     -12.565  13.379  64.457  1.00  0.00    -0.286 A  
HETATM   38  C   UNL     1     -10.300  13.935  65.970  1.00  0.00    -0.310 A  
ENDBRANCH  23  32
ENDBRANCH  17  18
ENDBRANCH   2  17
TORSDOF 6
ENDMDL
