MODEL       19
REMARK 921   NORMALIZED FREE ENERGY PREDICTED BY IDOCK:   -6.60 KCAL/MOL
REMARK 922        TOTAL FREE ENERGY PREDICTED BY IDOCK:  -11.39 KCAL/MOL
REMARK 923 INTER-LIGAND FREE ENERGY PREDICTED BY IDOCK:  -10.15 KCAL/MOL
REMARK 924 INTRA-LIGAND FREE ENERGY PREDICTED BY IDOCK:   -1.24 KCAL/MOL
REMARK 927      BINDING AFFINITY PREDICTED BY RF-SCORE:    0.00 PKD
ROOT
HETATM    1  C   UNL     1      -9.191   6.049  72.623  1.00  0.00    -0.143 C  
HETATM    2  N   UNL     1     -10.417   5.437  71.980  1.00  0.00    -0.216 N  
HETATM    3  C   UNL     1     -10.020   4.293  71.063  1.00  0.00    -0.153 C  
HETATM    4  C   UNL     1     -11.328   4.873  73.084  1.00  0.00    -0.315 C  
ENDROOT
BRANCH   2   5
HETATM    5  C   UNL     1     -11.141   6.555  71.189  1.00  0.00    -0.282 C  
BRANCH   5   6
HETATM    6  C   UNL     1     -12.068   7.424  72.020  1.00  0.00    -0.289 C  
BRANCH   6   7
HETATM    7  O   UNL     1     -11.442   8.664  72.280  1.00  0.00    -0.365 OA 
BRANCH   7   8
HETATM    8  P   UNL     1     -10.700   9.264  70.836  1.00  0.00    -0.356 P  
HETATM    9  O   UNL     1      -9.413   9.454  71.628  1.00  0.00    -0.262 OA 
HETATM   10  O   UNL     1     -11.752  10.379  70.817  1.00  0.00    -0.321 OA 
BRANCH   8  11
HETATM   11  O   UNL     1      -9.958   9.862  69.393  1.00  0.00    -0.187 OA 
BRANCH  11  12
HETATM   12  P   UNL     1     -11.011  11.006  68.635  1.00  0.00    -0.273 P  
HETATM   13  O   UNL     1      -9.735  12.039  68.505  1.00  0.00    -0.207 OA 
HETATM   14  O   UNL     1     -10.918  10.175  67.338  1.00  0.00    -0.292 OA 
BRANCH  12  15
HETATM   15  O   UNL     1     -12.064  12.151  67.878  1.00  0.00    -0.502 OA 
BRANCH  15  16
HETATM   16  C   UNL     1     -11.816  12.392  66.479  1.00  0.00    -0.339 C  
BRANCH  16  17
HETATM   17  C   UNL     1     -11.964  13.852  66.080  1.00  0.00    -0.423 C  
HETATM   18  O   UNL     1     -11.290  14.687  67.026  1.00  0.00    -0.333 OA 
HETATM   19  C   UNL     1     -11.015  15.922  66.362  1.00  0.00    -0.115 C  
HETATM   20  H   UNL     1     -12.082  14.277  62.848  1.00  0.00     0.000 HD 
HETATM   21  C   UNL     1     -10.871  15.602  64.859  1.00  0.00    -0.418 C  
HETATM   22  H   UNL     1     -11.502  16.322  63.093  1.00  0.00     0.000 HD 
HETATM   23  C   UNL     1     -11.412  14.183  64.707  1.00  0.00    -0.383 C  
HETATM   24  O   UNL     1     -11.591  16.519  64.018  1.00  0.00    -1.154 OA 
HETATM   25  O   UNL     1     -12.427  14.070  63.708  1.00  0.00    -0.753 OA 
BRANCH  19  26
HETATM   26  N   UNL     1      -9.853  16.579  66.966  1.00  0.00    -0.250 N  
HETATM   27  C   UNL     1      -8.797  15.851  67.465  1.00  0.00    -0.189 C  
HETATM   28  C   UNL     1      -7.796  16.442  68.105  1.00  0.00    -0.158 C  
HETATM   29  C   UNL     1      -7.900  17.905  68.249  1.00  0.00    -0.285 C  
HETATM   30  N   UNL     1      -8.889  18.603  67.781  1.00  0.00    -0.272 N  
HETATM   31  N   UNL     1      -6.921  18.583  68.922  1.00  0.00    -0.280 NA 
HETATM   32  H   UNL     1      -8.903  19.616  67.900  1.00  0.00     0.000 HD 
HETATM   33  C   UNL     1      -9.920  17.968  67.124  1.00  0.00    -0.325 C  
HETATM   34  H1  UNL     1      -6.993  19.595  69.022  1.00  0.00     0.000 HD 
HETATM   35  H2  UNL     1      -6.126  18.081  69.319  1.00  0.00     0.000 HD 
HETATM   36  O   UNL     1     -10.881  18.605  66.686  1.00  0.00    -0.312 OA 
ENDBRANCH  19  26
ENDBRANCH  16  17
ENDBRANCH  15  16
ENDBRANCH  12  15
ENDBRANCH  11  12
ENDBRANCH   8  11
ENDBRANCH   7   8
ENDBRANCH   6   7
ENDBRANCH   5   6
ENDBRANCH   2   5
TORSDOF 10
ENDMDL
