MODEL      172
REMARK 921   NORMALIZED FREE ENERGY PREDICTED BY IDOCK:    1.37 KCAL/MOL
REMARK 922        TOTAL FREE ENERGY PREDICTED BY IDOCK:    1.00 KCAL/MOL
REMARK 923 INTER-LIGAND FREE ENERGY PREDICTED BY IDOCK:    0.00 KCAL/MOL
REMARK 924 INTRA-LIGAND FREE ENERGY PREDICTED BY IDOCK:    1.00 KCAL/MOL
REMARK 927      BINDING AFFINITY PREDICTED BY RF-SCORE:    0.00 PKD
ROOT
HETATM    1  O   UNL     1     -11.751  18.673  64.912  1.00  0.00     1.551 OA 
HETATM    2  C   UNL     1     -11.333  17.536  65.500  1.00  0.00     0.989 C  
HETATM    3  O   UNL     1     -11.832  16.435  65.385  1.00  0.00     0.687 OA 
HETATM    4  C   UNL     1     -10.088  17.791  66.358  1.00  0.00    -0.357 C  
HETATM    5  O   UNL     1      -9.715  18.957  66.435  1.00  0.00    -0.340 OA 
HETATM    6  N   UNL     1      -9.517  16.650  66.897  1.00  0.00    -0.228 N  
HETATM    7  H   UNL     1      -9.971  15.762  66.685  1.00  0.00     0.000 HD 
ENDROOT
BRANCH   6   8
HETATM    8  C   UNL     1      -8.360  16.602  67.718  1.00  0.00    -0.178 A  
HETATM    9  C   UNL     1      -7.729  17.782  68.127  1.00  0.00    -0.254 A  
HETATM   10  C   UNL     1      -6.568  17.742  68.893  1.00  0.00    -0.229 A  
HETATM   11  C   UNL     1      -5.925  18.957  69.278  1.00  0.00    -0.238 C  
HETATM   12  C   UNL     1      -6.024  16.517  69.277  1.00  0.00    -0.165 A  
HETATM   13  C   UNL     1      -6.644  15.311  68.931  1.00  0.00    -0.108 A  
HETATM   14  N   UNL     1      -5.402  19.943  69.591  1.00  0.00    -0.202 NA 
HETATM   15  C   UNL     1      -7.820  15.362  68.142  1.00  0.00    -0.124 A  
HETATM   16 CL   UNL     1      -8.612  13.884  67.690  1.00  0.00    -0.177 Cl 
BRANCH  13  17
HETATM   17  N   UNL     1      -6.077  14.070  69.330  1.00  0.00    -0.096 N  
HETATM   18  C   UNL     1      -5.869  12.971  68.513  1.00  0.00    -0.075 C  
HETATM   19  H   UNL     1      -5.797  13.981  70.306  1.00  0.00     0.000 HD 
HETATM   20  O   UNL     1      -6.028  12.867  67.301  1.00  0.00    -0.294 OA 
HETATM   21  C   UNL     1      -5.341  11.722  69.231  1.00  0.00    -0.048 C  
HETATM   22  O   UNL     1      -5.129  10.720  68.354  1.00  0.00    -0.035 OA 
HETATM   23  O   UNL     1      -5.155  11.685  70.431  1.00  0.00    -0.076 OA 
ENDBRANCH  13  17
ENDBRANCH   6   8
TORSDOF 2
ENDMDL
