MODEL       10
REMARK 921   NORMALIZED FREE ENERGY PREDICTED BY IDOCK:   -6.14 KCAL/MOL
REMARK 922        TOTAL FREE ENERGY PREDICTED BY IDOCK:  -17.99 KCAL/MOL
REMARK 923 INTER-LIGAND FREE ENERGY PREDICTED BY IDOCK:  -13.71 KCAL/MOL
REMARK 924 INTRA-LIGAND FREE ENERGY PREDICTED BY IDOCK:   -4.28 KCAL/MOL
REMARK 927      BINDING AFFINITY PREDICTED BY RF-SCORE:    0.00 PKD
ROOT
HETATM    1  O   UNL     1     -11.571  16.616  63.980  1.00  0.00    -1.197 OA 
HETATM    2  C   UNL     1     -11.077  15.840  64.787  1.00  0.00    -0.400 C  
ENDROOT
BRANCH   2   3
HETATM    3  C   UNL     1     -10.033  16.225  65.806  1.00  0.00    -0.353 C  
BRANCH   3   4
HETATM    4  C   UNL     1     -10.547  17.275  66.793  1.00  0.00    -0.192 C  
BRANCH   4   5
HETATM    5  C   UNL     1     -10.210  18.703  66.350  1.00  0.00    -0.461 C  
BRANCH   5   6
HETATM    6  C   UNL     1      -8.941  19.209  66.987  1.00  0.00    -0.327 A  
HETATM    7  C   UNL     1      -8.667  18.933  68.334  1.00  0.00    -0.380 A  
HETATM    8  C   UNL     1      -6.591  20.160  68.186  1.00  0.00    -0.327 A  
HETATM    9  C   UNL     1      -7.496  19.405  68.929  1.00  0.00    -0.399 A  
HETATM   10  C   UNL     1      -8.026  19.973  66.251  1.00  0.00    -0.323 A  
HETATM   11  C   UNL     1      -6.856  20.444  66.847  1.00  0.00    -0.307 A  
ENDBRANCH   5   6
ENDBRANCH   4   5
ENDBRANCH   3   4
ENDBRANCH   2   3
BRANCH   2  12
HETATM   12  O   UNL     1     -11.383  14.517  64.895  1.00  0.00    -0.357 OA 
BRANCH  12  13
HETATM   13  C   UNL     1     -12.313  14.154  65.933  1.00  0.00    -0.463 C  
BRANCH  13  14
HETATM   14  C   UNL     1     -11.579  13.420  67.058  1.00  0.00    -0.356 C  
BRANCH  14  15
HETATM   15  O   UNL     1     -11.954  12.026  67.030  1.00  0.00    -0.609 OA 
BRANCH  15  16
HETATM   16  C   UNL     1     -11.004  11.161  66.584  1.00  0.00    -0.228 C  
HETATM   17  O   UNL     1     -10.720  10.956  65.414  1.00  0.00    -0.219 OA 
BRANCH  16  18
HETATM   18  C   UNL     1     -10.361  10.458  67.753  1.00  0.00    -0.245 C  
BRANCH  18  19
HETATM   19  C   UNL     1      -9.726   9.135  67.339  1.00  0.00    -0.211 C  
BRANCH  19  20
HETATM   20  C   UNL     1     -10.721   7.969  67.333  1.00  0.00    -0.260 C  
BRANCH  20  21
HETATM   21  C   UNL     1     -10.288   6.927  68.333  1.00  0.00    -0.213 A  
HETATM   22  C   UNL     1      -9.441   5.169  70.341  1.00  0.00    -0.229 A  
HETATM   23  C   UNL     1      -8.944   6.540  68.415  1.00  0.00    -0.125 A  
HETATM   24  C   UNL     1     -11.206   6.406  69.253  1.00  0.00    -0.440 A  
HETATM   25  C   UNL     1      -8.524   5.663  69.417  1.00  0.00    -0.106 A  
HETATM   26  C   UNL     1     -10.784   5.532  70.254  1.00  0.00    -0.333 A  
ENDBRANCH  20  21
ENDBRANCH  19  20
ENDBRANCH  18  19
ENDBRANCH  16  18
ENDBRANCH  15  16
ENDBRANCH  14  15
BRANCH  14  27
HETATM   27  C   UNL     1     -11.970  13.979  68.431  1.00  0.00    -0.343 C  
BRANCH  27  28
HETATM   28  O   UNL     1     -11.893  12.972  69.450  1.00  0.00    -0.306 OA 
BRANCH  28  29
HETATM   29  C   UNL     1     -12.396  13.346  70.660  1.00  0.00    -0.348 C  
HETATM   30  O   UNL     1     -12.426  14.494  71.081  1.00  0.00    -0.298 OA 
BRANCH  29  31
HETATM   31  C   UNL     1     -12.918  12.140  71.400  1.00  0.00    -0.357 C  
BRANCH  31  32
HETATM   32  C   UNL     1     -12.658  10.849  70.633  1.00  0.00    -0.435 C  
BRANCH  32  33
HETATM   33  C   UNL     1     -12.811   9.596  71.505  1.00  0.00    -0.485 C  
BRANCH  33  34
HETATM   34  C   UNL     1     -11.457   9.045  71.869  1.00  0.00    -0.440 A  
HETATM   35  C   UNL     1      -8.963   7.892  72.417  1.00  0.00    -0.219 A  
HETATM   36  C   UNL     1     -10.317   9.449  71.160  1.00  0.00    -0.377 A  
HETATM   37  C   UNL     1      -9.076   8.875  71.434  1.00  0.00    -0.318 A  
HETATM   38  C   UNL     1     -10.089   7.493  73.135  1.00  0.00    -0.362 A  
HETATM   39  C   UNL     1     -11.331   8.067  72.864  1.00  0.00    -0.364 A  
ENDBRANCH  33  34
ENDBRANCH  32  33
ENDBRANCH  31  32
ENDBRANCH  29  31
ENDBRANCH  28  29
ENDBRANCH  27  28
ENDBRANCH  14  27
ENDBRANCH  13  14
ENDBRANCH  12  13
ENDBRANCH   2  12
TORSDOF 20
ENDMDL
