MODEL       10
REMARK 921   NORMALIZED FREE ENERGY PREDICTED BY IDOCK:   -6.67 KCAL/MOL
REMARK 922        TOTAL FREE ENERGY PREDICTED BY IDOCK:  -13.07 KCAL/MOL
REMARK 923 INTER-LIGAND FREE ENERGY PREDICTED BY IDOCK:  -11.53 KCAL/MOL
REMARK 924 INTRA-LIGAND FREE ENERGY PREDICTED BY IDOCK:   -1.54 KCAL/MOL
REMARK 927      BINDING AFFINITY PREDICTED BY RF-SCORE:    0.00 PKD
ROOT
HETATM    1  C   UNL     1     -10.825   6.628  70.723  1.00  0.00    -0.299 C  
HETATM    2  C   UNL     1     -11.435   7.046  72.063  1.00  0.00    -0.271 C  
HETATM    3  C   UNL     1     -10.743   6.324  73.228  1.00  0.00    -0.284 C  
ENDROOT
BRANCH   2   4
HETATM    4  O   UNL     1     -11.571   8.499  72.189  1.00  0.00    -0.332 OA 
BRANCH   4   5
HETATM    5  C   UNL     1     -12.612   9.129  71.592  1.00  0.00    -0.360 C  
HETATM    6  O   UNL     1     -13.763   8.689  71.614  1.00  0.00    -0.374 OA 
BRANCH   5   7
HETATM    7  C   UNL     1     -12.294  10.453  70.841  1.00  0.00    -0.381 C  
HETATM    8  C   UNL     1     -12.938  11.621  71.586  1.00  0.00    -0.483 C  
BRANCH   7   9
HETATM    9  N   UNL     1     -12.548  10.545  69.351  1.00  0.00    -0.690 NA 
HETATM   10  H   UNL     1     -13.269  11.235  69.140  1.00  0.00     0.000 HD 
BRANCH   9  11
HETATM   11  P   UNL     1     -11.071  10.866  68.447  1.00  0.00    -0.311 P  
HETATM   12  O   UNL     1     -10.154  10.208  69.508  1.00  0.00    -0.211 OA 
BRANCH  11  13
HETATM   13  C   UNL     1     -10.297  12.561  68.879  1.00  0.00    -0.038 C  
BRANCH  13  14
HETATM   14  O   UNL     1     -11.302  13.627  69.070  1.00  0.00    -0.257 OA 
BRANCH  14  15
HETATM   15  C   UNL     1     -11.006  14.799  69.877  1.00  0.00    -0.199 C  
HETATM   16  C   UNL     1     -12.280  15.631  70.073  1.00  0.00    -0.351 C  
BRANCH  15  17
HETATM   17  C   UNL     1      -9.794  15.600  69.424  1.00  0.00    -0.284 C  
BRANCH  17  18
HETATM   18  N   UNL     1     -10.086  16.767  68.639  1.00  0.00    -0.262 NA 
HETATM   19  C   UNL     1     -10.095  18.074  69.048  1.00  0.00    -0.293 A  
HETATM   20  N   UNL     1     -10.321  18.895  68.047  1.00  0.00    -0.391 NA 
HETATM   21  C   UNL     1     -10.485  18.070  66.957  1.00  0.00    -0.351 A  
HETATM   22  C   UNL     1     -10.735  18.345  65.610  1.00  0.00    -0.038 A  
HETATM   23  N   UNL     1     -10.924  17.310  64.759  1.00  0.00    -0.911 NA 
HETATM   24  N   UNL     1     -10.804  19.645  65.132  1.00  0.00    -0.277 NA 
HETATM   25  C   UNL     1     -10.813  16.061  65.249  1.00  0.00    -0.362 A  
HETATM   26  H1  UNL     1     -10.987  19.846  64.148  1.00  0.00     0.000 HD 
HETATM   27  H2  UNL     1      -9.940  20.120  65.393  1.00  0.00     0.000 HD 
HETATM   28  N   UNL     1     -10.539  15.669  66.513  1.00  0.00    -0.305 NA 
HETATM   29  C   UNL     1     -10.387  16.739  67.308  1.00  0.00    -0.304 A  
ENDBRANCH  17  18
ENDBRANCH  15  17
ENDBRANCH  14  15
ENDBRANCH  13  14
ENDBRANCH  11  13
BRANCH  11  30
HETATM   30  O   UNL     1     -12.096  11.601  67.262  1.00  0.00    -0.595 OA 
BRANCH  30  31
HETATM   31  C   UNL     1     -11.563  11.748  65.993  1.00  0.00    -0.134 A  
HETATM   32  C   UNL     1     -12.196  12.658  65.146  1.00  0.00    -0.539 A  
HETATM   33  C   UNL     1     -10.008  11.209  64.211  1.00  0.00    -0.359 A  
HETATM   34  C   UNL     1     -10.460  11.027  65.526  1.00  0.00    -0.302 A  
HETATM   35  C   UNL     1     -10.656  12.104  63.362  1.00  0.00    -0.454 A  
HETATM   36  C   UNL     1     -11.750  12.827  63.831  1.00  0.00    -0.530 A  
ENDBRANCH  30  31
ENDBRANCH  11  30
ENDBRANCH   9  11
ENDBRANCH   7   9
ENDBRANCH   5   7
ENDBRANCH   4   5
ENDBRANCH   2   4
TORSDOF 12
ENDMDL
