MODEL      115
REMARK 921   NORMALIZED FREE ENERGY PREDICTED BY IDOCK:   -5.78 KCAL/MOL
REMARK 922        TOTAL FREE ENERGY PREDICTED BY IDOCK:  -10.75 KCAL/MOL
REMARK 923 INTER-LIGAND FREE ENERGY PREDICTED BY IDOCK:   -8.12 KCAL/MOL
REMARK 924 INTRA-LIGAND FREE ENERGY PREDICTED BY IDOCK:   -2.63 KCAL/MOL
REMARK 927      BINDING AFFINITY PREDICTED BY RF-SCORE:    0.00 PKD
ROOT
HETATM    1  O   UNL     1     -11.018   6.647  73.553  1.00  0.00    -0.471 OA 
HETATM    2  C   UNL     1      -9.697   6.486  73.047  1.00  0.00    -0.155 C  
HETATM    3  H   UNL     1     -11.016   6.870  74.477  1.00  0.00     0.000 HD 
HETATM    4  C   UNL     2      -6.791  13.086  68.351  1.00  0.00    -0.097 C  
HETATM    5  C   UNL     1      -9.700   6.121  71.533  1.00  0.00    -0.162 C  
HETATM    6  C   UNL     2      -7.693  11.995  67.793  1.00  0.00    -0.139 C  
HETATM    7  C   UNL     1     -10.489   7.208  70.751  1.00  0.00    -0.212 C  
HETATM    8  N   UNL     1      -8.268   6.131  71.099  1.00  0.00    -0.121 NA 
HETATM    9  C   UNL     1     -10.175   4.712  71.215  1.00  0.00    -0.135 C  
HETATM   10  H   UNL     1      -9.455   2.908  71.443  1.00  0.00     0.000 HD 
HETATM   11  H   UNL     1     -10.404   9.166  70.495  1.00  0.00     0.000 HD 
HETATM   12  H2  UNL     1      -7.669   5.526  71.661  1.00  0.00     0.000 HD 
HETATM   13  O   UNL     1      -9.922   8.503  70.973  1.00  0.00    -0.184 OA 
HETATM   14  O   UNL     1      -9.159   3.788  71.642  1.00  0.00    -0.103 OA 
HETATM   15  H1  UNL     1      -8.269   5.892  70.107  1.00  0.00     0.000 HD 
ENDROOT
BRANCH   6  16
HETATM   16  C   UNL     2      -7.277  10.582  68.205  1.00  0.00    -0.087 C  
BRANCH  16  17
HETATM   17  C   UNL     2      -7.374   9.528  67.098  1.00  0.00    -0.088 C  
BRANCH  17  18
HETATM   18  C   UNL     2      -8.357   8.371  67.387  1.00  0.00    -0.124 C  
HETATM   19  C   UNL     2      -9.719   8.361  66.654  1.00  0.00    -0.251 C  
HETATM   20  C   UNL     2     -10.547   7.085  66.862  1.00  0.00    -0.372 C  
HETATM   21  O   UNL     2      -9.443   8.446  65.252  1.00  0.00    -0.391 OA 
HETATM   22  C   UNL     2     -10.531   9.561  67.053  1.00  0.00    -0.302 C  
HETATM   23  H   UNL     2     -10.280   8.441  64.802  1.00  0.00     0.000 HD 
HETATM   24  C   UNL     2     -11.158   9.772  68.223  1.00  0.00    -0.158 C  
BRANCH  24  25
HETATM   25  C   UNL     2     -11.939  11.016  68.584  1.00  0.00    -0.247 C  
HETATM   26  C   UNL     2     -12.279  11.194  70.082  1.00  0.00    -0.337 C  
HETATM   27  C   UNL     2     -12.772  12.620  70.129  1.00  0.00     0.183 C  
HETATM   28  O   UNL     2     -11.164  11.146  70.966  1.00  0.00     0.011 OA 
HETATM   29  H   UNL     2     -11.372  11.255  71.886  1.00  0.00     0.000 HD 
HETATM   30  C   UNL     2     -11.778  13.371  69.245  1.00  0.00    -0.330 C  
HETATM   31  C   UNL     2     -11.276  12.366  68.175  1.00  0.00    -0.313 C  
HETATM   32  O   UNL     2     -12.439  14.517  68.731  1.00  0.00    -0.579 OA 
HETATM   33  H   UNL     2     -11.820  14.984  68.181  1.00  0.00     0.000 HD 
BRANCH  31  34
HETATM   34  C   UNL     2     -11.560  12.766  66.709  1.00  0.00    -0.431 C  
BRANCH  34  35
HETATM   35  C   UNL     2     -10.331  13.191  65.939  1.00  0.00    -0.295 C  
HETATM   36  C   UNL     2      -9.954  14.428  65.580  1.00  0.00    -0.365 C  
BRANCH  36  37
HETATM   37  C   UNL     2     -10.664  15.721  65.860  1.00  0.00    -0.320 C  
BRANCH  37  38
HETATM   38  C   UNL     2     -10.031  16.527  66.997  1.00  0.00    -0.268 C  
BRANCH  38  39
HETATM   39  C   UNL     2      -8.561  16.860  66.796  1.00  0.00    -0.256 C  
HETATM   40  C   UNL     2      -8.209  18.126  66.015  1.00  0.00    -0.052 C  
HETATM   41  O   UNL     2      -7.075  18.098  65.459  1.00  0.00    -0.522 OA 
HETATM   42  O   UNL     2      -9.011  19.116  66.021  1.00  0.00    -0.447 OA 
ENDBRANCH  38  39
ENDBRANCH  37  38
ENDBRANCH  36  37
ENDBRANCH  34  35
ENDBRANCH  31  34
ENDBRANCH  24  25
ENDBRANCH  17  18
ENDBRANCH  16  17
ENDBRANCH   6  16
TORSDOF 9
ENDMDL
