MODEL       43
REMARK 921   NORMALIZED FREE ENERGY PREDICTED BY IDOCK:   -5.52 KCAL/MOL
REMARK 922        TOTAL FREE ENERGY PREDICTED BY IDOCK:   -6.15 KCAL/MOL
REMARK 923 INTER-LIGAND FREE ENERGY PREDICTED BY IDOCK:   -5.84 KCAL/MOL
REMARK 924 INTRA-LIGAND FREE ENERGY PREDICTED BY IDOCK:   -0.31 KCAL/MOL
REMARK 927      BINDING AFFINITY PREDICTED BY RF-SCORE:    0.00 PKD
ROOT
HETATM    1  C   UNL     1     -11.764   8.985  71.833  1.00  0.00    -0.445 C  
HETATM    2  C   UNL     1     -10.688   9.391  70.820  1.00  0.00    -0.373 C  
HETATM    3  C   UNL     1     -10.338   8.196  69.936  1.00  0.00    -0.214 C  
HETATM    4  C   UNL     1     -11.193  10.571  69.993  1.00  0.00    -0.315 C  
HETATM    5  O   UNL     1     -12.325  11.016  70.156  1.00  0.00    -0.310 OA 
HETATM    6  N   UNL     1     -10.262  11.093  69.103  1.00  0.00    -0.367 N  
HETATM    7  H   UNL     1      -9.309  10.730  69.156  1.00  0.00     0.000 HD 
ENDROOT
BRANCH   6   8
HETATM    8  C   UNL     1     -10.525  12.084  68.130  1.00  0.00    -0.202 A  
HETATM    9  C   UNL     1     -10.301  13.448  68.362  1.00  0.00    -0.253 A  
HETATM   10  C   UNL     1     -10.597  14.432  67.401  1.00  0.00    -0.270 A  
HETATM   11  C   UNL     1     -10.380  15.884  67.738  1.00  0.00    -0.278 C  
HETATM   12  C   UNL     1     -11.136  14.004  66.183  1.00  0.00    -0.302 A  
HETATM   13  F   UNL     1      -9.970  16.081  69.024  1.00  0.00    -0.199 F  
HETATM   14  F   UNL     1      -9.440  16.484  66.967  1.00  0.00    -0.224 F  
HETATM   15  N   UNL     1     -11.510  14.962  65.154  1.00  0.00    -0.361 N  
HETATM   16  F   UNL     1     -11.521  16.613  67.609  1.00  0.00    -0.162 F  
HETATM   17  C   UNL     1     -11.373  12.645  65.924  1.00  0.00    -0.373 A  
HETATM   18  C   UNL     1     -11.070  11.690  66.903  1.00  0.00    -0.365 A  
HETATM   19  O   UNL     1     -10.621  15.698  64.719  1.00  0.00    -0.448 OA 
HETATM   20  O   UNL     1     -12.687  14.942  64.774  1.00  0.00    -0.376 OA 
ENDBRANCH   6   8
TORSDOF 1
ENDMDL
