MODEL        4
REMARK 921   NORMALIZED FREE ENERGY PREDICTED BY IDOCK:   -7.73 KCAL/MOL
REMARK 922        TOTAL FREE ENERGY PREDICTED BY IDOCK:  -10.27 KCAL/MOL
REMARK 923 INTER-LIGAND FREE ENERGY PREDICTED BY IDOCK:   -9.45 KCAL/MOL
REMARK 924 INTRA-LIGAND FREE ENERGY PREDICTED BY IDOCK:   -0.82 KCAL/MOL
REMARK 927      BINDING AFFINITY PREDICTED BY RF-SCORE:    0.00 PKD
ROOT
HETATM    1  O   UNL     1     -10.408  18.685  68.804  1.00  0.00    -0.334 OA 
HETATM    2  C   UNL     1     -10.338  17.577  68.302  1.00  0.00    -0.379 C  
HETATM    3  N   UNL     1      -9.301  17.152  67.432  1.00  0.00    -0.232 N  
HETATM    4  C   UNL     1     -12.517  13.808  66.304  1.00  0.00    -0.441 C  
HETATM    5  C   UNL     1      -9.719  15.884  66.800  1.00  0.00    -0.238 C  
HETATM    6  C   UNL     1      -8.906  14.620  67.059  1.00  0.00    -0.241 C  
HETATM    7  N   UNL     1     -11.173  16.465  68.585  1.00  0.00    -0.353 N  
HETATM    8  C   UNL     1     -11.137  15.682  67.358  1.00  0.00    -0.260 C  
HETATM    9  S   UNL     1     -10.013  13.182  67.240  1.00  0.00    -0.234 S  
HETATM   10  C   UNL     1     -11.536  14.204  67.417  1.00  0.00    -0.372 C  
HETATM   11  C   UNL     1     -10.462  12.855  65.501  1.00  0.00    -0.289 C  
HETATM   12  C   UNL     1     -11.959  12.591  65.589  1.00  0.00    -0.492 C  
ENDROOT
BRANCH   3  13
HETATM   13  C   UNL     1      -7.997  17.424  68.009  1.00  0.00    -0.224 C  
BRANCH  13  14
HETATM   14  C   UNL     1      -7.260  18.635  67.539  1.00  0.00    -0.218 A  
HETATM   15  C   UNL     1      -6.182  20.748  68.059  1.00  0.00    -0.373 A  
HETATM   16  C   UNL     1      -6.723  20.206  65.769  1.00  0.00    -0.282 A  
HETATM   17  C   UNL     1      -6.727  19.533  68.474  1.00  0.00    -0.323 A  
HETATM   18  C   UNL     1      -7.265  18.989  66.183  1.00  0.00    -0.283 A  
HETATM   19  C   UNL     1      -6.176  21.082  66.707  1.00  0.00    -0.360 A  
ENDBRANCH  13  14
ENDBRANCH   3  13
BRANCH   7  20
HETATM   20  C   UNL     1     -10.845  15.780  69.844  1.00  0.00    -0.327 C  
BRANCH  20  21
HETATM   21  C   UNL     1     -11.894  15.733  70.928  1.00  0.00    -0.451 A  
HETATM   22  C   UNL     1     -11.665  16.209  72.224  1.00  0.00    -0.564 A  
HETATM   23  C   UNL     1     -12.646  16.095  73.208  1.00  0.00    -0.623 A  
HETATM   24  C   UNL     1     -13.889  15.558  72.890  1.00  0.00    -0.536 A  
HETATM   25  C   UNL     1     -14.156  15.142  71.588  1.00  0.00    -0.645 A  
HETATM   26  C   UNL     1     -13.169  15.237  70.609  1.00  0.00    -0.370 A  
ENDBRANCH  20  21
ENDBRANCH   7  20
TORSDOF 4
ENDMDL
