MODEL       77
REMARK 921   NORMALIZED FREE ENERGY PREDICTED BY IDOCK:   12.23 KCAL/MOL
REMARK 922        TOTAL FREE ENERGY PREDICTED BY IDOCK:   14.43 KCAL/MOL
REMARK 923 INTER-LIGAND FREE ENERGY PREDICTED BY IDOCK:   13.95 KCAL/MOL
REMARK 924 INTRA-LIGAND FREE ENERGY PREDICTED BY IDOCK:    0.48 KCAL/MOL
REMARK 927      BINDING AFFINITY PREDICTED BY RF-SCORE:    0.00 PKD
ROOT
HETATM    1  C   UNL     1      -7.651  20.309  71.959  1.00  0.00     1.854 C  
HETATM    2  O   UNL     1      -9.042  20.324  71.652  1.00  0.00     1.513 OA 
ENDROOT
BRANCH   2   3
HETATM    3  C   UNL     1      -9.436  19.429  70.695  1.00  0.00     1.819 A  
HETATM    4  C   UNL     1      -8.870  19.601  69.432  1.00  0.00     0.173 A  
HETATM    5  C   UNL     1      -9.217  18.753  68.371  1.00  0.00    -0.376 A  
HETATM    6  C   UNL     1     -10.132  17.710  68.566  1.00  0.00    -0.375 A  
HETATM    7  C   UNL     1     -10.637  17.493  69.857  1.00  0.00     0.587 A  
HETATM    8  C   UNL     1     -10.301  18.357  70.911  1.00  0.00     2.565 A  
BRANCH   6   9
HETATM    9  N   UNL     1     -10.539  16.854  67.494  1.00  0.00    -0.326 NA 
HETATM   10  N   UNL     1     -10.304  17.245  66.188  1.00  0.00    -0.350 NA 
HETATM   11  C   UNL     1     -10.945  16.338  65.425  1.00  0.00    -0.197 A  
HETATM   12  C   UNL     1     -11.514  15.337  66.225  1.00  0.00    -0.079 A  
HETATM   13  C   UNL     1     -12.237  14.107  65.843  1.00  0.00    -0.458 C  
HETATM   14  C   UNL     1     -11.172  15.619  67.532  1.00  0.00    -0.245 A  
HETATM   15  C   UNL     1     -12.931  13.571  67.092  1.00  0.00     1.601 C  
HETATM   16  O   UNL     1     -10.831  14.841  69.727  1.00  0.00    -0.250 OA 
HETATM   17  N   UNL     1     -11.999  13.460  68.230  1.00  0.00    -0.346 N  
HETATM   18  C   UNL     1     -11.323  14.659  68.619  1.00  0.00    -0.283 C  
BRANCH  11  19
HETATM   19  C   UNL     1     -10.993  16.364  63.951  1.00  0.00     1.680 C  
HETATM   20  H1  UNL     1     -12.013  17.134  62.374  1.00  0.00     0.000 HD 
HETATM   21  N   UNL     1     -11.980  17.116  63.393  1.00  0.00     4.441 N  
HETATM   22  H2  UNL     1     -12.650  17.633  63.962  1.00  0.00     0.000 HD 
HETATM   23  O   UNL     1     -10.190  15.763  63.237  1.00  0.00     4.444 OA 
ENDBRANCH  11  19
BRANCH  17  24
HETATM   24  C   UNL     1     -11.731  12.174  68.831  1.00  0.00    -0.327 A  
HETATM   25  C   UNL     1     -11.901  11.933  70.198  1.00  0.00    -0.390 A  
HETATM   26  C   UNL     1     -11.506  10.722  70.796  1.00  0.00    -0.216 A  
HETATM   27  C   UNL     1     -10.908   9.695  70.058  1.00  0.00    -0.264 A  
HETATM   28  C   UNL     1     -10.798   9.902  68.686  1.00  0.00    -0.244 A  
HETATM   29  C   UNL     1     -11.200  11.109  68.090  1.00  0.00    -0.356 A  
BRANCH  27  30
HETATM   30  N   UNL     1     -10.339   8.551  70.708  1.00  0.00    -0.193 N  
HETATM   31  C   UNL     1     -10.136   8.530  72.154  1.00  0.00    -0.323 C  
HETATM   32  C   UNL     1     -10.721   7.274  72.779  1.00  0.00    -0.340 C  
HETATM   33  C   UNL     1     -10.091   6.055  72.132  1.00  0.00    -0.208 C  
HETATM   34  C   UNL     1     -10.272   6.099  70.626  1.00  0.00    -0.250 C  
HETATM   35  C   UNL     1      -9.922   7.430  69.980  1.00  0.00    -0.185 C  
HETATM   36  O   UNL     1      -9.456   7.455  68.842  1.00  0.00    -0.145 OA 
ENDBRANCH  27  30
ENDBRANCH  17  24
ENDBRANCH   6   9
ENDBRANCH   2   3
TORSDOF 5
ENDMDL
