MODEL      168
REMARK 921   NORMALIZED FREE ENERGY PREDICTED BY IDOCK:    3.48 KCAL/MOL
REMARK 922        TOTAL FREE ENERGY PREDICTED BY IDOCK:    3.65 KCAL/MOL
REMARK 923 INTER-LIGAND FREE ENERGY PREDICTED BY IDOCK:    3.54 KCAL/MOL
REMARK 924 INTRA-LIGAND FREE ENERGY PREDICTED BY IDOCK:    0.10 KCAL/MOL
REMARK 927      BINDING AFFINITY PREDICTED BY RF-SCORE:    0.00 PKD
ROOT
HETATM    1  C   UNK A   0     -10.962  17.474  65.826  1.00  0.00     0.185 C  
HETATM    2  C   UNK A   0     -11.710  16.537  64.844  1.00  0.00     0.534 C  
HETATM    3  C   UNK A   0     -11.081  15.190  64.953  1.00  0.00    -0.425 A  
HETATM    4  C   UNK A   0     -10.674  14.239  64.054  1.00  0.00     0.718 A  
HETATM    5  N   UNK A   0     -10.223  13.156  64.776  1.00  0.00    -0.511 NA 
HETATM    6  C   UNK A   0     -10.295  13.417  66.130  1.00  0.00    -0.295 A  
HETATM    7  H   UNK A   0      -9.884  12.285  64.368  1.00  0.00     0.000 HD 
HETATM    8  C   UNK A   0     -10.016  12.650  67.264  1.00  0.00    -0.212 A  
HETATM    9  C   UNK A   0     -10.121  13.307  68.504  1.00  0.00    -0.208 A  
HETATM   10  C   UNK A   0     -10.372  14.691  68.599  1.00  0.00    -0.246 A  
HETATM   11  C   UNK A   0     -10.601  15.445  67.441  1.00  0.00    -0.289 A  
HETATM   12  C   UNK A   0     -10.684  14.736  66.231  1.00  0.00    -0.313 A  
HETATM   13  C   UNK A   0     -10.545  16.906  67.218  1.00  0.00    -0.270 C  
HETATM   14  C   UNK A   0      -9.789  17.719  67.975  1.00  0.00    -0.317 C  
HETATM   15  C   UNK A   0      -9.265  19.000  67.312  1.00  0.00    -0.321 C  
HETATM   16  C   UNK A   0     -12.706  18.963  66.733  1.00  0.00     6.699 C  
HETATM   17  C   UNK A   0     -10.376  19.713  66.467  1.00  0.00    -0.493 C  
HETATM   18  N   UNK A   0     -11.476  18.859  65.945  1.00  0.00     0.916 NA 
ENDROOT
BRANCH  15  19
HETATM   19  C   UNK A   0      -8.029  18.616  66.413  1.00  0.00    -0.277 C  
ATOM     20  N   ALA A   1      -7.654  19.593  65.498  1.00  0.00    -0.171 N  
ATOM     21  H   ALA A   1      -8.347  20.303  65.260  1.00  0.00     0.000 HD 
HETATM   22  O   UNK A   0      -7.443  17.546  66.480  1.00  0.00    -0.222 OA 
BRANCH  20  23
ATOM     23  CA  ALA A   1      -6.338  19.683  64.846  1.00  0.00    -0.271 C  
ATOM     24  CB  ALA A   1      -6.240  20.903  63.931  1.00  0.00    -0.345 C  
BRANCH  23  25
ATOM     25  C   ALA A   1      -5.136  19.614  65.801  1.00  0.00    -0.151 C  
ATOM     26  O   ALA A   1      -5.585  19.647  67.153  1.00  0.00    -0.174 OA 
ATOM     27  H   ALA A   1      -4.842  19.605  67.744  1.00  0.00     0.000 HD 
ENDBRANCH  23  25
ENDBRANCH  20  23
ENDBRANCH  15  19
TORSDOF 3
ENDMDL
