MODEL      199
REMARK 921   NORMALIZED FREE ENERGY PREDICTED BY IDOCK:   -4.72 KCAL/MOL
REMARK 922        TOTAL FREE ENERGY PREDICTED BY IDOCK:   -9.45 KCAL/MOL
REMARK 923 INTER-LIGAND FREE ENERGY PREDICTED BY IDOCK:   -8.02 KCAL/MOL
REMARK 924 INTRA-LIGAND FREE ENERGY PREDICTED BY IDOCK:   -1.43 KCAL/MOL
REMARK 927      BINDING AFFINITY PREDICTED BY RF-SCORE:    0.00 PKD
ROOT
HETATM    1  C   UNL     1      -5.979   8.339  73.284  1.00  0.00    -0.073 C  
HETATM    2  O   UNL     1      -6.601   8.782  72.079  1.00  0.00    -0.085 OA 
ENDROOT
BRANCH   2   3
HETATM    3  C   UNL     1      -7.965   8.654  72.030  1.00  0.00    -0.054 A  
HETATM    4  C   UNL     1      -8.660   9.103  70.887  1.00  0.00    -0.259 A  
HETATM    5  C   UNL     1     -10.060   8.982  70.842  1.00  0.00    -0.329 A  
HETATM    6  C   UNL     1      -8.692   8.169  73.128  1.00  0.00    -0.307 A  
HETATM    7 CL   UNL     1     -12.475   8.381  71.885  1.00  0.00    -0.364 Cl 
HETATM    8  C   UNL     1     -10.084   8.091  73.087  1.00  0.00    -0.302 A  
HETATM    9  C   UNL     1     -10.760   8.487  71.941  1.00  0.00    -0.324 A  
BRANCH   4  10
HETATM   10  C   UNL     1      -7.941   9.695  69.710  1.00  0.00    -0.151 C  
HETATM   11  H   UNL     1      -7.613   7.797  68.903  1.00  0.00     0.000 HD 
HETATM   12  O   UNL     1      -7.740  10.899  69.614  1.00  0.00    -0.083 OA 
HETATM   13  N   UNL     1      -7.528   8.800  68.732  1.00  0.00    -0.083 N  
BRANCH  13  14
HETATM   14  C   UNL     1      -6.976   9.263  67.472  1.00  0.00    -0.078 C  
BRANCH  14  15
HETATM   15  C   UNL     1      -7.894   9.001  66.272  1.00  0.00    -0.099 C  
BRANCH  15  16
HETATM   16  C   UNL     1      -8.714  10.189  65.798  1.00  0.00    -0.166 A  
HETATM   17  C   UNL     1      -8.518  11.496  66.274  1.00  0.00    -0.108 A  
HETATM   18  C   UNL     1      -9.347  12.544  65.863  1.00  0.00    -0.039 A  
HETATM   19  C   UNL     1     -10.379  12.298  64.958  1.00  0.00    -0.291 A  
HETATM   20  C   UNL     1      -9.735   9.968  64.860  1.00  0.00    -0.377 A  
HETATM   21  C   UNL     1     -10.574  11.010  64.451  1.00  0.00    -0.395 A  
BRANCH  19  22
HETATM   22  S   UNL     1     -11.534  13.597  64.577  1.00  0.00    -0.385 S  
HETATM   23  O   UNL     1     -12.302  13.162  63.426  1.00  0.00    -0.705 OA 
HETATM   24  O   UNL     1     -10.836  14.861  64.556  1.00  0.00    -0.316 OA 
BRANCH  22  25
HETATM   25  N   UNL     1     -12.613  13.582  65.842  1.00  0.00    -0.431 N  
HETATM   26  H   UNL     1     -13.575  13.863  65.654  1.00  0.00     0.000 HD 
BRANCH  25  27
HETATM   27  C   UNL     1     -12.284  13.212  67.135  1.00  0.00    -0.191 C  
HETATM   28  O   UNL     1     -12.228  12.053  67.501  1.00  0.00    -0.490 OA 
BRANCH  27  29
HETATM   29  N   UNL     1     -12.048  14.281  67.956  1.00  0.00    -0.565 N  
HETATM   30  H   UNL     1     -12.818  14.884  68.244  1.00  0.00     0.000 HD 
BRANCH  29  31
HETATM   31  C   UNL     1     -10.694  14.556  68.417  1.00  0.00    -0.243 C  
HETATM   32  C   UNL     1     -10.154  15.867  67.836  1.00  0.00    -0.235 C  
HETATM   33  C   UNL     1     -10.774  17.102  68.486  1.00  0.00    -0.326 C  
HETATM   34  C   UNL     1     -10.630  17.063  70.002  1.00  0.00     0.176 C  
HETATM   35  C   UNL     1     -11.215  15.784  70.592  1.00  0.00    -0.395 C  
HETATM   36  C   UNL     1     -10.614  14.537  69.946  1.00  0.00     0.057 C  
ENDBRANCH  29  31
ENDBRANCH  27  29
ENDBRANCH  25  27
ENDBRANCH  22  25
ENDBRANCH  19  22
ENDBRANCH  15  16
ENDBRANCH  14  15
ENDBRANCH  13  14
ENDBRANCH   4  10
ENDBRANCH   2   3
TORSDOF 10
ENDMDL
