MODEL       90
REMARK 921   NORMALIZED FREE ENERGY PREDICTED BY IDOCK:   -6.65 KCAL/MOL
REMARK 922        TOTAL FREE ENERGY PREDICTED BY IDOCK:  -12.29 KCAL/MOL
REMARK 923 INTER-LIGAND FREE ENERGY PREDICTED BY IDOCK:  -10.72 KCAL/MOL
REMARK 924 INTRA-LIGAND FREE ENERGY PREDICTED BY IDOCK:   -1.56 KCAL/MOL
REMARK 927      BINDING AFFINITY PREDICTED BY RF-SCORE:    0.00 PKD
ROOT
HETATM    1  C   UNL     1     -12.416  12.825  70.718  1.00  0.00    -0.357 C  
HETATM    2  C   UNL     1     -12.340  11.340  70.988  1.00  0.00    -0.366 A  
HETATM    3  C   UNL     1     -13.164  10.818  71.977  1.00  0.00    -0.466 A  
HETATM    4  C   UNL     1     -13.166   9.464  72.278  1.00  0.00    -0.446 A  
HETATM    5  N   UNL     1     -14.126   9.004  73.185  1.00  0.00    -1.223 NA 
HETATM    6  C   UNL     1     -12.379   8.603  71.490  1.00  0.00    -0.370 A  
HETATM    7  H2  UNL     1     -15.054   9.278  72.863  1.00  0.00     0.000 HD 
HETATM    8  C   UNL     1     -12.420   7.198  71.645  1.00  0.00    -0.405 A  
HETATM    9  H1  UNL     1     -14.127   8.008  73.406  1.00  0.00     0.000 HD 
HETATM   10  C   UNL     1     -11.629   6.345  70.877  1.00  0.00    -0.393 A  
HETATM   11  C   UNL     1     -10.764   6.873  69.938  1.00  0.00    -0.278 A  
HETATM   12  C   UNL     1     -10.703   8.257  69.755  1.00  0.00    -0.221 A  
HETATM   13  C   UNL     1     -11.522   9.147  70.497  1.00  0.00    -0.229 A  
HETATM   14  N   UNL     1     -11.528  10.506  70.270  1.00  0.00    -0.311 NA 
ENDROOT
BRANCH  14  15
HETATM   15  C   UNL     1     -10.690  11.079  69.180  1.00  0.00    -0.234 C  
BRANCH  15  16
HETATM   16  C   UNL     1     -11.408  10.970  67.836  1.00  0.00    -0.381 C  
BRANCH  16  17
HETATM   17  C   UNL     1     -10.553  11.517  66.696  1.00  0.00    -0.294 C  
BRANCH  17  18
HETATM   18  C   UNL     1      -9.465  10.537  66.244  1.00  0.00    -0.217 C  
BRANCH  18  19
HETATM   19  C   UNL     1      -8.066  11.134  66.360  1.00  0.00    -0.159 C  
BRANCH  19  20
HETATM   20  C   UNL     1      -8.039  12.471  67.103  1.00  0.00    -0.156 C  
BRANCH  20  21
HETATM   21  C   UNL     1      -7.326  12.412  68.461  1.00  0.00    -0.105 C  
BRANCH  21  22
HETATM   22  C   UNL     1      -6.533  13.684  68.775  1.00  0.00    -0.097 C  
BRANCH  22  23
HETATM   23  C   UNL     1      -7.022  14.909  67.992  1.00  0.00    -0.150 C  
BRANCH  23  24
HETATM   24  C   UNL     1      -7.715  15.920  68.906  1.00  0.00    -0.194 C  
BRANCH  24  25
HETATM   25  N   UNL     1      -8.409  16.960  68.104  1.00  0.00    -0.205 NA 
HETATM   26  C   UNL     1      -9.665  16.725  67.611  1.00  0.00    -0.251 A  
HETATM   27  C   UNL     1     -10.340  17.735  66.920  1.00  0.00    -0.344 A  
HETATM   28  C   UNL     1     -10.447  15.446  67.803  1.00  0.00    -0.266 C  
HETATM   29  C   UNL     1      -9.760  18.973  66.692  1.00  0.00    -0.341 A  
HETATM   30  N   UNL     1     -10.563  19.965  66.122  1.00  0.00    -0.460 NA 
HETATM   31  C   UNL     1      -8.499  19.227  67.255  1.00  0.00    -0.314 A  
HETATM   32  H1  UNL     1     -10.137  20.877  65.954  1.00  0.00     0.000 HD 
HETATM   33  C   UNL     1      -7.805  18.189  67.936  1.00  0.00    -0.244 A  
HETATM   34  H2  UNL     1     -11.403  20.086  66.687  1.00  0.00     0.000 HD 
HETATM   35  C   UNL     1      -6.510  18.470  68.443  1.00  0.00    -0.226 A  
HETATM   36  C   UNL     1      -5.931  19.732  68.336  1.00  0.00    -0.269 A  
HETATM   37  C   UNL     1      -6.627  20.750  67.712  1.00  0.00    -0.385 A  
HETATM   38  C   UNL     1      -7.887  20.499  67.173  1.00  0.00    -0.363 A  
ENDBRANCH  24  25
ENDBRANCH  23  24
ENDBRANCH  22  23
ENDBRANCH  21  22
ENDBRANCH  20  21
ENDBRANCH  19  20
ENDBRANCH  18  19
ENDBRANCH  17  18
ENDBRANCH  16  17
ENDBRANCH  15  16
ENDBRANCH  14  15
TORSDOF 11
ENDMDL
