MODEL      281
REMARK 921   NORMALIZED FREE ENERGY PREDICTED BY IDOCK:    0.50 KCAL/MOL
REMARK 922        TOTAL FREE ENERGY PREDICTED BY IDOCK:   -2.39 KCAL/MOL
REMARK 923 INTER-LIGAND FREE ENERGY PREDICTED BY IDOCK:   -4.24 KCAL/MOL
REMARK 924 INTRA-LIGAND FREE ENERGY PREDICTED BY IDOCK:    1.85 KCAL/MOL
REMARK 927      BINDING AFFINITY PREDICTED BY RF-SCORE:    0.00 PKD
ROOT
HETATM    1  C   UNL     1     -10.901  15.747  66.203  1.00  0.00    -0.240 C  
HETATM    2  C   UNL     1     -12.224  15.838  65.685  1.00  0.00     1.169 C  
HETATM    3  C   UNL     1     -12.250  15.499  67.151  1.00  0.00     0.878 C  
HETATM    4  C   UNL     1     -10.408  15.805  67.951  1.00  0.00    -0.261 C  
HETATM    5  O   UNL     1      -9.808  15.955  69.242  1.00  0.00    -0.228 OA 
HETATM    6  C   UNL     1     -11.230  16.877  67.702  1.00  0.00     0.055 C  
HETATM    7  C   UNL     1     -12.053  16.270  69.234  1.00  0.00     0.195 C  
HETATM    8  C   UNL     1     -10.928  18.327  67.574  1.00  0.00    -0.140 C  
HETATM    9  H   UNL     1      -8.947  16.099  69.616  1.00  0.00     0.000 HD 
HETATM   10  C   UNL     1     -11.769  14.529  69.512  1.00  0.00    -0.361 C  
HETATM   11  C   UNL     1     -11.321  13.436  68.275  1.00  0.00    -0.330 C  
HETATM   12  C   UNL     1     -10.805  12.045  68.660  1.00  0.00    -0.273 A  
HETATM   13  C   UNL     1     -11.099  11.506  69.926  1.00  0.00    -0.079 A  
HETATM   14  C   UNL     1     -10.824  10.168  70.232  1.00  0.00    -0.370 A  
HETATM   15  C   UNL     1     -10.239   9.356  69.274  1.00  0.00    -0.202 A  
HETATM   16  C   UNL     1      -9.944   9.856  68.014  1.00  0.00    -0.179 A  
HETATM   17  O   UNL     1      -9.954   8.046  69.522  1.00  0.00    -0.179 OA 
HETATM   18  C   UNL     1     -10.253  11.187  67.676  1.00  0.00    -0.208 A  
HETATM   19  H   UNL     1      -9.553   7.488  68.866  1.00  0.00     0.000 HD 
HETATM   20  C   UNL     1      -9.965  11.621  66.249  1.00  0.00    -0.247 C  
HETATM   21  C   UNL     1     -10.787  12.825  65.730  1.00  0.00    -0.299 C  
HETATM   22  C   UNL     1     -10.577  13.955  66.765  1.00  0.00    -0.277 C  
ENDROOT
BRANCH  21  23
HETATM   23  C   UNL     1     -12.268  12.445  65.525  1.00  0.00    -0.356 C  
BRANCH  23  24
HETATM   24  C   UNL     1     -12.715  12.215  64.094  1.00  0.00    -0.416 C  
BRANCH  24  25
HETATM   25  C   UNL     1     -11.642  12.705  63.109  1.00  0.00    -0.232 C  
BRANCH  25  26
HETATM   26  C   UNL     1     -10.194  12.511  63.591  1.00  0.00    -0.310 C  
BRANCH  26  27
HETATM   27  C   UNL     1      -9.366  11.576  62.710  1.00  0.00    -0.222 C  
BRANCH  27  28
HETATM   28  C   UNL     1      -9.797  10.117  62.868  1.00  0.00     0.072 C  
BRANCH  28  29
HETATM   29  C   UNL     1      -8.806   9.277  63.678  1.00  0.00    -0.146 C  
BRANCH  29  30
HETATM   30  C   UNL     1      -7.338   9.716  63.565  1.00  0.00    -0.113 C  
BRANCH  30  31
HETATM   31  C   UNL     1      -6.566   9.116  62.399  1.00  0.00    -0.093 C  
BRANCH  31  32
HETATM   32  S   UNL     1      -6.325   7.318  62.583  1.00  0.00    -0.054 S  
HETATM   33  O   UNL     1      -5.349   7.113  63.704  1.00  0.00    -0.031 OA 
BRANCH  32  34
HETATM   34  C   UNL     1      -7.979   6.918  63.231  1.00  0.00    -0.066 C  
BRANCH  34  35
HETATM   35  C   UNL     1      -7.926   6.469  64.688  1.00  0.00    -0.116 C  
BRANCH  35  36
HETATM   36  C   UNL     1      -8.522   5.074  64.867  1.00  0.00    -0.147 C  
BRANCH  36  37
HETATM   37  C   UNL     1      -7.510   4.042  65.359  1.00  0.00    -0.081 C  
HETATM   38  F   UNL     1      -6.269   4.608  65.331  1.00  0.00    -0.029 F  
HETATM   39  C   UNL     1      -7.523   2.720  64.577  1.00  0.00    -0.074 C  
HETATM   40  F   UNL     1      -7.776   3.813  66.679  1.00  0.00    -0.083 F  
HETATM   41  F   UNL     1      -8.532   2.656  63.682  1.00  0.00    -0.083 F  
HETATM   42  F   UNL     1      -6.364   2.541  63.901  1.00  0.00    -0.016 F  
HETATM   43  F   UNL     1      -7.663   1.649  65.399  1.00  0.00    -0.064 F  
ENDBRANCH  36  37
ENDBRANCH  35  36
ENDBRANCH  34  35
ENDBRANCH  32  34
ENDBRANCH  31  32
ENDBRANCH  30  31
ENDBRANCH  29  30
ENDBRANCH  28  29
ENDBRANCH  27  28
ENDBRANCH  26  27
ENDBRANCH  25  26
ENDBRANCH  24  25
ENDBRANCH  23  24
ENDBRANCH  21  23
TORSDOF 14
ENDMDL
