MODEL       13
REMARK 921   NORMALIZED FREE ENERGY PREDICTED BY IDOCK:   -6.45 KCAL/MOL
REMARK 922        TOTAL FREE ENERGY PREDICTED BY IDOCK:   -8.88 KCAL/MOL
REMARK 923 INTER-LIGAND FREE ENERGY PREDICTED BY IDOCK:   -8.05 KCAL/MOL
REMARK 924 INTRA-LIGAND FREE ENERGY PREDICTED BY IDOCK:   -0.83 KCAL/MOL
REMARK 927      BINDING AFFINITY PREDICTED BY RF-SCORE:    0.00 PKD
ROOT
HETATM    1  C   UNL     1     -12.995  15.894  73.663  1.00  0.00    -0.685 C  
HETATM    2  C   UNL     1     -12.713  15.226  72.348  1.00  0.00    -0.449 A  
HETATM    3  C   UNL     1     -13.088  13.894  72.127  1.00  0.00    -0.497 A  
HETATM    4  C   UNL     1     -12.763  13.257  70.927  1.00  0.00    -0.332 A  
HETATM    5  C   UNL     1     -12.067  13.961  69.940  1.00  0.00    -0.344 A  
HETATM    6  C   UNL     1     -12.032  15.924  71.340  1.00  0.00    -0.515 A  
HETATM    7  C   UNL     1     -11.709  15.295  70.135  1.00  0.00    -0.342 A  
ENDROOT
BRANCH   5   8
HETATM    8  S   UNL     1     -11.601  13.115  68.450  1.00  0.00    -0.360 S  
HETATM    9  O   UNL     1     -10.177  13.251  68.236  1.00  0.00    -0.239 OA 
HETATM   10  O   UNL     1     -12.218  11.801  68.500  1.00  0.00    -0.430 OA 
BRANCH   8  11
HETATM   11  N   UNL     1     -12.407  13.933  67.247  1.00  0.00    -0.495 N  
HETATM   12  H   UNL     1     -12.958  14.754  67.495  1.00  0.00     0.000 HD 
BRANCH  11  13
HETATM   13  C   UNL     1     -12.357  13.538  65.919  1.00  0.00    -0.456 C  
HETATM   14  O   UNL     1     -12.664  14.294  65.008  1.00  0.00    -0.625 OA 
BRANCH  13  15
HETATM   15  N   UNL     1     -11.965  12.221  65.747  1.00  0.00    -0.372 N  
HETATM   16  H   UNL     1     -12.572  11.479  66.096  1.00  0.00     0.000 HD 
BRANCH  15  17
HETATM   17  N   UNL     1     -10.742  11.863  65.101  1.00  0.00    -0.282 NA 
HETATM   18  C   UNL     1      -9.996  10.882  65.912  1.00  0.00    -0.243 C  
HETATM   19  C   UNL     1      -8.668  10.363  65.350  1.00  0.00    -0.193 C  
HETATM   20  C   UNL     1      -8.848   9.460  64.134  1.00  0.00    -0.216 C  
HETATM   21  C   UNL     1      -8.949  10.212  62.812  1.00  0.00    -0.268 C  
HETATM   22  C   UNL     1      -9.720  11.527  62.852  1.00  0.00    -0.302 C  
HETATM   23  C   UNL     1     -10.987  11.476  63.701  1.00  0.00    -0.404 C  
ENDBRANCH  15  17
ENDBRANCH  13  15
ENDBRANCH  11  13
ENDBRANCH   8  11
ENDBRANCH   5   8
TORSDOF 5
ENDMDL
