MODEL      180
REMARK 921   NORMALIZED FREE ENERGY PREDICTED BY IDOCK:    5.14 KCAL/MOL
REMARK 922        TOTAL FREE ENERGY PREDICTED BY IDOCK:    6.86 KCAL/MOL
REMARK 923 INTER-LIGAND FREE ENERGY PREDICTED BY IDOCK:    4.66 KCAL/MOL
REMARK 924 INTRA-LIGAND FREE ENERGY PREDICTED BY IDOCK:    2.20 KCAL/MOL
REMARK 927      BINDING AFFINITY PREDICTED BY RF-SCORE:    0.00 PKD
ROOT
HETATM    1  C   UNL     1     -12.469  16.879  64.560  1.00  0.00     3.695 C  
HETATM    2  N   UNL     1     -11.726  16.374  65.711  1.00  0.00     0.883 N  
HETATM    3  C   UNL     1     -12.507  16.123  66.909  1.00  0.00     2.528 C  
HETATM    4  C   UNL     1     -10.332  16.474  65.646  1.00  0.00    -0.322 C  
HETATM    5  O   UNL     1      -9.828  16.941  64.611  1.00  0.00     1.074 OA 
ENDROOT
BRANCH   4   6
HETATM    6  C   UNL     1      -9.385  15.993  66.848  1.00  0.00    -0.246 C  
BRANCH   6   7
HETATM    7  C   UNL     1      -9.096  14.453  66.523  1.00  0.00    -0.233 C  
BRANCH   7   8
HETATM    8  C   UNL     1     -10.293  13.562  66.145  1.00  0.00    -0.296 C  
BRANCH   8   9
HETATM    9  N   UNL     1     -10.114  12.112  66.372  1.00  0.00    -0.216 NA 
HETATM   10  C   UNL     1      -9.665  11.344  65.201  1.00  0.00    -0.244 C  
HETATM   11  C   UNL     1      -8.192  11.569  64.856  1.00  0.00     0.851 C  
HETATM   12  C   UNL     1      -7.280  11.197  66.047  1.00  0.00     0.057 C  
HETATM   13  H   UNL     1      -5.376  11.356  66.449  1.00  0.00     0.000 HD 
HETATM   14  O   UNL     1      -5.937  11.584  65.717  1.00  0.00    -0.017 OA 
HETATM   15  C   UNL     1      -7.748  12.066  67.235  1.00  0.00    -0.168 C  
HETATM   16  C   UNL     1      -9.236  11.856  67.529  1.00  0.00    -0.177 C  
BRANCH  12  17
HETATM   17  C   UNL     1      -7.178   9.691  66.343  1.00  0.00    -0.094 A  
HETATM   18  C   UNL     1      -8.298   8.947  66.762  1.00  0.00    -0.111 A  
HETATM   19  C   UNL     1      -8.219   7.570  67.001  1.00  0.00    -0.124 A  
HETATM   20  C   UNL     1      -7.019   6.900  66.804  1.00  0.00    -0.066 A  
HETATM   21  C   UNL     1      -5.899   7.598  66.370  1.00  0.00    -0.037 A  
HETATM   22 CL   UNL     1      -6.928   5.205  67.072  1.00  0.00    -0.063 Cl 
HETATM   23  C   UNL     1      -5.982   8.976  66.134  1.00  0.00    -0.055 A  
ENDBRANCH  12  17
ENDBRANCH   8   9
ENDBRANCH   7   8
ENDBRANCH   6   7
BRANCH   6  24
HETATM   24  C   UNL     1      -8.041  16.794  66.768  1.00  0.00    -0.273 A  
HETATM   25  C   UNL     1      -8.057  18.196  66.619  1.00  0.00    -0.283 A  
HETATM   26  C   UNL     1      -6.777  16.184  66.849  1.00  0.00    -0.100 A  
HETATM   27  C   UNL     1      -6.871  18.930  66.495  1.00  0.00    -0.223 A  
HETATM   28  C   UNL     1      -5.638  18.286  66.530  1.00  0.00    -0.178 A  
HETATM   29  C   UNL     1      -5.593  16.911  66.714  1.00  0.00    -0.165 A  
ENDBRANCH   6  24
BRANCH   6  30
HETATM   30  C   UNL     1     -10.116  16.075  68.234  1.00  0.00    -0.229 A  
HETATM   31  C   UNL     1     -10.906  17.330  70.183  1.00  0.00     0.663 A  
HETATM   32  C   UNL     1     -10.517  14.904  68.917  1.00  0.00    -0.242 A  
HETATM   33  C   UNL     1     -10.372  17.293  68.889  1.00  0.00    -0.352 A  
HETATM   34  C   UNL     1     -11.271  16.155  70.830  1.00  0.00    -0.329 A  
HETATM   35  C   UNL     1     -11.098  14.940  70.186  1.00  0.00    -0.247 A  
ENDBRANCH   6  30
ENDBRANCH   4   6
TORSDOF 7
ENDMDL
