MODEL       14
REMARK 921   NORMALIZED FREE ENERGY PREDICTED BY IDOCK:   -5.94 KCAL/MOL
REMARK 922        TOTAL FREE ENERGY PREDICTED BY IDOCK:  -11.15 KCAL/MOL
REMARK 923 INTER-LIGAND FREE ENERGY PREDICTED BY IDOCK:  -10.09 KCAL/MOL
REMARK 924 INTRA-LIGAND FREE ENERGY PREDICTED BY IDOCK:   -1.07 KCAL/MOL
REMARK 927      BINDING AFFINITY PREDICTED BY RF-SCORE:    0.00 PKD
ROOT
HETATM    1  C   UNL     1     -10.757  12.325  66.991  1.00  0.00    -0.263 C  
HETATM    2  C   UNL     1     -12.025  12.282  66.139  1.00  0.00    -0.323 C  
HETATM    3  C   UNL     1     -12.107  13.695  65.555  1.00  0.00    -0.411 C  
HETATM    4  O   UNL     1     -13.450  14.160  65.576  1.00  0.00    -0.710 OA 
HETATM    5  C   UNL     1     -11.230  14.605  66.456  1.00  0.00    -0.346 C  
HETATM    6  H   UNL     1     -13.500  15.037  65.214  1.00  0.00     0.000 HD 
HETATM    7  C   UNL     1     -12.660  12.617  70.838  1.00  0.00    -0.338 A  
HETATM    8  C   UNL     1     -10.832  13.694  67.645  1.00  0.00    -0.268 C  
HETATM    9  C   UNL     1     -12.796  11.534  71.692  1.00  0.00    -0.475 A  
HETATM   10  C   UNL     1     -11.888  13.731  68.759  1.00  0.00    -0.398 C  
HETATM   11  C   UNL     1     -12.249  10.307  71.332  1.00  0.00    -0.481 A  
HETATM   12  C   UNL     1     -11.961  12.493  69.626  1.00  0.00    -0.339 A  
HETATM   13  C   UNL     1     -11.573  10.136  70.112  1.00  0.00    -0.277 A  
HETATM   14  C   UNL     1     -11.418  11.239  69.234  1.00  0.00    -0.369 A  
HETATM   15  C   UNL     1     -10.594  11.180  67.973  1.00  0.00    -0.233 C  
ENDROOT
BRANCH   5  16
HETATM   16  C   UNL     1      -9.957  15.112  65.743  1.00  0.00    -0.375 C  
BRANCH  16  17
HETATM   17  C   UNL     1      -9.439  16.474  66.208  1.00  0.00    -0.339 C  
BRANCH  17  18
HETATM   18  C   UNL     1     -10.159  17.696  65.624  1.00  0.00     0.045 C  
HETATM   19  O   UNL     1     -11.154  17.261  64.698  1.00  0.00    -1.052 OA 
HETATM   20  H   UNL     1     -11.600  18.018  64.336  1.00  0.00     0.000 HD 
BRANCH  18  21
HETATM   21  C   UNL     1     -10.870  18.513  66.713  1.00  0.00    -0.168 C  
BRANCH  21  22
HETATM   22  C   UNL     1     -10.249  18.321  68.096  1.00  0.00    -0.406 C  
BRANCH  22  23
HETATM   23  C   UNL     1      -9.352  19.489  68.498  1.00  0.00    -0.435 C  
BRANCH  23  24
HETATM   24  C   UNL     1      -7.895  19.030  68.560  1.00  0.00    -0.375 C  
HETATM   25  C   UNL     1      -7.020  19.808  67.595  1.00  0.00    -0.280 C  
ENDBRANCH  23  24
ENDBRANCH  22  23
ENDBRANCH  21  22
ENDBRANCH  18  21
ENDBRANCH  17  18
ENDBRANCH  16  17
ENDBRANCH   5  16
BRANCH  13  26
HETATM   26  O   UNL     1     -11.096   8.851  69.985  1.00  0.00    -0.237 OA 
BRANCH  26  27
HETATM   27  C   UNL     1     -10.895   8.084  71.167  1.00  0.00    -0.238 C  
HETATM   28  C   UNL     1     -11.250   6.623  70.960  1.00  0.00    -0.300 C  
HETATM   29  O   UNL     1     -11.618   6.330  69.694  1.00  0.00    -0.430 OA 
HETATM   30  O   UNL     1     -11.201   5.781  71.846  1.00  0.00    -0.264 OA 
ENDBRANCH  26  27
ENDBRANCH  13  26
TORSDOF 9
ENDMDL
