MODEL      324
REMARK 921   NORMALIZED FREE ENERGY PREDICTED BY IDOCK:   -2.01 KCAL/MOL
REMARK 922        TOTAL FREE ENERGY PREDICTED BY IDOCK:   -3.73 KCAL/MOL
REMARK 923 INTER-LIGAND FREE ENERGY PREDICTED BY IDOCK:   -3.08 KCAL/MOL
REMARK 924 INTRA-LIGAND FREE ENERGY PREDICTED BY IDOCK:   -0.65 KCAL/MOL
REMARK 927      BINDING AFFINITY PREDICTED BY RF-SCORE:    0.00 PKD
ROOT
HETATM    1  C   UNL     1     -11.670  14.510  73.241  1.00  0.00     0.266 C  
HETATM    2  C   UNL     1     -11.332  14.334  71.764  1.00  0.00     1.072 C  
ENDROOT
BRANCH   2   3
HETATM    3  N   UNL     1     -11.771  15.463  70.913  1.00  0.00    -0.318 NA 
BRANCH   3   4
HETATM    4  C   UNL     1     -10.650  16.287  70.424  1.00  0.00     0.022 C  
HETATM    5  C   UNL     1     -10.900  17.791  70.310  1.00  0.00     1.507 C  
ENDBRANCH   3   4
BRANCH   3   6
HETATM    6  C   UNL     1     -12.635  15.009  69.794  1.00  0.00    -0.110 C  
BRANCH   6   7
HETATM    7  C   UNL     1     -11.836  14.445  68.636  1.00  0.00    -0.366 A  
HETATM    8  C   UNL     1     -11.562  13.078  68.506  1.00  0.00    -0.328 A  
HETATM    9  C   UNL     1     -10.623  12.629  67.592  1.00  0.00    -0.232 A  
HETATM   10  O   UNL     1     -12.119  12.150  69.339  1.00  0.00    -0.268 OA 
HETATM   11  C   UNL     1      -9.937  13.552  66.796  1.00  0.00    -0.269 A  
HETATM   12  H   UNL     1     -11.933  11.223  69.251  1.00  0.00     0.000 HD 
HETATM   13  C   UNL     1     -10.239  14.921  66.843  1.00  0.00    -0.254 A  
HETATM   14  C   UNL     1     -11.234  15.341  67.735  1.00  0.00    -0.327 A  
BRANCH  13  15
HETATM   15  N   UNL     1      -9.638  15.903  66.016  1.00  0.00    -0.326 NA 
HETATM   16  H   UNL     1      -9.176  15.562  65.172  1.00  0.00     0.000 HD 
BRANCH  15  17
HETATM   17  C   UNL     1      -9.605  17.313  66.229  1.00  0.00    -0.248 A  
HETATM   18  C   UNL     1      -8.644  17.934  67.059  1.00  0.00    -0.248 A  
HETATM   19  C   UNL     1      -7.471  17.284  67.504  1.00  0.00    -0.186 A  
HETATM   20  C   UNL     1      -6.638  17.875  68.446  1.00  0.00    -0.205 A  
HETATM   21  C   UNL     1      -6.964  19.131  68.934  1.00  0.00    -0.336 A  
HETATM   22 CL   UNL     1      -6.015  19.828  70.188  1.00  0.00    -0.322 Cl 
HETATM   23  C   UNL     1      -8.063  19.822  68.427  1.00  0.00    -0.305 A  
HETATM   24  C   UNL     1      -8.888  19.261  67.465  1.00  0.00    -0.299 A  
HETATM   25  N   UNL     1      -9.913  19.985  66.981  1.00  0.00    -0.416 NA 
HETATM   26  C   UNL     1     -10.741  19.403  66.089  1.00  0.00    -0.411 A  
HETATM   27  C   UNL     1     -10.651  18.081  65.709  1.00  0.00    -0.174 A  
ENDBRANCH  15  17
ENDBRANCH  13  15
ENDBRANCH   6   7
ENDBRANCH   3   6
ENDBRANCH   2   3
TORSDOF 6
ENDMDL
