MODEL      181
REMARK 921   NORMALIZED FREE ENERGY PREDICTED BY IDOCK:   -2.73 KCAL/MOL
REMARK 922        TOTAL FREE ENERGY PREDICTED BY IDOCK:   -4.33 KCAL/MOL
REMARK 923 INTER-LIGAND FREE ENERGY PREDICTED BY IDOCK:   -4.27 KCAL/MOL
REMARK 924 INTRA-LIGAND FREE ENERGY PREDICTED BY IDOCK:   -0.06 KCAL/MOL
REMARK 927      BINDING AFFINITY PREDICTED BY RF-SCORE:    0.00 PKD
ROOT
HETATM    1  C   UNL     1      -7.365   9.088  70.472  1.00  0.00    -0.086 C  
HETATM    2  N   UNL     1      -8.295   8.441  69.541  1.00  0.00    -0.118 NA 
HETATM    3  C   UNL     1      -8.369   7.008  69.844  1.00  0.00    -0.139 C  
ENDROOT
BRANCH   2   4
HETATM    4  C   UNL     1      -9.614   9.103  69.612  1.00  0.00    -0.176 C  
BRANCH   4   5
HETATM    5  C   UNL     1      -9.895  10.047  68.435  1.00  0.00    -0.154 C  
BRANCH   5   6
HETATM    6  O   UNL     1      -9.565  11.403  68.778  1.00  0.00    -0.190 OA 
BRANCH   6   7
HETATM    7  C   UNL     1      -8.986  12.121  67.657  1.00  0.00    -0.178 C  
BRANCH   7   8
HETATM    8  C   UNL     1      -8.993  11.223  66.421  1.00  0.00    -0.194 A  
HETATM    9  C   UNL     1     -10.102  11.246  65.556  1.00  0.00    -0.306 A  
HETATM   10  C   UNL     1      -7.843  10.516  66.030  1.00  0.00    -0.147 A  
HETATM   11 CL   UNL     1      -8.763   9.286  62.342  1.00  0.00    -0.227 Cl 
HETATM   12  C   UNL     1     -10.035  10.633  64.302  1.00  0.00    -0.413 A  
HETATM   13  C   UNL     1      -7.784   9.892  64.783  1.00  0.00    -0.138 A  
HETATM   14  C   UNL     1      -8.873   9.972  63.917  1.00  0.00    -0.229 A  
ENDBRANCH   7   8
BRANCH   7  15
HETATM   15  C   UNL     1      -9.689  13.463  67.435  1.00  0.00    -0.221 A  
HETATM   16  C   UNL     1     -11.593  14.762  67.715  1.00  0.00    -0.357 A  
HETATM   17  C   UNL     1      -9.693  15.752  66.690  1.00  0.00    -0.266 A  
HETATM   18  C   UNL     1      -9.028  14.535  66.832  1.00  0.00    -0.267 A  
HETATM   19  N   UNL     1     -10.973  13.570  67.877  1.00  0.00    -0.250 NA 
HETATM   20  C   UNL     1     -10.999  15.872  67.141  1.00  0.00    -0.214 A  
ENDBRANCH   7  15
ENDBRANCH   6   7
ENDBRANCH   5   6
ENDBRANCH   4   5
ENDBRANCH   2   4
TORSDOF 6
ENDMDL
