MODEL       55
REMARK 921   NORMALIZED FREE ENERGY PREDICTED BY IDOCK:   -4.59 KCAL/MOL
REMARK 922        TOTAL FREE ENERGY PREDICTED BY IDOCK:   -8.85 KCAL/MOL
REMARK 923 INTER-LIGAND FREE ENERGY PREDICTED BY IDOCK:   -7.94 KCAL/MOL
REMARK 924 INTRA-LIGAND FREE ENERGY PREDICTED BY IDOCK:   -0.91 KCAL/MOL
REMARK 927      BINDING AFFINITY PREDICTED BY RF-SCORE:    0.00 PKD
ROOT
HETATM    1  C   UNL     1      -6.293  10.413  67.957  1.00  0.00    -0.059 C  
HETATM    2  N   UNL     1      -7.378   9.439  67.875  1.00  0.00    -0.083 N  
HETATM    3  O   UNL     1      -6.416   8.297  66.126  1.00  0.00    -0.049 OA 
HETATM    4  C   UNL     1      -7.355   8.434  66.905  1.00  0.00    -0.083 C  
ENDROOT
BRANCH   2   5
HETATM    5  C   UNL     1      -8.422   9.580  68.843  1.00  0.00    -0.123 A  
HETATM    6  I   UNL     1      -6.446   7.902  70.536  1.00  0.00    -0.037 I  
HETATM    7  C   UNL     1      -9.528  10.426  68.572  1.00  0.00    -0.159 A  
HETATM    8  C   UNL     1     -10.591  10.520  69.493  1.00  0.00    -0.278 A  
HETATM    9  C   UNL     1      -8.348   8.870  70.070  1.00  0.00    -0.133 A  
HETATM   10  I   UNL     1      -9.498  11.582  66.738  1.00  0.00    -0.228 I  
HETATM   11  C   UNL     1      -9.435   8.886  70.981  1.00  0.00    -0.318 A  
HETATM   12  I   UNL     1     -12.421   9.399  71.755  1.00  0.00    -0.471 I  
HETATM   13  C   UNL     1     -10.571   9.677  70.647  1.00  0.00    -0.319 A  
BRANCH   8  14
HETATM   14  C   UNL     1     -11.633  11.588  69.381  1.00  0.00    -0.321 C  
HETATM   15  H   UNL     1     -13.317  12.037  68.472  1.00  0.00     0.000 HD 
HETATM   16  O   UNL     1     -12.656  11.359  68.543  1.00  0.00    -0.205 OA 
BRANCH  14  17
HETATM   17  N   UNL     1     -11.547  12.679  70.045  1.00  0.00    -0.531 NA 
HETATM   18  H   UNL     1     -11.308  12.670  71.037  1.00  0.00     0.000 HD 
BRANCH  17  19
HETATM   19  C   UNL     1     -11.803  13.947  69.343  1.00  0.00    -0.334 C  
BRANCH  19  20
HETATM   20  C   UNL     1     -11.428  15.119  70.258  1.00  0.00    -0.282 C  
HETATM   21  H   UNL     1     -10.546  16.870  70.066  1.00  0.00     0.000 HD 
HETATM   22  O   UNL     1     -10.779  16.144  69.499  1.00  0.00    -0.265 OA 
BRANCH  20  23
HETATM   23  C   UNL     1     -12.667  15.681  70.975  1.00  0.00    -0.460 C  
HETATM   24  O   UNL     1     -13.818  14.867  70.755  1.00  0.00    -0.624 OA 
HETATM   25  H   UNL     1     -14.584  15.215  71.197  1.00  0.00     0.000 HD 
ENDBRANCH  20  23
ENDBRANCH  19  20
ENDBRANCH  17  19
ENDBRANCH  14  17
ENDBRANCH   8  14
BRANCH  11  26
HETATM   26  C   UNL     1      -9.349   8.084  72.248  1.00  0.00    -0.197 C  
HETATM   27  O   UNL     1      -8.805   8.711  73.312  1.00  0.00    -0.323 OA 
HETATM   28  H   UNL     1      -8.750   8.204  74.114  1.00  0.00     0.000 HD 
BRANCH  26  29
HETATM   29  N   UNL     1      -9.703   6.855  72.323  1.00  0.00    -0.148 NA 
HETATM   30  H   UNL     1      -9.656   6.252  71.502  1.00  0.00     0.000 HD 
BRANCH  29  31
HETATM   31  C   UNL     1     -10.179   6.325  73.611  1.00  0.00    -0.257 C  
BRANCH  31  32
HETATM   32  C   UNL     1     -11.153   5.136  73.434  1.00  0.00    -0.320 C  
HETATM   33  O   UNL     1     -12.404   5.535  72.852  1.00  0.00    -0.519 OA 
HETATM   34  H   UNL     1     -13.003   4.806  72.744  1.00  0.00     0.000 HD 
BRANCH  32  35
HETATM   35  C   UNL     1     -10.527   4.065  72.524  1.00  0.00    -0.117 C  
HETATM   36  O   UNL     1     -10.827   2.739  72.959  1.00  0.00    -0.154 OA 
HETATM   37  H   UNL     1     -10.441   2.078  72.397  1.00  0.00     0.000 HD 
ENDBRANCH  32  35
ENDBRANCH  31  32
ENDBRANCH  29  31
ENDBRANCH  26  29
ENDBRANCH  11  26
ENDBRANCH   2   5
BRANCH   4  38
HETATM   38  C   UNL     1      -8.571   7.494  66.807  1.00  0.00    -0.127 C  
HETATM   39  O   UNL     1      -9.451   7.887  65.772  1.00  0.00    -0.415 OA 
HETATM   40  H   UNL     1     -10.201   7.306  65.711  1.00  0.00     0.000 HD 
ENDBRANCH   4  38
TORSDOF 12
ENDMDL
