MODEL       90
REMARK 921   NORMALIZED FREE ENERGY PREDICTED BY IDOCK:   -4.78 KCAL/MOL
REMARK 922        TOTAL FREE ENERGY PREDICTED BY IDOCK:   -9.40 KCAL/MOL
REMARK 923 INTER-LIGAND FREE ENERGY PREDICTED BY IDOCK:   -9.08 KCAL/MOL
REMARK 924 INTRA-LIGAND FREE ENERGY PREDICTED BY IDOCK:   -0.32 KCAL/MOL
REMARK 927      BINDING AFFINITY PREDICTED BY RF-SCORE:    0.00 PKD
ROOT
HETATM    1  C   UNL     1      -9.111   4.944  69.559  1.00  0.00    -0.149 C  
HETATM    2  C   UNL     1      -8.414   5.998  70.429  1.00  0.00    -0.132 C  
HETATM    3  C   UNL     1      -8.423   5.551  71.898  1.00  0.00    -0.123 C  
HETATM    4  C   UNL     1      -6.928   6.027  69.981  1.00  0.00    -0.069 C  
ENDROOT
BRANCH   2   5
HETATM    5  C   UNL     1      -8.989   7.438  70.227  1.00  0.00    -0.147 C  
BRANCH   5   6
HETATM    6  C   UNL     1     -10.325   7.971  70.873  1.00  0.00    -0.221 C  
HETATM    7  C   UNL     1     -10.123   8.519  72.304  1.00  0.00    -0.386 C  
HETATM    8  C   UNL     1     -11.406   6.875  70.965  1.00  0.00    -0.342 C  
BRANCH   6   9
HETATM    9  C   UNL     1     -10.810   9.156  69.994  1.00  0.00    -0.256 A  
HETATM   10  C   UNL     1     -10.594   9.224  68.607  1.00  0.00    -0.219 A  
HETATM   11  C   UNL     1     -11.051  10.305  67.850  1.00  0.00    -0.341 A  
HETATM   12  C   UNL     1     -11.723  11.358  68.458  1.00  0.00    -0.318 A  
HETATM   13  C   UNL     1     -11.486  10.243  70.589  1.00  0.00    -0.435 A  
HETATM   14  C   UNL     1     -11.932  11.333  69.833  1.00  0.00    -0.440 A  
BRANCH  12  15
HETATM   15  O   UNL     1     -12.091  12.366  67.610  1.00  0.00    -0.470 OA 
BRANCH  15  16
HETATM   16  C   UNL     1     -11.974  13.687  68.119  1.00  0.00    -0.355 C  
BRANCH  16  17
HETATM   17  C   UNL     1     -11.446  14.582  66.996  1.00  0.00    -0.370 C  
BRANCH  17  18
HETATM   18  O   UNL     1     -10.162  15.173  67.231  1.00  0.00    -0.239 OA 
BRANCH  18  19
HETATM   19  C   UNL     1      -9.599  15.943  66.174  1.00  0.00    -0.333 C  
BRANCH  19  20
HETATM   20  C   UNL     1     -10.410  17.218  65.906  1.00  0.00    -0.278 C  
BRANCH  20  21
HETATM   21  N   UNL     1      -9.818  18.512  66.483  1.00  0.00    -0.346 N  
HETATM   22  C   UNL     1     -10.463  19.673  65.714  1.00  0.00    -0.444 C  
HETATM   23  C   UNL     1     -10.191  18.657  67.954  1.00  0.00    -0.392 C  
BRANCH  21  24
HETATM   24  C   UNL     1      -8.279  18.539  66.279  1.00  0.00    -0.225 C  
BRANCH  24  25
HETATM   25  C   UNL     1      -7.505  19.292  67.327  1.00  0.00    -0.253 A  
HETATM   26  C   UNL     1      -6.998  20.569  67.042  1.00  0.00    -0.346 A  
HETATM   27  C   UNL     1      -6.154  21.210  67.946  1.00  0.00    -0.400 A  
HETATM   28  C   UNL     1      -5.825  20.592  69.150  1.00  0.00    -0.395 A  
HETATM   29  C   UNL     1      -6.369  19.351  69.471  1.00  0.00    -0.347 A  
HETATM   30  C   UNL     1      -7.218  18.708  68.571  1.00  0.00    -0.314 A  
ENDBRANCH  24  25
ENDBRANCH  21  24
ENDBRANCH  20  21
ENDBRANCH  19  20
ENDBRANCH  18  19
ENDBRANCH  17  18
ENDBRANCH  16  17
ENDBRANCH  15  16
ENDBRANCH  12  15
ENDBRANCH   6   9
ENDBRANCH   5   6
ENDBRANCH   2   5
TORSDOF 12
ENDMDL
