MODEL      214
REMARK 921   NORMALIZED FREE ENERGY PREDICTED BY IDOCK:    3.36 KCAL/MOL
REMARK 922        TOTAL FREE ENERGY PREDICTED BY IDOCK:    3.31 KCAL/MOL
REMARK 923 INTER-LIGAND FREE ENERGY PREDICTED BY IDOCK:    3.07 KCAL/MOL
REMARK 924 INTRA-LIGAND FREE ENERGY PREDICTED BY IDOCK:    0.23 KCAL/MOL
REMARK 927      BINDING AFFINITY PREDICTED BY RF-SCORE:    0.00 PKD
ROOT
HETATM    1  C   UNL     1      -5.128  19.430  66.148  1.00  0.00    -0.152 C  
HETATM    2  C   UNL     1      -5.990  20.694  66.113  1.00  0.00    -0.215 C  
HETATM    3  N   UNL     1      -7.372  20.248  66.443  1.00  0.00    -0.274 NA 
HETATM    4  C   UNL     1      -7.211  19.069  66.997  1.00  0.00    -0.208 C  
HETATM    5  N   UNL     1      -5.921  18.593  67.014  1.00  0.00    -0.158 NA 
ENDROOT
BRANCH   4   6
HETATM    6  C   UNL     1      -8.410  18.321  67.577  1.00  0.00    -0.247 C  
HETATM    7  C   UNL     1      -7.939  16.931  68.040  1.00  0.00    -0.185 C  
HETATM    8  C   UNL     1      -7.637  16.053  66.828  1.00  0.00    -0.247 C  
HETATM    9  C   UNL     1      -8.902  15.808  66.012  1.00  0.00    -0.260 C  
HETATM   10  C   UNL     1      -9.813  17.008  65.894  1.00  0.00    -0.202 A  
HETATM   11  C   UNL     1     -10.955  16.892  65.088  1.00  0.00    -0.060 A  
HETATM   12  C   UNL     1     -11.887  17.926  65.020  1.00  0.00     3.669 A  
HETATM   13  C   UNL     1     -11.681  19.093  65.751  1.00  0.00     2.456 A  
HETATM   14  C   UNL     1     -10.543  19.226  66.550  1.00  0.00    -0.538 A  
HETATM   15  C   UNL     1      -9.603  18.184  66.641  1.00  0.00    -0.306 A  
ENDBRANCH   4   6
TORSDOF 1
ENDMDL
