MODEL        7
REMARK 921   NORMALIZED FREE ENERGY PREDICTED BY IDOCK:   -7.01 KCAL/MOL
REMARK 922        TOTAL FREE ENERGY PREDICTED BY IDOCK:  -11.44 KCAL/MOL
REMARK 923 INTER-LIGAND FREE ENERGY PREDICTED BY IDOCK:  -10.57 KCAL/MOL
REMARK 924 INTRA-LIGAND FREE ENERGY PREDICTED BY IDOCK:   -0.87 KCAL/MOL
REMARK 927      BINDING AFFINITY PREDICTED BY RF-SCORE:    0.00 PKD
ROOT
HETATM    1  C   UNL     1     -11.862  14.009  68.396  1.00  0.00    -0.362 C  
HETATM    2  S   UNL     1     -10.983  15.070  69.511  1.00  0.00    -0.280 SA 
HETATM    3  C   UNL     1     -10.142  16.244  68.405  1.00  0.00    -0.237 C  
HETATM    4  C   UNL     1     -10.367  16.121  66.925  1.00  0.00    -0.297 C  
HETATM    5  C   UNL     1     -11.897  12.803  66.722  1.00  0.00    -0.382 C  
HETATM    6  CA  UNL     1     -11.063  15.129  66.310  1.00  0.00    -0.309 C  
HETATM    7  N   UNL     1     -11.531  14.070  67.001  1.00  0.00    -0.333 N  
HETATM    8  CA  UNL     1     -11.763  12.434  68.233  1.00  0.00    -0.345 C  
HETATM    9  C   UNL     1     -11.292  15.205  64.832  1.00  0.00    -0.399 C  
HETATM   10  O   UNL     1     -11.949  12.176  65.689  1.00  0.00    -0.503 OA 
HETATM   11  O   UNL     1     -11.306  14.068  64.132  1.00  0.00    -0.300 OA 
HETATM   12  OXT UNL     1     -11.534  16.269  64.277  1.00  0.00    -0.727 OA 
ENDROOT
BRANCH   4  13
HETATM   13  C   UNL     1      -9.575  17.173  66.146  1.00  0.00    -0.218 C  
BRANCH  13  14
HETATM   14  O   UNL     1     -10.183  18.472  66.230  1.00  0.00    -0.385 OA 
BRANCH  14  15
HETATM   15  C   UNL     1      -9.474  19.456  66.855  1.00  0.00    -0.333 C  
HETATM   16  C   UNL     1     -10.089  19.816  68.180  1.00  0.00    -0.574 C  
HETATM   17  O   UNL     1      -8.435  19.950  66.440  1.00  0.00    -0.332 OA 
ENDBRANCH  14  15
ENDBRANCH  13  14
ENDBRANCH   4  13
BRANCH   8  18
HETATM   18  N   UNL     1     -10.629  11.441  68.470  1.00  0.00    -0.189 N  
HETATM   19  C   UNL     1     -10.373  10.472  69.437  1.00  0.00    -0.234 C  
HETATM   20  H   UNL     1      -9.897  11.500  67.763  1.00  0.00     0.000 HD 
HETATM   21  O   UNL     1      -9.220   9.979  69.484  1.00  0.00    -0.200 OA 
BRANCH  19  22
HETATM   22  C   UNL     1     -11.417   9.870  70.375  1.00  0.00    -0.301 C  
BRANCH  22  23
HETATM   23  C   UNL     1     -11.172   8.617  71.118  1.00  0.00    -0.272 A  
HETATM   24  N   UNL     1     -10.655   8.569  72.419  1.00  0.00    -0.331 NA 
HETATM   25  H2  UNL     1     -10.800   6.159  74.594  1.00  0.00     0.000 HD 
HETATM   26  N   UNL     1     -10.557   7.078  74.226  1.00  0.00    -0.531 NA 
HETATM   27  C   UNL     1     -11.801   7.447  70.721  1.00  0.00    -0.258 A  
HETATM   28  S   UNL     1     -11.735   6.282  71.966  1.00  0.00    -0.299 SA 
HETATM   29  H1  UNL     1     -10.059   7.744  74.817  1.00  0.00     0.000 HD 
HETATM   30  C   UNL     1     -10.897   7.403  72.961  1.00  0.00    -0.375 A  
ENDBRANCH  22  23
BRANCH  22  31
HETATM   31  N   UNL     1     -12.680  10.166  70.439  1.00  0.00    -0.544 NA 
HETATM   32  H   UNL     1     -13.245  10.000  69.607  1.00  0.00     0.000 HD 
BRANCH  31  33
HETATM   33  O   UNL     1     -13.323  10.694  71.559  1.00  0.00    -0.347 OA 
HETATM   34  C   UNL     1     -13.151  12.053  71.891  1.00  0.00    -0.370 C  
ENDBRANCH  31  33
ENDBRANCH  22  31
ENDBRANCH  19  22
ENDBRANCH   8  18
TORSDOF 8
ENDMDL
