MODEL       13
REMARK 921   NORMALIZED FREE ENERGY PREDICTED BY IDOCK:   -7.41 KCAL/MOL
REMARK 922        TOTAL FREE ENERGY PREDICTED BY IDOCK:  -12.19 KCAL/MOL
REMARK 923 INTER-LIGAND FREE ENERGY PREDICTED BY IDOCK:  -10.75 KCAL/MOL
REMARK 924 INTRA-LIGAND FREE ENERGY PREDICTED BY IDOCK:   -1.45 KCAL/MOL
REMARK 927      BINDING AFFINITY PREDICTED BY RF-SCORE:    0.00 PKD
ROOT
HETATM    1  C   UNL     1     -10.614  19.833  65.822  1.00  0.00    -0.522 C  
HETATM    2  C   UNL     1      -9.164  19.493  66.124  1.00  0.00    -0.363 C  
ENDROOT
BRANCH   2   3
HETATM    3  C   UNL     1      -8.946  19.203  67.606  1.00  0.00    -0.298 C  
BRANCH   3   4
HETATM    4  S   UNL     1      -9.277  17.478  67.977  1.00  0.00    -0.283 S  
HETATM    5  O   UNL     1     -10.674  17.317  68.310  1.00  0.00    -0.373 OA 
HETATM    6  O   UNL     1      -8.225  16.984  68.833  1.00  0.00    -0.254 OA 
BRANCH   4   7
HETATM    7  N   UNL     1      -8.964  16.762  66.477  1.00  0.00    -0.253 N  
HETATM    8  H   UNL     1      -8.183  17.071  65.897  1.00  0.00     0.000 HD 
BRANCH   7   9
HETATM    9  C   UNL     1      -9.833  15.710  66.051  1.00  0.00    -0.333 A  
HETATM   10  C   UNL     1      -9.821  14.471  66.704  1.00  0.00    -0.273 A  
HETATM   11  C   UNL     1     -10.833  13.537  66.470  1.00  0.00    -0.283 A  
HETATM   12  F   UNL     1      -8.863  14.237  67.616  1.00  0.00    -0.166 F  
HETATM   13  C   UNL     1     -10.728  15.939  65.008  1.00  0.00    -0.426 A  
HETATM   14  C   UNL     1     -11.721  13.775  65.420  1.00  0.00    -0.335 A  
HETATM   15  C   UNL     1     -11.655  14.954  64.673  1.00  0.00    -0.395 A  
HETATM   16  F   UNL     1     -12.694  12.904  65.117  1.00  0.00    -0.512 F  
BRANCH  11  17
HETATM   17  C   UNL     1     -11.020  12.339  67.323  1.00  0.00    -0.256 C  
HETATM   18  O   UNL     1     -10.678  11.244  66.882  1.00  0.00    -0.247 OA 
BRANCH  17  19
HETATM   19  C   UNL     1     -11.579  12.469  68.674  1.00  0.00    -0.357 A  
HETATM   20  C   UNL     1     -12.155  13.644  69.138  1.00  0.00    -0.319 A  
HETATM   21  N   UNL     1     -12.733  13.401  70.355  1.00  0.00    -0.136 NA 
HETATM   22  C   UNL     1     -12.513  12.102  70.715  1.00  0.00    -0.271 A  
HETATM   23  H   UNL     1     -13.250  14.084  70.907  1.00  0.00     0.000 HD 
HETATM   24  N   UNL     1     -13.014  11.523  71.821  1.00  0.00    -0.438 NA 
HETATM   25  C   UNL     1     -12.640  10.221  71.953  1.00  0.00    -0.318 A  
HETATM   26  C   UNL     1     -11.777   9.505  71.119  1.00  0.00    -0.438 A  
HETATM   27  C   UNL     1     -11.267  10.205  70.011  1.00  0.00    -0.361 A  
HETATM   28  C   UNL     1     -11.697  11.522  69.751  1.00  0.00    -0.426 A  
BRANCH  26  29
HETATM   29  C   UNL     1     -11.440   8.078  71.333  1.00  0.00    -0.293 A  
HETATM   30  C   UNL     1     -11.223   7.197  70.256  1.00  0.00    -0.309 A  
HETATM   31  C   UNL     1     -10.838   5.867  70.470  1.00  0.00    -0.366 A  
HETATM   32  C   UNL     1     -10.654   5.396  71.766  1.00  0.00    -0.222 A  
HETATM   33  C   UNL     1     -10.874   6.237  72.849  1.00  0.00    -0.284 A  
HETATM   34 CL   UNL     1     -10.146   3.776  72.031  1.00  0.00    -0.237 Cl 
HETATM   35  C   UNL     1     -11.272   7.560  72.632  1.00  0.00    -0.399 A  
ENDBRANCH  26  29
ENDBRANCH  17  19
ENDBRANCH  11  17
ENDBRANCH   7   9
ENDBRANCH   4   7
ENDBRANCH   3   4
ENDBRANCH   2   3
TORSDOF 7
ENDMDL
