MODEL      247
REMARK 921   NORMALIZED FREE ENERGY PREDICTED BY IDOCK:   -1.83 KCAL/MOL
REMARK 922        TOTAL FREE ENERGY PREDICTED BY IDOCK:   -2.73 KCAL/MOL
REMARK 923 INTER-LIGAND FREE ENERGY PREDICTED BY IDOCK:   -2.33 KCAL/MOL
REMARK 924 INTRA-LIGAND FREE ENERGY PREDICTED BY IDOCK:   -0.40 KCAL/MOL
REMARK 927      BINDING AFFINITY PREDICTED BY RF-SCORE:    0.00 PKD
ROOT
HETATM    1  O5* UNL     1     -12.269  16.347  67.406  1.00  0.00     0.875 OA 
HETATM    2  C5* UNL     1     -10.927  16.642  67.016  1.00  0.00     0.015 C  
HETATM    3  H5* UNL     1     -12.875  16.502  66.691  1.00  0.00     0.000 HD 
ENDROOT
BRANCH   2   4
HETATM    4  C4* UNL     1      -9.953  16.394  68.167  1.00  0.00    -0.242 C  
HETATM    5  O4* UNL     1      -9.698  14.982  68.290  1.00  0.00    -0.206 OA 
HETATM    6  C1* UNL     1      -8.365  14.827  68.812  1.00  0.00    -0.168 C  
HETATM    7  H3* UNL     1      -7.675  18.656  68.686  1.00  0.00     0.000 HD 
HETATM    8  C2* UNL     1      -7.572  16.049  68.368  1.00  0.00    -0.145 C  
HETATM    9  C3* UNL     1      -8.606  17.077  67.974  1.00  0.00    -0.217 C  
HETATM   10  O3* UNL     1      -8.515  18.231  68.807  1.00  0.00    -0.300 OA 
BRANCH   6  11
HETATM   11  N   UNL     1      -7.804  13.561  68.373  1.00  0.00    -0.139 NA 
HETATM   12  C   UNL     1      -6.931  12.764  69.060  1.00  0.00    -0.059 A  
HETATM   13  C   UNL     1      -7.295  11.800  67.190  1.00  0.00    -0.146 A  
HETATM   14  N   UNL     1      -6.605  11.689  68.378  1.00  0.00    -0.058 NA 
HETATM   15  C   UNL     1      -8.077  12.943  67.174  1.00  0.00    -0.117 A  
HETATM   16  N   UNL     1      -8.966  13.452  66.287  1.00  0.00    -0.458 NA 
HETATM   17  C   UNL     1      -9.682  12.587  65.651  1.00  0.00    -0.158 C  
HETATM   18  H   UNL     1      -9.062  14.455  66.131  1.00  0.00     0.000 HD 
HETATM   19  N   UNL     1      -9.708  11.211  65.681  1.00  0.00    -0.215 NA 
HETATM   20  C   UNL     1      -8.512  10.396  65.430  1.00  0.00    -0.168 C  
HETATM   21  H   UNL     1     -10.589  10.741  65.884  1.00  0.00     0.000 HD 
HETATM   22  C   UNL     1      -7.176  10.796  66.102  1.00  0.00    -0.126 C  
HETATM   23  O   UNL     1      -6.260  11.250  65.085  1.00  0.00    -0.300 OA 
HETATM   24  H   UNL     1      -6.183  10.608  64.388  1.00  0.00     0.000 HD 
ENDBRANCH   6  11
ENDBRANCH   2   4
TORSDOF 2
ENDMDL
