MODEL      158
REMARK 921   NORMALIZED FREE ENERGY PREDICTED BY IDOCK:   16.04 KCAL/MOL
REMARK 922        TOTAL FREE ENERGY PREDICTED BY IDOCK:   22.07 KCAL/MOL
REMARK 923 INTER-LIGAND FREE ENERGY PREDICTED BY IDOCK:   17.16 KCAL/MOL
REMARK 924 INTRA-LIGAND FREE ENERGY PREDICTED BY IDOCK:    4.91 KCAL/MOL
REMARK 927      BINDING AFFINITY PREDICTED BY RF-SCORE:    0.00 PKD
ROOT
HETATM    1  C   UNL     1      -5.345   4.373  68.884  1.00  0.00    -0.011 C  
HETATM    2  O   UNL     1      -5.231   4.626  70.280  1.00  0.00     0.000 OA 
ENDROOT
BRANCH   2   3
HETATM    3  C   UNL     1      -6.138   5.489  70.837  1.00  0.00    -0.029 A  
HETATM    4  C   UNL     1      -5.972   6.051  72.109  1.00  0.00    -0.036 A  
HETATM    5  C   UNL     1      -6.918   6.881  72.688  1.00  0.00    -0.070 A  
HETATM    6  C   UNL     1      -8.067   7.221  71.956  1.00  0.00    -0.099 A  
HETATM    7  C   UNL     1      -8.220   6.704  70.650  1.00  0.00    -0.124 A  
HETATM    8  C   UNL     1      -9.012   8.047  72.602  1.00  0.00    -0.218 A  
HETATM    9  C   UNL     1      -8.783   8.496  73.900  1.00  0.00     0.148 A  
HETATM   10  C   UNL     1      -7.291   5.807  70.109  1.00  0.00    -0.073 A  
HETATM   11  N   UNL     1      -6.696   7.307  73.942  1.00  0.00    -0.076 NA 
HETATM   12  C   UNL     1      -7.624   8.090  74.524  1.00  0.00    -0.211 A  
BRANCH   8  13
HETATM   13  O   UNL     1     -10.108   8.440  71.863  1.00  0.00    -0.215 OA 
BRANCH  13  14
HETATM   14  C   UNL     1      -9.962   8.845  70.558  1.00  0.00    -0.201 A  
HETATM   15  C   UNL     1     -11.046   9.540  70.026  1.00  0.00    -0.268 A  
HETATM   16  C   UNL     1     -10.981  10.068  68.735  1.00  0.00    -0.242 A  
HETATM   17  C   UNL     1      -9.832   9.909  67.960  1.00  0.00    -0.147 A  
HETATM   18  C   UNL     1      -8.808   8.688  69.795  1.00  0.00    -0.137 A  
HETATM   19  C   UNL     1      -8.752   9.195  68.490  1.00  0.00    -0.129 A  
BRANCH  17  20
HETATM   20  N   UNL     1      -9.697  10.445  66.660  1.00  0.00    -0.183 N  
HETATM   21  H   UNL     1      -8.775  10.790  66.393  1.00  0.00     0.000 HD 
HETATM   22  C   UNL     1     -10.699  10.545  65.719  1.00  0.00     0.016 C  
HETATM   23  O   UNL     1     -11.878  10.257  65.845  1.00  0.00     1.636 OA 
BRANCH  22  24
HETATM   24  C   UNL     1     -10.256  11.065  64.390  1.00  0.00    -0.409 C  
HETATM   25  C   UNL     1      -8.787  10.850  64.034  1.00  0.00    -0.055 C  
HETATM   26  C   UNL     1      -9.838  10.089  63.292  1.00  0.00     0.232 C  
BRANCH  24  27
HETATM   27  C   UNL     1     -10.949  12.322  63.980  1.00  0.00    -0.383 C  
HETATM   28  O   UNL     1     -11.634  12.313  62.966  1.00  0.00    -0.257 OA 
HETATM   29  N   UNL     1     -10.733  13.397  64.820  1.00  0.00    -0.366 N  
HETATM   30  H   UNL     1     -10.078  13.284  65.595  1.00  0.00     0.000 HD 
BRANCH  29  31
HETATM   31  C   UNL     1     -11.372  14.640  64.661  1.00  0.00    -0.369 A  
HETATM   32  C   UNL     1     -10.647  15.837  64.612  1.00  0.00     0.001 A  
HETATM   33  C   UNL     1     -11.313  17.060  64.525  1.00  0.00     0.669 A  
HETATM   34  C   UNL     1     -12.701  17.078  64.514  1.00  0.00     5.415 A  
HETATM   35  C   UNL     1     -13.432  15.895  64.528  1.00  0.00     2.892 A  
HETATM   36  F   UNL     1     -13.344  18.252  64.494  1.00  0.00    10.617 F  
HETATM   37  C   UNL     1     -12.765  14.668  64.564  1.00  0.00     0.016 A  
ENDBRANCH  29  31
ENDBRANCH  24  27
ENDBRANCH  22  24
ENDBRANCH  17  20
ENDBRANCH  13  14
ENDBRANCH   8  13
BRANCH  10  38
HETATM   38  O   UNL     1      -7.614   5.362  68.853  1.00  0.00    -0.077 OA 
HETATM   39  C   UNL     1      -7.594   6.345  67.823  1.00  0.00    -0.102 C  
ENDBRANCH  10  38
ENDBRANCH   2   3
TORSDOF 8
ENDMDL
