MODEL       24
REMARK 921   NORMALIZED FREE ENERGY PREDICTED BY IDOCK:   -6.04 KCAL/MOL
REMARK 922        TOTAL FREE ENERGY PREDICTED BY IDOCK:   -8.23 KCAL/MOL
REMARK 923 INTER-LIGAND FREE ENERGY PREDICTED BY IDOCK:   -7.46 KCAL/MOL
REMARK 924 INTRA-LIGAND FREE ENERGY PREDICTED BY IDOCK:   -0.77 KCAL/MOL
REMARK 927      BINDING AFFINITY PREDICTED BY RF-SCORE:    0.00 PKD
ROOT
HETATM    1  C   UNL     1     -10.980  16.559  68.444  1.00  0.00    -0.348 C  
HETATM    2  S   UNL     1      -9.526  15.643  69.113  1.00  0.00    -0.270 SA 
HETATM    3  C   UNL     1      -8.286  16.529  68.058  1.00  0.00    -0.180 C  
HETATM    4  CA  UNL     1      -8.985  17.846  67.629  1.00  0.00    -0.250 C  
HETATM    5  C   UNL     1      -7.978  15.624  66.847  1.00  0.00    -0.278 C  
HETATM    6  C   UNL     1      -6.978  16.689  68.839  1.00  0.00    -0.200 C  
HETATM    7  N   UNL     1     -10.428  17.556  67.504  1.00  0.00    -0.355 N  
HETATM    8  C   UNL     1      -8.814  19.030  68.605  1.00  0.00    -0.352 C  
HETATM    9  C   UNL     1     -10.898  16.898  66.388  1.00  0.00     0.033 C  
HETATM   10  OXT UNL     1      -7.748  19.449  69.017  1.00  0.00    -0.362 OA 
HETATM   11  O   UNL     1      -9.986  19.643  68.921  1.00  0.00    -0.447 OA 
HETATM   12  CA  UNL     1     -11.725  15.895  67.256  1.00  0.00     0.362 C  
HETATM   13  O   UNL     1     -10.581  17.027  65.228  1.00  0.00    -0.647 OA 
ENDROOT
BRANCH  12  14
HETATM   14  N   UNL     1     -11.432  14.448  67.073  1.00  0.00    -0.346 N  
HETATM   15  C   UNL     1     -12.070  13.652  66.146  1.00  0.00    -0.436 C  
HETATM   16  H   UNL     1     -10.719  14.021  67.665  1.00  0.00     0.000 HD 
HETATM   17  O   UNL     1     -12.979  14.084  65.442  1.00  0.00    -0.726 OA 
BRANCH  15  18
HETATM   18  C   UNL     1     -11.587  12.183  66.074  1.00  0.00    -0.358 C  
HETATM   19  C   UNL     1     -11.136  11.829  64.654  1.00  0.00    -0.363 C  
BRANCH  18  20
HETATM   20  O   UNL     1     -10.512  12.031  67.006  1.00  0.00    -0.216 OA 
BRANCH  20  21
HETATM   21  C   UNL     1     -10.706  11.194  68.074  1.00  0.00    -0.211 A  
HETATM   22  C   UNL     1     -11.291  11.548  69.292  1.00  0.00    -0.353 A  
HETATM   23  C   UNL     1     -11.490  10.591  70.291  1.00  0.00    -0.416 A  
HETATM   24  C   UNL     1     -11.093   9.273  70.089  1.00  0.00    -0.260 A  
HETATM   25  C   UNL     1     -10.502   8.910  68.881  1.00  0.00    -0.225 A  
HETATM   26  C   UNL     1     -10.320   9.866  67.876  1.00  0.00    -0.256 A  
ENDBRANCH  20  21
ENDBRANCH  18  20
ENDBRANCH  15  18
ENDBRANCH  12  14
TORSDOF 4
ENDMDL
