MODEL       31
REMARK 921   NORMALIZED FREE ENERGY PREDICTED BY IDOCK:   -6.05 KCAL/MOL
REMARK 922        TOTAL FREE ENERGY PREDICTED BY IDOCK:   -7.92 KCAL/MOL
REMARK 923 INTER-LIGAND FREE ENERGY PREDICTED BY IDOCK:   -7.33 KCAL/MOL
REMARK 924 INTRA-LIGAND FREE ENERGY PREDICTED BY IDOCK:   -0.59 KCAL/MOL
REMARK 927      BINDING AFFINITY PREDICTED BY RF-SCORE:    0.00 PKD
ROOT
HETATM    1  C   UNL     1      -6.175  18.300  67.404  1.00  0.00    -0.184 C  
HETATM    2  C   UNL     1      -6.543  17.031  68.198  1.00  0.00    -0.147 C  
HETATM    3  N   UNL     1      -7.751  16.499  67.527  1.00  0.00    -0.144 NA 
HETATM    4  C   UNL     1      -6.937  19.536  67.906  1.00  0.00    -0.288 C  
HETATM    5  C   UNL     1      -7.871  17.099  66.203  1.00  0.00    -0.268 C  
HETATM    6  C   UNL     1      -6.561  17.884  65.981  1.00  0.00    -0.281 C  
HETATM    7  C   UNL     1      -7.053  20.626  66.842  1.00  0.00    -0.353 C  
HETATM    8  N   UNL     1      -6.634  18.999  65.032  1.00  0.00    -0.494 NA 
HETATM    9  H   UNL     1      -6.918  18.672  64.109  1.00  0.00     0.000 HD 
HETATM   10  C   UNL     1      -7.500  20.089  65.489  1.00  0.00    -0.187 C  
ENDROOT
BRANCH   3  11
HETATM   11  C   UNL     1      -8.467  15.392  67.962  1.00  0.00    -0.146 A  
HETATM   12  C   UNL     1      -8.538  12.931  68.174  1.00  0.00    -0.188 A  
HETATM   13  F   UNL     1      -6.707  13.941  67.206  1.00  0.00    -0.189 F  
HETATM   14  C   UNL     1      -7.897  14.102  67.807  1.00  0.00    -0.170 A  
HETATM   15  C   UNL     1     -10.418  11.697  69.137  1.00  0.00    -0.064 C  
HETATM   16  O   UNL     1      -9.902  10.620  68.845  1.00  0.00    -0.185 OA 
HETATM   17  C   UNL     1     -11.673  11.719  69.885  1.00  0.00    -0.399 C  
HETATM   18  C   UNL     1      -9.786  12.990  68.778  1.00  0.00     0.015 A  
HETATM   19  C   UNL     1     -12.377  10.511  70.372  1.00  0.00    -0.324 C  
HETATM   20  C   UNL     1     -12.205  12.928  70.122  1.00  0.00    -0.266 C  
HETATM   21  N   UNL     1     -11.719  14.157  69.697  1.00  0.00    -0.297 NA 
HETATM   22  O   UNL     1     -11.784   9.347  70.034  1.00  0.00    -0.104 OA 
HETATM   23  O   UNL     1     -13.410  10.549  71.024  1.00  0.00    -0.306 OA 
HETATM   24  C   UNL     1     -10.440  14.221  69.022  1.00  0.00    -0.204 A  
HETATM   25  C   UNL     1      -9.780  15.421  68.567  1.00  0.00    -0.204 A  
BRANCH  21  26
HETATM   26  C   UNL     1     -12.408  15.351  70.239  1.00  0.00    -0.388 C  
HETATM   27  C   UNL     1     -13.471  15.227  71.301  1.00  0.00    -0.591 C  
HETATM   28  C   UNL     1     -12.178  15.883  71.642  1.00  0.00    -0.544 C  
ENDBRANCH  21  26
BRANCH  25  29
HETATM   29  O   UNL     1     -10.549  16.569  68.520  1.00  0.00    -0.280 OA 
HETATM   30  C   UNL     1     -10.078  17.699  69.249  1.00  0.00    -0.147 C  
ENDBRANCH  25  29
ENDBRANCH   3  11
TORSDOF 3
ENDMDL
