MODEL       13
REMARK 921   NORMALIZED FREE ENERGY PREDICTED BY IDOCK:   -5.55 KCAL/MOL
REMARK 922        TOTAL FREE ENERGY PREDICTED BY IDOCK:  -15.89 KCAL/MOL
REMARK 923 INTER-LIGAND FREE ENERGY PREDICTED BY IDOCK:  -13.06 KCAL/MOL
REMARK 924 INTRA-LIGAND FREE ENERGY PREDICTED BY IDOCK:   -2.82 KCAL/MOL
REMARK 927      BINDING AFFINITY PREDICTED BY RF-SCORE:    0.00 PKD
ROOT
HETATM    1  C   UNL     1     -12.450  16.278  73.238  1.00  0.00    -0.591 C  
HETATM    2  C   UNL     1     -13.535  15.316  72.782  1.00  0.00    -0.619 C  
ENDROOT
BRANCH   2   3
HETATM    3  C   UNL     1     -12.936  14.062  72.148  1.00  0.00    -0.458 C  
BRANCH   3   4
HETATM    4  C   UNL     1     -13.827  12.842  72.378  1.00  0.00    -0.443 C  
BRANCH   4   5
HETATM    5  C   UNL     1     -13.189  11.578  71.803  1.00  0.00    -0.456 C  
BRANCH   5   6
HETATM    6  C   UNL     1     -12.195  11.917  70.692  1.00  0.00    -0.424 C  
BRANCH   6   7
HETATM    7  C   UNL     1     -12.132  10.803  69.647  1.00  0.00    -0.361 C  
BRANCH   7   8
HETATM    8  C   UNL     1     -11.851  11.373  68.257  1.00  0.00    -0.320 C  
BRANCH   8   9
HETATM    9  C   UNL     1     -11.452  12.847  68.329  1.00  0.00    -0.348 C  
BRANCH   9  10
HETATM   10  C   UNL     1     -12.201  13.665  67.274  1.00  0.00    -0.317 C  
BRANCH  10  11
HETATM   11  C   UNL     1     -11.959  13.157  65.855  1.00  0.00    -0.479 C  
BRANCH  11  12
HETATM   12  C   UNL     1     -12.056  14.244  64.810  1.00  0.00    -0.446 C  
HETATM   13  O   UNL     1     -12.502  14.103  63.681  1.00  0.00    -0.819 OA 
BRANCH  12  14
HETATM   14  O   UNL     1     -11.591  15.408  65.337  1.00  0.00    -0.186 OA 
BRANCH  14  15
HETATM   15  C   UNL     1     -10.206  15.700  65.102  1.00  0.00    -0.262 C  
BRANCH  15  16
HETATM   16  N   UNL     1      -9.614  16.522  66.146  1.00  0.00    -0.307 N  
HETATM   17  C   UNL     1      -9.949  17.874  66.085  1.00  0.00    -0.283 C  
HETATM   18  C   UNL     1      -8.986  18.816  66.754  1.00  0.00    -0.311 C  
HETATM   19  O   UNL     1     -10.896  18.309  65.435  1.00  0.00    -0.569 OA 
HETATM   20  C   UNL     1      -8.579  18.348  68.129  1.00  0.00    -0.301 C  
HETATM   21  C   UNL     1      -8.280  16.877  68.168  1.00  0.00    -0.207 A  
HETATM   22  C   UNL     1      -7.497  16.385  69.224  1.00  0.00    -0.202 A  
HETATM   23  C   UNL     1      -7.274  15.017  69.372  1.00  0.00    -0.194 A  
HETATM   24  C   UNL     1      -7.862  14.127  68.481  1.00  0.00    -0.140 A  
HETATM   25  C   UNL     1      -8.633  14.619  67.420  1.00  0.00    -0.212 A  
HETATM   26  C   UNL     1      -8.837  15.996  67.226  1.00  0.00    -0.190 A  
BRANCH  24  27
HETATM   27  O   UNL     1      -7.723  12.765  68.522  1.00  0.00    -0.132 OA 
BRANCH  27  28
HETATM   28  C   UNL     1      -8.066  12.057  67.328  1.00  0.00    -0.174 C  
BRANCH  28  29
HETATM   29  C   UNL     1      -8.434  10.617  67.694  1.00  0.00    -0.118 C  
BRANCH  29  30
HETATM   30  C   UNL     1      -8.995   9.843  66.492  1.00  0.00    -0.166 C  
BRANCH  30  31
HETATM   31  C   UNL     1      -8.184   8.577  66.148  1.00  0.00    -0.115 C  
BRANCH  31  32
HETATM   32  N   UNL     1      -8.862   7.329  66.521  1.00  0.00    -0.135 NA 
HETATM   33  C   UNL     1      -8.155   6.564  67.569  1.00  0.00    -0.121 C  
HETATM   34  C   UNL     1      -8.284   7.174  68.978  1.00  0.00    -0.125 C  
HETATM   35  N   UNL     1      -9.703   7.158  69.372  1.00  0.00    -0.160 NA 
HETATM   36  C   UNL     1     -10.563   7.906  68.434  1.00  0.00    -0.107 C  
HETATM   37  C   UNL     1     -10.266   7.543  66.944  1.00  0.00    -0.289 C  
BRANCH  35  38
HETATM   38  C   UNL     1     -10.111   6.598  70.579  1.00  0.00    -0.187 A  
HETATM   39  C   UNL     1     -10.126   5.216  70.913  1.00  0.00    -0.232 A  
HETATM   40 CL   UNL     1      -9.763   3.980  69.736  1.00  0.00    -0.279 Cl 
HETATM   41  C   UNL     1     -10.534   4.784  72.199  1.00  0.00    -0.175 A  
HETATM   42  C   UNL     1     -10.984   5.694  73.157  1.00  0.00    -0.326 A  
HETATM   43 CL   UNL     1     -10.513   3.117  72.687  1.00  0.00    -0.212 Cl 
HETATM   44  C   UNL     1     -10.999   7.042  72.856  1.00  0.00    -0.337 A  
HETATM   45  C   UNL     1     -10.548   7.475  71.606  1.00  0.00    -0.232 A  
ENDBRANCH  35  38
ENDBRANCH  31  32
ENDBRANCH  30  31
ENDBRANCH  29  30
ENDBRANCH  28  29
ENDBRANCH  27  28
ENDBRANCH  24  27
ENDBRANCH  15  16
ENDBRANCH  14  15
ENDBRANCH  12  14
ENDBRANCH  11  12
ENDBRANCH  10  11
ENDBRANCH   9  10
ENDBRANCH   8   9
ENDBRANCH   7   8
ENDBRANCH   6   7
ENDBRANCH   5   6
ENDBRANCH   4   5
ENDBRANCH   3   4
ENDBRANCH   2   3
TORSDOF 20
ENDMDL
