MODEL      239
REMARK 921   NORMALIZED FREE ENERGY PREDICTED BY IDOCK:    6.61 KCAL/MOL
REMARK 922        TOTAL FREE ENERGY PREDICTED BY IDOCK:    8.16 KCAL/MOL
REMARK 923 INTER-LIGAND FREE ENERGY PREDICTED BY IDOCK:    7.87 KCAL/MOL
REMARK 924 INTRA-LIGAND FREE ENERGY PREDICTED BY IDOCK:    0.29 KCAL/MOL
REMARK 927      BINDING AFFINITY PREDICTED BY RF-SCORE:    0.00 PKD
ROOT
HETATM    1  C   UNL     1      -7.135  18.635  66.466  1.00  0.00    -0.244 C  
HETATM    2  C   UNL     1      -7.430  17.567  67.531  1.00  0.00    -0.202 C  
HETATM    3  C   UNL     1      -7.220  18.172  68.922  1.00  0.00    -0.268 C  
HETATM    4  C   UNL     1      -8.836  16.985  67.412  1.00  0.00    -0.203 A  
HETATM    5  N   UNL     1      -9.758  17.807  66.859  1.00  0.00    -0.288 NA 
HETATM    6  C   UNL     1     -11.003  17.342  66.782  1.00  0.00     0.175 A  
HETATM    7  N   UNL     1     -11.433  16.174  67.250  1.00  0.00     0.117 NA 
HETATM    8  C   UNL     1      -9.161  15.705  67.901  1.00  0.00    -0.190 A  
HETATM    9  C   UNL     1     -10.522  15.365  67.855  1.00  0.00    -0.256 A  
ENDROOT
BRANCH   6  10
HETATM   10  N   UNL     1     -11.882  18.065  65.956  1.00  0.00     2.833 N  
HETATM   11  C   UNL     1     -12.183  17.442  64.661  1.00  0.00     4.620 C  
BRANCH  10  12
HETATM   12  S   UNL     1     -11.668  19.728  65.983  1.00  0.00     2.445 S  
HETATM   13  C   UNL     1     -10.063  19.970  66.725  1.00  0.00    -0.476 C  
HETATM   14  O   UNL     1     -11.564  20.171  64.604  1.00  0.00     0.559 OA 
HETATM   15  O   UNL     1     -12.643  20.323  66.866  1.00  0.00     3.063 OA 
ENDBRANCH  10  12
ENDBRANCH   6  10
BRANCH   9  16
HETATM   16  C   UNL     1     -11.141  14.137  68.441  1.00  0.00    -0.273 A  
HETATM   17  F   UNL     1     -12.881  10.669  69.970  1.00  0.00    -0.376 F  
HETATM   18  C   UNL     1     -11.368  12.998  67.634  1.00  0.00    -0.342 A  
HETATM   19  C   UNL     1     -11.957  11.834  68.140  1.00  0.00    -0.214 A  
HETATM   20  C   UNL     1     -12.162  12.889  70.293  1.00  0.00    -0.362 A  
HETATM   21  C   UNL     1     -12.334  11.785  69.473  1.00  0.00    -0.058 A  
HETATM   22  C   UNL     1     -11.590  14.059  69.775  1.00  0.00    -0.344 A  
ENDBRANCH   9  16
BRANCH   8  23
HETATM   23  C   UNL     1      -8.087  14.828  68.406  1.00  0.00    -0.144 C  
HETATM   24  C   UNL     1      -7.318  14.045  67.623  1.00  0.00    -0.188 C  
BRANCH  24  25
HETATM   25  C   UNL     1      -6.083  13.286  68.065  1.00  0.00    -0.122 C  
HETATM   26  H   UNL     1      -4.368  12.734  67.269  1.00  0.00     0.000 HD 
HETATM   27  O   UNL     1      -5.142  13.210  66.993  1.00  0.00    -0.299 OA 
BRANCH  25  28
HETATM   28  C   UNL     1      -5.391  13.895  69.293  1.00  0.00    -0.081 C  
BRANCH  28  29
HETATM   29  C   UNL     1      -5.392  12.948  70.517  1.00  0.00    -0.138 C  
HETATM   30  O   UNL     1      -5.910  13.613  71.674  1.00  0.00    -0.462 OA 
HETATM   31  H   UNL     1      -5.910  13.031  72.425  1.00  0.00     0.000 HD 
BRANCH  29  32
HETATM   32  C   UNL     1      -6.281  11.721  70.308  1.00  0.00    -0.047 C  
HETATM   33  C   UNL     1      -5.767  10.517  71.045  1.00  0.00    -0.041 C  
HETATM   34  O   UNL     1      -5.177  10.559  72.113  1.00  0.00    -0.281 OA 
HETATM   35  O   UNL     1      -6.037   9.352  70.414  1.00  0.00    -0.043 OA 
ENDBRANCH  29  32
ENDBRANCH  28  29
ENDBRANCH  25  28
ENDBRANCH  24  25
ENDBRANCH   8  23
TORSDOF 8
ENDMDL
