MODEL        1
REMARK 921   NORMALIZED FREE ENERGY PREDICTED BY IDOCK:   -8.90 KCAL/MOL
REMARK 922        TOTAL FREE ENERGY PREDICTED BY IDOCK:  -12.01 KCAL/MOL
REMARK 923 INTER-LIGAND FREE ENERGY PREDICTED BY IDOCK:  -11.51 KCAL/MOL
REMARK 924 INTRA-LIGAND FREE ENERGY PREDICTED BY IDOCK:   -0.50 KCAL/MOL
REMARK 927      BINDING AFFINITY PREDICTED BY RF-SCORE:    0.00 PKD
ROOT
HETATM    1  C   UNL     1     -12.170  16.054  74.170  1.00  0.00    -0.631 C  
HETATM    2  C   UNL     1     -12.735  14.846  73.440  1.00  0.00    -0.636 C  
HETATM    3  C   UNL     1     -13.219  13.810  72.813  1.00  0.00    -0.492 C  
ENDROOT
BRANCH   3   4
HETATM    4  C   UNL     1     -13.783  12.602  72.083  1.00  0.00    -0.312 C  
BRANCH   4   5
HETATM    5  N   UNL     1     -12.714  12.148  71.113  1.00  0.00    -0.322 NA 
HETATM    6  C   UNL     1     -12.100  10.872  71.058  1.00  0.00    -0.320 A  
HETATM    7  N   UNL     1     -11.322  10.779  69.997  1.00  0.00    -0.303 NA 
HETATM    8  N   UNL     1     -10.695  12.286  68.221  1.00  0.00    -0.213 N  
HETATM    9  C   UNL     1     -11.343  11.991  69.404  1.00  0.00    -0.251 A  
HETATM   10  O   UNL     1     -10.661  13.714  66.440  1.00  0.00    -0.279 OA 
HETATM   11  C   UNL     1     -12.132  12.894  70.066  1.00  0.00    -0.286 A  
HETATM   12  C   UNL     1      -9.909  11.279  67.533  1.00  0.00    -0.178 C  
HETATM   13  C   UNL     1     -12.199  14.261  69.614  1.00  0.00    -0.323 C  
HETATM   14  C   UNL     1     -10.898  13.525  67.638  1.00  0.00    -0.260 C  
HETATM   15  O   UNL     1     -12.902  15.102  70.164  1.00  0.00    -0.268 OA 
HETATM   16  N   UNL     1     -11.420  14.531  68.466  1.00  0.00    -0.285 N  
BRANCH   6  17
HETATM   17  N   UNL     1     -12.329   9.811  71.890  1.00  0.00    -0.368 NA 
HETATM   18  N   UNL     1     -11.609   7.387  69.941  1.00  0.00    -0.493 NA 
HETATM   19  C   UNL     1     -13.139   6.981  71.832  1.00  0.00    -0.266 C  
HETATM   20  C   UNL     1     -11.327   8.742  72.041  1.00  0.00    -0.371 C  
HETATM   21  C   UNL     1     -14.133   8.076  71.472  1.00  0.00    -0.475 C  
HETATM   22  C   UNL     1     -13.742   9.414  72.105  1.00  0.00    -0.420 C  
HETATM   23  C   UNL     1     -11.726   7.380  71.406  1.00  0.00    -0.288 C  
HETATM   24  H1  UNL     1     -10.666   7.653  69.656  1.00  0.00     0.000 HD 
HETATM   25  H2  UNL     1     -12.317   7.980  69.508  1.00  0.00     0.000 HD 
ENDBRANCH   6  17
BRANCH  16  26
HETATM   26  C   UNL     1     -11.388  15.895  67.881  1.00  0.00    -0.252 C  
BRANCH  26  27
HETATM   27  C   UNL     1     -10.143  16.766  68.175  1.00  0.00    -0.282 A  
HETATM   28  N   UNL     1     -10.131  18.039  67.705  1.00  0.00    -0.335 NA 
HETATM   29  C   UNL     1      -8.982  18.749  67.776  1.00  0.00    -0.286 A  
HETATM   30  C   UNL     1      -7.800  18.210  68.303  1.00  0.00    -0.301 A  
HETATM   31  C   UNL     1      -6.600  18.992  68.281  1.00  0.00    -0.265 A  
HETATM   32  C   UNL     1      -7.923  16.908  68.806  1.00  0.00    -0.254 A  
HETATM   33  C   UNL     1      -6.577  20.286  67.768  1.00  0.00    -0.298 A  
HETATM   34  C   UNL     1      -6.750  16.139  69.347  1.00  0.00    -0.205 C  
HETATM   35  N   UNL     1      -9.077  16.202  68.770  1.00  0.00    -0.217 NA 
HETATM   36  C   UNL     1      -7.753  20.828  67.278  1.00  0.00    -0.332 A  
HETATM   37  C   UNL     1      -8.929  20.059  67.289  1.00  0.00    -0.440 A  
ENDBRANCH  26  27
ENDBRANCH  16  26
ENDBRANCH   4   5
ENDBRANCH   3   4
TORSDOF 5
ENDMDL
