MODEL      131
REMARK 921   NORMALIZED FREE ENERGY PREDICTED BY IDOCK:   -2.76 KCAL/MOL
REMARK 922        TOTAL FREE ENERGY PREDICTED BY IDOCK:   -8.31 KCAL/MOL
REMARK 923 INTER-LIGAND FREE ENERGY PREDICTED BY IDOCK:   -8.66 KCAL/MOL
REMARK 924 INTRA-LIGAND FREE ENERGY PREDICTED BY IDOCK:    0.35 KCAL/MOL
REMARK 927      BINDING AFFINITY PREDICTED BY RF-SCORE:    0.00 PKD
ROOT
HETATM    1  C   UNL     1      -5.324  14.940  67.834  1.00  0.00    -0.089 C  
HETATM    2  N   UNL     1      -5.605  13.790  68.687  1.00  0.00    -0.081 NA 
HETATM    3  H   UNL     1      -5.565  14.065  69.668  1.00  0.00     0.000 HD 
ENDROOT
BRANCH   2   4
HETATM    4  C   UNL     1      -6.889  13.078  68.408  1.00  0.00    -0.097 C  
HETATM    5  C   UNL     1      -8.031  13.522  69.356  1.00  0.00     0.632 C  
HETATM    6  C   UNL     1      -9.361  12.880  68.904  1.00  0.00     0.290 C  
HETATM    7  O   UNL     1      -8.133  14.947  69.410  1.00  0.00    -0.293 OA 
HETATM    8  H   UNL     1      -8.833  15.219  69.992  1.00  0.00     0.000 HD 
HETATM    9  O   UNL     1      -6.383  10.947  69.542  1.00  0.00    -0.059 OA 
HETATM   10  O   UNL     1      -9.233  11.459  68.968  1.00  0.00    -0.079 OA 
HETATM   11  H   UNL     1      -6.359  10.000  69.482  1.00  0.00     0.000 HD 
HETATM   12  C   UNL     1      -8.263  10.958  68.032  1.00  0.00    -0.121 C  
HETATM   13  C   UNL     1      -5.908  11.034  67.200  1.00  0.00    -0.064 C  
HETATM   14  C   UNL     1      -6.850  11.517  68.309  1.00  0.00    -0.066 C  
BRANCH   6  15
HETATM   15  O   UNL     1      -9.709  13.310  67.585  1.00  0.00    -0.209 OA 
BRANCH  15  16
HETATM   16  C   UNL     1     -10.093  14.688  67.448  1.00  0.00    -0.232 C  
HETATM   17  H1  UNL     1     -13.142  16.001  64.469  1.00  0.00     0.000 HD 
HETATM   18  C   UNL     1      -9.517  15.385  66.195  1.00  0.00    -0.336 C  
HETATM   19  C   UNL     1     -11.646  14.716  67.415  1.00  0.00    -0.389 C  
HETATM   20  H2  UNL     1     -11.706  16.395  63.678  1.00  0.00     0.000 HD 
HETATM   21  C   UNL     1     -11.590  14.677  64.840  1.00  0.00    -0.405 C  
HETATM   22  C   UNL     1     -10.052  14.697  64.927  1.00  0.00    -0.231 C  
HETATM   23  O   UNL     1     -12.119  16.074  67.559  1.00  0.00     0.267 OA 
HETATM   24  H   UNL     1     -13.069  16.091  67.539  1.00  0.00     0.000 HD 
HETATM   25  N   UNL     1     -12.124  16.014  64.526  1.00  0.00    -0.162 NA 
HETATM   26  C   UNL     1     -12.217  14.057  66.126  1.00  0.00    -0.465 C  
BRANCH  18  27
HETATM   27  N   UNL     1      -9.773  16.826  66.213  1.00  0.00    -0.285 N  
HETATM   28  H   UNL     1     -10.723  17.148  66.396  1.00  0.00     0.000 HD 
HETATM   29  C   UNL     1      -8.793  17.767  65.994  1.00  0.00     0.012 C  
HETATM   30  O   UNL     1      -7.615  17.496  65.792  1.00  0.00    -0.514 OA 
BRANCH  29  31
HETATM   31  C   UNL     1      -9.291  19.221  66.053  1.00  0.00    -0.145 C  
HETATM   32  H   UNL     1     -11.002  20.179  65.831  1.00  0.00     0.000 HD 
HETATM   33  O   UNL     1     -10.694  19.281  65.794  1.00  0.00    -0.467 OA 
BRANCH  31  34
HETATM   34  C   UNL     1      -9.022  19.836  67.426  1.00  0.00    -0.402 C  
BRANCH  34  35
HETATM   35  C   UNL     1     -10.151  19.538  68.414  1.00  0.00    -0.445 C  
HETATM   36  H1  UNL     1     -10.741  18.007  69.642  1.00  0.00     0.000 HD 
HETATM   37  H2  UNL     1      -9.070  18.084  69.409  1.00  0.00     0.000 HD 
HETATM   38  N   UNL     1      -9.989  18.206  68.984  1.00  0.00    -0.331 NA 
ENDBRANCH  34  35
ENDBRANCH  31  34
ENDBRANCH  29  31
ENDBRANCH  18  27
BRANCH  26  39
HETATM   39  O   UNL     1     -11.968  12.657  66.022  1.00  0.00    -0.420 OA 
BRANCH  39  40
HETATM   40  C   UNL     1     -10.992  12.206  65.078  1.00  0.00    -0.309 C  
HETATM   41  H1  UNL     1     -13.550  11.875  62.745  1.00  0.00     0.000 HD 
HETATM   42  O   UNL     1     -10.476  10.918  65.427  1.00  0.00    -0.265 OA 
HETATM   43  H2  UNL     1     -13.631  12.412  64.328  1.00  0.00     0.000 HD 
HETATM   44  N   UNL     1     -13.103  11.849  63.662  1.00  0.00    -0.638 NA 
HETATM   45  C   UNL     1     -11.678  12.247  63.671  1.00  0.00    -0.504 C  
HETATM   46  C   UNL     1      -9.640  10.372  64.466  1.00  0.00    -0.309 C  
HETATM   47  C   UNL     1     -10.853  11.511  62.606  1.00  0.00     0.629 C  
HETATM   48  C   UNL     1      -9.781  10.634  63.158  1.00  0.00    -0.375 C  
BRANCH  46  49
HETATM   49  C   UNL     1      -8.586   9.422  64.989  1.00  0.00    -0.172 C  
BRANCH  49  50
HETATM   50  N   UNL     1      -9.068   8.046  65.136  1.00  0.00    -0.361 NA 
HETATM   51  H   UNL     1      -8.462   7.385  64.650  1.00  0.00     0.000 HD 
BRANCH  50  52
HETATM   52  C   UNL     1      -9.235   7.681  66.554  1.00  0.00    -0.176 C  
BRANCH  52  53
HETATM   53  C   UNL     1     -10.680   7.905  67.007  1.00  0.00    -0.219 C  
HETATM   54  O   UNL     1     -11.435   6.702  66.890  1.00  0.00    -0.777 OA 
HETATM   55  H   UNL     1     -12.332   6.841  67.171  1.00  0.00     0.000 HD 
ENDBRANCH  52  53
ENDBRANCH  50  52
ENDBRANCH  49  50
ENDBRANCH  46  49
ENDBRANCH  39  40
ENDBRANCH  26  39
ENDBRANCH  15  16
ENDBRANCH   6  15
ENDBRANCH   2   4
TORSDOF 13
ENDMDL
