MODEL       15
REMARK 921   NORMALIZED FREE ENERGY PREDICTED BY IDOCK:   -5.95 KCAL/MOL
REMARK 922        TOTAL FREE ENERGY PREDICTED BY IDOCK:  -10.27 KCAL/MOL
REMARK 923 INTER-LIGAND FREE ENERGY PREDICTED BY IDOCK:   -9.77 KCAL/MOL
REMARK 924 INTRA-LIGAND FREE ENERGY PREDICTED BY IDOCK:   -0.49 KCAL/MOL
REMARK 927      BINDING AFFINITY PREDICTED BY RF-SCORE:    0.00 PKD
ROOT
HETATM    1  C   UNL     1      -9.547   9.844  68.837  1.00  0.00    -0.172 C  
ENDROOT
BRANCH   1   2
HETATM    2  N   UNL     1      -9.219  11.075  69.026  1.00  0.00    -0.345 NA 
HETATM    3  H   UNL     1      -8.243  11.348  69.146  1.00  0.00     0.000 HD 
BRANCH   2   4
HETATM    4  C   UNL     1     -10.295  12.072  69.062  1.00  0.00    -0.013 C  
HETATM    5  C   UNL     1     -11.738  12.567  66.045  1.00  0.00    -0.417 C  
HETATM    6  O   UNL     1     -12.478  10.853  68.422  1.00  0.00    -0.283 OA 
HETATM    7  C   UNL     1     -11.648  11.732  68.368  1.00  0.00    -0.318 C  
HETATM    8  C   UNL     1     -10.151  13.107  67.904  1.00  0.00    -0.232 C  
HETATM    9  C   UNL     1     -10.456  11.881  65.504  1.00  0.00    -0.268 C  
HETATM   10  N   UNL     1     -11.525  12.773  67.483  1.00  0.00    -0.315 N  
HETATM   11  S   UNL     1      -9.077  12.654  66.464  1.00  0.00    -0.105 SA 
HETATM   12  C   UNL     1     -10.460  10.360  65.749  1.00  0.00    -0.187 C  
HETATM   13  C   UNL     1     -10.168  12.081  64.007  1.00  0.00    -0.391 C  
BRANCH   5  14
HETATM   14  C   UNL     1     -12.059  13.887  65.315  1.00  0.00    -0.410 C  
HETATM   15  O   UNL     1     -12.767  13.945  64.313  1.00  0.00    -0.664 OA 
BRANCH  14  16
HETATM   16  O   UNL     1     -11.436  14.959  65.869  1.00  0.00    -0.342 OA 
BRANCH  16  17
HETATM   17  C   UNL     1     -10.846  15.877  64.941  1.00  0.00    -0.400 C  
BRANCH  17  18
HETATM   18  O   UNL     1     -10.746  17.192  65.493  1.00  0.00    -0.493 OA 
BRANCH  18  19
HETATM   19  C   UNL     1      -9.620  17.419  66.224  1.00  0.00    -0.242 C  
HETATM   20  O   UNL     1      -8.490  17.118  65.862  1.00  0.00    -0.529 OA 
BRANCH  19  21
HETATM   21  C   UNL     1      -9.953  18.095  67.558  1.00  0.00    -0.338 C  
HETATM   22  C   UNL     1     -10.734  17.125  68.455  1.00  0.00    -0.347 C  
HETATM   23  C   UNL     1     -10.780  19.363  67.305  1.00  0.00    -0.603 C  
HETATM   24  C   UNL     1      -8.645  18.486  68.266  1.00  0.00    -0.341 C  
ENDBRANCH  19  21
ENDBRANCH  18  19
ENDBRANCH  17  18
ENDBRANCH  16  17
ENDBRANCH  14  16
ENDBRANCH   5  14
ENDBRANCH   2   4
ENDBRANCH   1   2
BRANCH   1  25
HETATM   25  N   UNL     1      -9.581   8.897  69.834  1.00  0.00    -0.172 NA 
HETATM   26  C   UNL     1      -9.741   9.268  71.236  1.00  0.00    -0.229 C  
HETATM   27  C   UNL     1      -9.704   7.475  69.505  1.00  0.00    -0.164 C  
HETATM   28  C   UNL     1     -11.109   6.936  69.785  1.00  0.00    -0.316 C  
HETATM   29  C   UNL     1     -11.223   9.345  71.594  1.00  0.00    -0.431 C  
HETATM   30  C   UNL     1     -11.382   6.755  71.277  1.00  0.00    -0.333 C  
HETATM   31  C   UNL     1     -11.849   8.013  72.010  1.00  0.00    -0.376 C  
ENDBRANCH   1  25
TORSDOF 9
ENDMDL
