MODEL      148
REMARK 921   NORMALIZED FREE ENERGY PREDICTED BY IDOCK:   -5.03 KCAL/MOL
REMARK 922        TOTAL FREE ENERGY PREDICTED BY IDOCK:   -9.09 KCAL/MOL
REMARK 923 INTER-LIGAND FREE ENERGY PREDICTED BY IDOCK:   -7.72 KCAL/MOL
REMARK 924 INTRA-LIGAND FREE ENERGY PREDICTED BY IDOCK:   -1.37 KCAL/MOL
REMARK 927      BINDING AFFINITY PREDICTED BY RF-SCORE:    0.00 PKD
ROOT
HETATM    1  C   UNK A   0      -6.910  10.345  68.324  1.00  0.00    -0.065 C  
HETATM    2  C   UNK A   0      -8.128  11.113  68.806  1.00  0.00    -0.140 C  
ENDROOT
BRANCH   2   3
HETATM    3  O   UNK A   0      -8.876  11.660  67.710  1.00  0.00    -0.149 OA 
BRANCH   3   4
HETATM    4  C   UNK A   0     -10.198  11.336  67.665  1.00  0.00    -0.181 C  
HETATM    5  O   UNK A   0     -10.933  11.209  68.638  1.00  0.00    -0.188 OA 
BRANCH   4   6
HETATM    6  C   UNK A   0     -10.666  11.155  66.208  1.00  0.00    -0.240 C  
BRANCH   6   7
HETATM    7  C   UNK A   0      -9.438  11.209  65.277  1.00  0.00    -0.257 C  
BRANCH   7   8
HETATM    8  C   UNK A   0      -9.311   9.982  64.363  1.00  0.00    -0.348 C  
BRANCH   8   9
HETATM    9  C   UNK A   0      -8.476   8.912  65.027  1.00  0.00    -0.194 A  
HETATM   10  C   UNK A   0      -7.077   8.973  64.989  1.00  0.00    -0.087 A  
HETATM   11  C   UNK A   0      -6.309   8.007  65.644  1.00  0.00    -0.042 A  
HETATM   12  C   UNK A   0      -9.093   7.873  65.738  1.00  0.00    -0.084 A  
HETATM   13  C   UNK A   0      -6.932   6.977  66.346  1.00  0.00    -0.069 A  
HETATM   14  C   UNK A   0      -8.324   6.909  66.392  1.00  0.00    -0.125 A  
ENDBRANCH   8   9
ENDBRANCH   7   8
ENDBRANCH   6   7
BRANCH   6  15
ATOM     15  N   ALA A   1     -11.657  12.227  65.934  1.00  0.00    -0.385 NA 
ATOM     16  H   ALA A   1     -11.689  12.880  66.717  1.00  0.00     0.000 HD 
BRANCH  15  17
ATOM     17  CA  ALA A   1     -11.470  12.967  64.669  1.00  0.00    -0.327 C  
ATOM     18  CB  ALA A   1     -12.290  12.345  63.536  1.00  0.00    -0.648 C  
BRANCH  17  19
ATOM     19  C   ALA A   1     -11.872  14.458  64.879  1.00  0.00    -0.417 C  
ATOM     20  O   ALA A   1     -12.698  15.009  64.149  1.00  0.00    -0.729 OA 
HETATM   21  C   UNK A   2     -10.084  17.355  66.101  1.00  0.00    -0.309 A  
HETATM   22  C   UNK A   2     -10.072  18.758  66.081  1.00  0.00    -0.421 A  
HETATM   23  N   UNK A   2     -11.262  15.154  65.928  1.00  0.00    -0.318 N  
HETATM   24  C   UNK A   2      -8.870  19.460  66.206  1.00  0.00    -0.372 A  
HETATM   25  C   UNK A   2     -11.407  16.623  65.967  1.00  0.00     0.642 C  
HETATM   26  C   UNK A   2      -7.667  18.771  66.337  1.00  0.00    -0.289 A  
HETATM   27  C   UNK A   2      -7.664  17.380  66.368  1.00  0.00    -0.343 A  
HETATM   28  C   UNK A   2      -8.869  16.671  66.280  1.00  0.00    -0.348 A  
HETATM   29  C   UNK A   2      -8.838  15.170  66.355  1.00  0.00    -0.277 C  
HETATM   30  C   UNK A   2     -10.187  14.606  66.787  1.00  0.00    -0.268 C  
HETATM   31  C   UNK A   2     -10.487  14.785  68.283  1.00  0.00    -0.241 C  
HETATM   32  O   UNK A   2     -11.815  14.905  68.544  1.00  0.00    -0.326 OA 
HETATM   33  O   UNK A   2      -9.657  14.695  69.171  1.00  0.00    -0.181 OA 
ENDBRANCH  17  19
ENDBRANCH  15  17
ENDBRANCH   6  15
ENDBRANCH   4   6
ENDBRANCH   3   4
ENDBRANCH   2   3
TORSDOF 9
ENDMDL
