MODEL       70
REMARK 921   NORMALIZED FREE ENERGY PREDICTED BY IDOCK:   -5.53 KCAL/MOL
REMARK 922        TOTAL FREE ENERGY PREDICTED BY IDOCK:  -14.47 KCAL/MOL
REMARK 923 INTER-LIGAND FREE ENERGY PREDICTED BY IDOCK:  -11.09 KCAL/MOL
REMARK 924 INTRA-LIGAND FREE ENERGY PREDICTED BY IDOCK:   -3.39 KCAL/MOL
REMARK 927      BINDING AFFINITY PREDICTED BY RF-SCORE:    0.00 PKD
ROOT
HETATM    1  O   UNL     1     -13.747  15.341  70.730  1.00  0.00    -0.713 OA 
HETATM    2  C   UNL     1     -13.026  14.210  71.135  1.00  0.00    -0.349 C  
HETATM    3  H   UNL     1     -14.568  15.384  71.207  1.00  0.00     0.000 HD 
ENDROOT
BRANCH   2   4
HETATM    4  C   UNL     1     -11.697  14.139  70.363  1.00  0.00    -0.243 C  
HETATM    5  O   UNL     1     -11.409  12.797  70.057  1.00  0.00    -0.502 OA 
HETATM    6  H   UNL     1     -10.588  12.754  69.580  1.00  0.00     0.000 HD 
BRANCH   4   7
HETATM    7  C   UNL     1     -11.755  14.967  69.052  1.00  0.00    -0.325 C  
HETATM    8  H   UNL     1     -11.060  16.665  68.409  1.00  0.00     0.000 HD 
HETATM    9  O   UNL     1     -11.024  16.158  69.212  1.00  0.00    -0.271 OA 
BRANCH   7  10
HETATM   10  C   UNL     1     -11.182  14.181  67.844  1.00  0.00    -0.279 C  
HETATM   11  H   UNL     1      -9.449  13.950  67.023  1.00  0.00     0.000 HD 
HETATM   12  O   UNL     1      -9.800  14.432  67.763  1.00  0.00    -0.217 OA 
BRANCH  10  13
HETATM   13  C   UNL     1     -11.841  14.561  66.489  1.00  0.00    -0.352 C  
HETATM   14  H   UNL     1     -11.286  15.379  64.817  1.00  0.00     0.000 HD 
HETATM   15  O   UNL     1     -10.883  15.146  65.645  1.00  0.00    -0.328 OA 
BRANCH  13  16
HETATM   16  C   UNL     1     -12.441  13.381  65.762  1.00  0.00    -0.439 C  
HETATM   17  O   UNL     1     -13.265  13.569  64.879  1.00  0.00    -0.661 OA 
BRANCH  16  18
HETATM   18  O   UNL     1     -12.092  12.118  66.076  1.00  0.00    -0.612 OA 
BRANCH  18  19
HETATM   19 CA   UNL     1     -12.476  11.314  68.327  1.00  0.00    -0.263 Ca 
BRANCH  19  20
HETATM   20  O   UNL     1     -12.860  10.510  70.576  1.00  0.00    -0.345 OA 
BRANCH  20  21
HETATM   21  C   UNL     1     -11.835   9.717  70.932  1.00  0.00    -0.323 C  
HETATM   22  O   UNL     1     -10.705  10.087  70.660  1.00  0.00    -0.303 OA 
BRANCH  21  23
HETATM   23  C   UNL     1     -12.057   8.330  71.492  1.00  0.00    -0.299 C  
HETATM   24  H   UNL     1     -13.271   7.513  72.752  1.00  0.00     0.000 HD 
HETATM   25  O   UNL     1     -13.131   8.384  72.400  1.00  0.00    -0.307 OA 
BRANCH  23  26
HETATM   26  C   UNL     1     -10.818   7.711  72.207  1.00  0.00    -0.267 C  
HETATM   27  H   UNL     1     -10.238   7.416  74.034  1.00  0.00     0.000 HD 
HETATM   28  O   UNL     1     -10.993   7.794  73.599  1.00  0.00    -0.239 OA 
BRANCH  26  29
HETATM   29  C   UNL     1     -10.418   6.247  71.814  1.00  0.00    -0.211 C  
BRANCH  29  30
HETATM   30  O   UNL     1     -10.807   6.074  70.459  1.00  0.00    -0.272 OA 
BRANCH  30  31
HETATM   31  C   UNL     1      -9.811   6.345  69.494  1.00  0.00    -0.154 C  
HETATM   32  O   UNL     1     -10.049   7.605  68.889  1.00  0.00    -0.186 OA 
HETATM   33  C   UNL     1      -9.047   7.897  67.927  1.00  0.00    -0.131 C  
HETATM   34  H   UNL     1      -9.733   3.267  68.357  1.00  0.00     0.000 HD 
HETATM   35  C   UNL     1      -9.139   6.902  66.741  1.00  0.00    -0.145 C  
HETATM   36  O   UNL     1     -10.405   6.977  66.132  1.00  0.00    -0.405 OA 
HETATM   37  C   UNL     1      -8.906   5.478  67.285  1.00  0.00    -0.105 C  
HETATM   38  O   UNL     1      -9.680   3.956  69.008  1.00  0.00    -0.164 OA 
HETATM   39  H   UNL     1     -10.462   6.367  65.405  1.00  0.00     0.000 HD 
HETATM   40  O   UNL     1      -9.087   4.504  66.286  1.00  0.00    -0.116 OA 
HETATM   41  C   UNL     1      -9.899   5.221  68.432  1.00  0.00    -0.153 C  
HETATM   42  H   UNL     1      -8.944   3.627  66.622  1.00  0.00     0.000 HD 
BRANCH  33  43
HETATM   43  C   UNL     1      -9.233   9.355  67.477  1.00  0.00    -0.123 C  
HETATM   44  O   UNL     1     -10.515   9.827  67.795  1.00  0.00    -0.213 OA 
HETATM   45  H   UNL     1     -10.630  10.727  67.517  1.00  0.00     0.000 HD 
ENDBRANCH  33  43
ENDBRANCH  30  31
ENDBRANCH  29  30
BRANCH  29  46
HETATM   46  C   UNL     1     -10.980   5.110  72.739  1.00  0.00    -0.267 C  
HETATM   47  O   UNL     1     -12.361   5.275  72.960  1.00  0.00    -0.485 OA 
HETATM   48  H   UNL     1     -12.702   4.587  73.519  1.00  0.00     0.000 HD 
BRANCH  46  49
HETATM   49  C   UNL     1     -10.199   4.891  74.056  1.00  0.00    -0.226 C  
HETATM   50  H   UNL     1      -9.161   3.469  74.905  1.00  0.00     0.000 HD 
HETATM   51  O   UNL     1      -9.640   3.604  74.096  1.00  0.00    -0.095 OA 
ENDBRANCH  46  49
ENDBRANCH  29  46
ENDBRANCH  26  29
ENDBRANCH  23  26
ENDBRANCH  21  23
ENDBRANCH  20  21
ENDBRANCH  19  20
ENDBRANCH  18  19
ENDBRANCH  16  18
ENDBRANCH  13  16
ENDBRANCH  10  13
ENDBRANCH   7  10
ENDBRANCH   4   7
ENDBRANCH   2   4
TORSDOF 17
ENDMDL
