MODEL       29
REMARK 921   NORMALIZED FREE ENERGY PREDICTED BY IDOCK:   -7.51 KCAL/MOL
REMARK 922        TOTAL FREE ENERGY PREDICTED BY IDOCK:  -12.89 KCAL/MOL
REMARK 923 INTER-LIGAND FREE ENERGY PREDICTED BY IDOCK:  -11.26 KCAL/MOL
REMARK 924 INTRA-LIGAND FREE ENERGY PREDICTED BY IDOCK:   -1.63 KCAL/MOL
REMARK 927      BINDING AFFINITY PREDICTED BY RF-SCORE:    0.00 PKD
ROOT
HETATM    1  C   UNL     1     -11.903  15.425  69.822  1.00  0.00    -0.367 C  
HETATM    2  C   UNL     1     -12.303  14.004  70.182  1.00  0.00    -0.409 C  
ENDROOT
BRANCH   2   3
HETATM    3  C   UNL     1     -11.888  12.990  69.140  1.00  0.00    -0.360 A  
HETATM    4  C   UNL     1     -11.523  13.536  67.900  1.00  0.00    -0.353 A  
HETATM    5  C   UNL     1     -11.282  12.734  66.782  1.00  0.00    -0.338 A  
HETATM    6  C   UNL     1     -11.360  11.353  66.905  1.00  0.00    -0.284 A  
HETATM    7  C   UNL     1     -11.654  10.787  68.157  1.00  0.00    -0.276 A  
HETATM    8  C   UNL     1     -11.902  11.587  69.298  1.00  0.00    -0.414 A  
BRANCH   5   9
HETATM    9  C   UNL     1     -11.091  13.447  65.488  1.00  0.00    -0.282 C  
HETATM   10  C   UNL     1     -12.128  13.343  64.402  1.00  0.00    -0.468 C  
BRANCH   9  11
HETATM   11  N   UNL     1      -9.998  14.147  65.365  1.00  0.00    -0.522 NA 
HETATM   12  H   UNL     1      -9.081  13.836  65.686  1.00  0.00     0.000 HD 
BRANCH  11  13
HETATM   13  O   UNL     1     -10.233  15.371  64.740  1.00  0.00    -0.301 OA 
BRANCH  13  14
HETATM   14  C   UNL     1     -10.893  16.214  65.676  1.00  0.00    -0.238 C  
BRANCH  14  15
HETATM   15  C   UNL     1      -9.838  16.929  66.463  1.00  0.00    -0.307 A  
HETATM   16  F   UNL     1      -6.457  16.646  69.972  1.00  0.00    -0.219 F  
HETATM   17  F   UNL     1      -8.192  15.358  69.954  1.00  0.00    -0.228 F  
HETATM   18  C   UNL     1      -9.673  18.301  66.338  1.00  0.00    -0.334 A  
HETATM   19  F   UNL     1      -6.586  15.016  68.535  1.00  0.00    -0.087 F  
HETATM   20  C   UNL     1      -8.659  18.946  67.041  1.00  0.00    -0.301 A  
HETATM   21  C   UNL     1      -9.051  16.240  67.388  1.00  0.00    -0.203 A  
HETATM   22  C   UNL     1      -7.749  18.247  67.861  1.00  0.00    -0.249 A  
HETATM   23  C   UNL     1      -7.312  16.004  69.131  1.00  0.00    -0.209 C  
HETATM   24  C   UNL     1      -8.024  16.880  68.117  1.00  0.00    -0.195 A  
BRANCH  22  25
HETATM   25  C   UNL     1      -6.496  18.955  68.398  1.00  0.00    -0.248 C  
HETATM   26  C   UNL     1      -5.217  18.531  67.637  1.00  0.00    -0.159 C  
HETATM   27  C   UNL     1      -5.213  19.040  66.198  1.00  0.00    -0.171 C  
HETATM   28  C   UNL     1      -5.258  20.560  66.164  1.00  0.00    -0.201 C  
HETATM   29  C   UNL     1      -6.398  21.139  66.993  1.00  0.00    -0.404 C  
HETATM   30  C   UNL     1      -6.518  20.509  68.390  1.00  0.00    -0.324 C  
ENDBRANCH  22  25
ENDBRANCH  14  15
ENDBRANCH  13  14
ENDBRANCH  11  13
ENDBRANCH   9  11
ENDBRANCH   5   9
BRANCH   8  31
HETATM   31  C   UNL     1     -12.305  10.924  70.609  1.00  0.00    -0.376 C  
BRANCH  31  32
HETATM   32  N   UNL     1     -12.026   9.471  70.717  1.00  0.00    -0.273 NA 
HETATM   33  O   UNL     1     -11.544   6.449  70.533  1.00  0.00    -0.369 OA 
HETATM   34  O   UNL     1     -11.616   5.674  72.643  1.00  0.00    -0.307 OA 
HETATM   35  C   UNL     1     -10.898   9.197  71.648  1.00  0.00    -0.372 C  
HETATM   36  C   UNL     1     -11.631   6.636  71.880  1.00  0.00    -0.303 C  
HETATM   37  C   UNL     1     -12.959   8.898  71.737  1.00  0.00    -0.367 C  
HETATM   38  C   UNL     1     -11.769   8.110  72.317  1.00  0.00    -0.439 C  
ENDBRANCH  31  32
ENDBRANCH   8  31
ENDBRANCH   2   3
TORSDOF 9
ENDMDL
