MODEL      118
REMARK 921   NORMALIZED FREE ENERGY PREDICTED BY IDOCK:   15.03 KCAL/MOL
REMARK 922        TOTAL FREE ENERGY PREDICTED BY IDOCK:   15.21 KCAL/MOL
REMARK 923 INTER-LIGAND FREE ENERGY PREDICTED BY IDOCK:    2.61 KCAL/MOL
REMARK 924 INTRA-LIGAND FREE ENERGY PREDICTED BY IDOCK:   12.60 KCAL/MOL
REMARK 927      BINDING AFFINITY PREDICTED BY RF-SCORE:    0.00 PKD
ROOT
HETATM    1  O   UNL     1      -9.936  17.894  67.183  1.00  0.00    -0.302 OA 
HETATM    2  C   UNL     1     -10.119  16.611  67.564  1.00  0.00    -0.273 C  
HETATM    3  O   UNL     1      -9.868  16.231  68.693  1.00  0.00    -0.214 OA 
HETATM    4  C   UNL     1     -10.530  15.681  66.478  1.00  0.00    -0.303 A  
HETATM    5  C   UNL     1     -11.567  16.021  65.583  1.00  0.00     0.514 A  
HETATM    6 CL   UNL     1     -12.393  17.549  65.725  1.00  0.00     5.097 Cl 
HETATM    7  C   UNL     1     -11.962  15.118  64.575  1.00  0.00    -0.319 A  
HETATM    8 CL   UNL     1     -13.249  15.546  63.479  1.00  0.00     2.033 Cl 
HETATM    9  C   UNL     1     -11.318  13.877  64.448  1.00  0.00    -0.341 A  
HETATM   10  C   UNL     1     -10.278  13.532  65.334  1.00  0.00    -0.302 A  
HETATM   11 CL   UNL     1     -11.817  12.757  63.211  1.00  0.00    -0.572 Cl 
HETATM   12  C   UNL     1      -9.889  14.409  66.377  1.00  0.00    -0.309 A  
HETATM   13 CL   UNL     1      -9.436  12.017  65.132  1.00  0.00    -0.081 Cl 
ENDROOT
BRANCH  12  14
HETATM   14  C   UNL     1      -8.848  13.948  67.370  1.00  0.00    -0.209 A  
HETATM   15  C   UNL     1      -8.718  12.633  67.706  1.00  0.00    -0.179 A  
HETATM   16  C   UNL     1      -9.591  11.599  67.148  1.00  0.00    -0.185 C  
HETATM   17  C   UNL     1      -9.335  10.290  67.309  1.00  0.00    -0.149 C  
HETATM   18  C   UNL     1      -8.143   9.845  68.101  1.00  0.00    -0.104 C  
HETATM   19  I   UNL     1     -10.572   8.862  66.491  1.00  0.00     0.835 I  
HETATM   20  C   UNL     1      -7.421  10.901  68.880  1.00  0.00    -0.116 C  
HETATM   21  O   UNL     1      -7.800   8.667  68.132  1.00  0.00    -0.100 OA 
HETATM   22  I   UNL     1      -5.984  10.261  70.241  1.00  0.00    -0.119 I  
HETATM   23  C   UNL     1      -7.713  12.202  68.692  1.00  0.00    -0.089 A  
HETATM   24  O   UNL     1      -7.073  13.158  69.463  1.00  0.00     0.078 OA 
HETATM   25  C   UNL     1      -7.146  14.482  69.131  1.00  0.00    -0.130 A  
HETATM   26  C   UNL     1      -6.375  15.385  69.885  1.00  0.00    -0.158 A  
HETATM   27  C   UNL     1      -6.415  16.752  69.596  1.00  0.00    -0.189 A  
HETATM   28  I   UNL     1      -5.150  14.695  71.464  1.00  0.00    -0.134 I  
HETATM   29  C   UNL     1      -7.193  17.198  68.527  1.00  0.00    -0.220 A  
HETATM   30  O   UNL     1      -5.714  17.658  70.344  1.00  0.00    -0.243 OA 
HETATM   31  H   UNL     1      -5.741  18.587  70.147  1.00  0.00     0.000 HD 
HETATM   32  I   UNL     1      -7.301  19.226  68.014  1.00  0.00    -0.325 I  
HETATM   33  C   UNL     1      -7.949  16.290  67.772  1.00  0.00    -0.154 A  
HETATM   34  C   UNL     1      -7.960  14.921  68.083  1.00  0.00    -0.130 A  
ENDBRANCH  12  14
TORSDOF 1
ENDMDL
