MODEL      133
REMARK 921   NORMALIZED FREE ENERGY PREDICTED BY IDOCK:    4.64 KCAL/MOL
REMARK 922        TOTAL FREE ENERGY PREDICTED BY IDOCK:    5.20 KCAL/MOL
REMARK 923 INTER-LIGAND FREE ENERGY PREDICTED BY IDOCK:    4.92 KCAL/MOL
REMARK 924 INTRA-LIGAND FREE ENERGY PREDICTED BY IDOCK:    0.28 KCAL/MOL
REMARK 927      BINDING AFFINITY PREDICTED BY RF-SCORE:    0.00 PKD
ROOT
HETATM    1  C   UNL     1      -7.736   6.597  73.387  1.00  0.00    -0.090 C  
HETATM    2  O   UNL     1      -7.669   5.608  72.360  1.00  0.00    -0.099 OA 
ENDROOT
BRANCH   2   3
HETATM    3  C   UNL     1      -7.354   6.072  71.109  1.00  0.00    -0.084 A  
HETATM    4  C   UNL     1      -7.139   5.165  70.066  1.00  0.00    -0.058 A  
HETATM    5  C   UNL     1      -6.884   5.670  68.786  1.00  0.00    -0.059 A  
HETATM    6  C   UNL     1      -7.000   7.955  69.582  1.00  0.00    -0.053 A  
HETATM    7  C   UNL     1      -6.845   7.061  68.532  1.00  0.00    -0.073 A  
HETATM    8  C   UNL     1      -7.226   7.450  70.851  1.00  0.00    -0.068 A  
HETATM    9  C   UNL     1      -6.686   7.661  67.283  1.00  0.00    -0.068 A  
HETATM   10  N   UNL     1      -6.521   6.897  66.121  1.00  0.00    -0.049 NA 
HETATM   11  N   UNL     1      -6.678   8.988  67.105  1.00  0.00    -0.065 NA 
HETATM   12  H1  UNL     1      -6.405   7.336  65.207  1.00  0.00     0.000 HD 
HETATM   13  C   UNL     1      -6.836   9.774  68.181  1.00  0.00    -0.069 A  
HETATM   14  H2  UNL     1      -7.304   6.246  66.059  1.00  0.00     0.000 HD 
HETATM   15  N   UNL     1      -6.977   9.281  69.416  1.00  0.00    -0.048 NA 
BRANCH   4  16
HETATM   16  O   UNL     1      -7.157   3.798  70.086  1.00  0.00    -0.040 OA 
HETATM   17  C   UNL     1      -6.985   3.082  68.874  1.00  0.00    -0.048 C  
ENDBRANCH   4  16
BRANCH  13  18
HETATM   18  N   UNL     1      -6.970  11.130  68.004  1.00  0.00    -0.067 NA 
HETATM   19  C   UNL     1      -5.793  13.249  67.692  1.00  0.00    -0.103 C  
HETATM   20  C   UNL     1      -6.017  12.048  68.629  1.00  0.00    -0.054 C  
HETATM   21  N   UNL     1      -7.064  13.872  67.288  1.00  0.00    -0.050 N  
HETATM   22  C   UNL     1      -7.217  15.244  67.422  1.00  0.00    -0.204 C  
HETATM   23  C   UNL     1      -8.038  12.928  66.713  1.00  0.00     0.154 C  
HETATM   24  C   UNL     1      -8.265  11.711  67.639  1.00  0.00    -0.141 C  
HETATM   25  O   UNL     1      -6.310  15.938  67.890  1.00  0.00    -0.114 OA 
BRANCH  22  26
HETATM   26  C   UNL     1      -8.520  15.894  66.933  1.00  0.00    -0.240 C  
HETATM   27  C   UNL     1      -9.422  16.202  68.126  1.00  0.00    -0.209 C  
HETATM   28  O   UNL     1     -10.587  16.932  67.713  1.00  0.00    -0.329 OA 
HETATM   29  C   UNL     1     -11.147  16.382  66.590  1.00  0.00     0.156 A  
HETATM   30  C   UNL     1     -12.440  16.792  66.270  1.00  0.00     4.286 A  
HETATM   31  C   UNL     1     -13.075  16.267  65.144  1.00  0.00     3.831 A  
HETATM   32  C   UNL     1     -12.416  15.338  64.339  1.00  0.00    -0.044 A  
HETATM   33  C   UNL     1     -11.119  14.931  64.656  1.00  0.00    -0.335 A  
HETATM   34  C   UNL     1     -10.481  15.460  65.776  1.00  0.00    -0.355 A  
HETATM   35  O   UNL     1      -9.207  15.021  66.027  1.00  0.00    -0.293 OA 
ENDBRANCH  22  26
ENDBRANCH  13  18
ENDBRANCH   2   3
TORSDOF 4
ENDMDL
