MODEL       41
REMARK 921   NORMALIZED FREE ENERGY PREDICTED BY IDOCK:   -0.65 KCAL/MOL
REMARK 922        TOTAL FREE ENERGY PREDICTED BY IDOCK:   -1.68 KCAL/MOL
REMARK 923 INTER-LIGAND FREE ENERGY PREDICTED BY IDOCK:   -2.86 KCAL/MOL
REMARK 924 INTRA-LIGAND FREE ENERGY PREDICTED BY IDOCK:    1.17 KCAL/MOL
REMARK 927      BINDING AFFINITY PREDICTED BY RF-SCORE:    0.00 PKD
ROOT
HETATM    1  C   UNL     1     -12.854  13.557  71.101  1.00  0.00    -0.387 C  
HETATM    2  C   UNL     1     -12.874  12.237  70.328  1.00  0.00     0.265 C  
ENDROOT
BRANCH   2   3
HETATM    3  C   UNL     1     -11.537  11.571  70.036  1.00  0.00    -0.364 A  
HETATM    4  C   UNL     1     -11.295  10.297  70.578  1.00  0.00    -0.422 A  
HETATM    5  C   UNL     1     -10.146   9.559  70.279  1.00  0.00    -0.314 A  
HETATM    6  C   UNL     1      -9.159  10.092  69.438  1.00  0.00    -0.228 A  
HETATM    7  C   UNL     1      -9.386  11.383  68.931  1.00  0.00    -0.044 A  
HETATM    8  C   UNL     1      -7.890   9.310  69.040  1.00  0.00    -0.082 C  
HETATM    9  C   UNL     1     -10.558  12.137  69.179  1.00  0.00    -0.004 A  
HETATM   10  C   UNL     1      -7.884   9.088  67.510  1.00  0.00    -0.100 C  
HETATM   11  C   UNL     1      -7.878   7.964  69.726  1.00  0.00    -0.104 A  
HETATM   12  C   UNL     1      -6.636  10.106  69.459  1.00  0.00    -0.060 C  
HETATM   13  N   UNL     1      -5.906   1.503  71.814  1.00  0.00    -0.008 NA 
HETATM   14  C   UNL     1      -8.858   7.457  70.554  1.00  0.00    -0.148 A  
HETATM   15  C   UNL     1      -9.048   5.180  71.788  1.00  0.00    -0.157 A  
HETATM   16  C   UNL     1     -10.050   8.200  70.880  1.00  0.00    -0.188 C  
HETATM   17  C   UNL     1      -8.464   6.162  70.965  1.00  0.00    -0.128 A  
HETATM   18  O   UNL     1     -10.938   7.755  71.600  1.00  0.00    -0.230 OA 
HETATM   19  C   UNL     1      -8.378   3.974  71.998  1.00  0.00    -0.101 A  
HETATM   20  C   UNL     1      -7.225   5.909  70.375  1.00  0.00    -0.072 A  
HETATM   21  C   UNL     1      -6.537   4.707  70.575  1.00  0.00    -0.035 A  
HETATM   22  N   UNL     1      -6.890   7.017  69.627  1.00  0.00    -0.049 NA 
HETATM   23  C   UNL     1      -6.463   2.502  71.631  1.00  0.00    -0.018 C  
HETATM   24  C   UNL     1      -7.135   3.742  71.403  1.00  0.00    -0.032 A  
HETATM   25  H   UNL     1      -6.035   7.118  69.081  1.00  0.00     0.000 HD 
BRANCH   9  26
HETATM   26  N   UNL     1     -10.739  13.335  68.504  1.00  0.00    -0.257 NA 
HETATM   27  C   UNL     1     -11.091  15.690  68.813  1.00  0.00    -0.307 C  
HETATM   28  C   UNL     1     -10.060  14.567  68.913  1.00  0.00    -0.224 C  
HETATM   29  C   UNL     1     -11.577  15.846  67.350  1.00  0.00     0.159 C  
HETATM   30  C   UNL     1     -11.160  13.352  67.095  1.00  0.00    -0.286 C  
HETATM   31  C   UNL     1     -12.168  14.484  66.920  1.00  0.00    -0.220 C  
BRANCH  29  32
HETATM   32  N   UNL     1     -10.491  16.318  66.444  1.00  0.00    -0.306 NA 
HETATM   33  C   UNL     1     -10.079  15.304  65.441  1.00  0.00    -0.362 C  
HETATM   34  C   UNL     1     -11.171  15.013  64.398  1.00  0.00    -0.161 C  
HETATM   35  O   UNL     1     -11.569  16.207  63.710  1.00  0.00    -0.803 OA 
HETATM   36  C   UNL     1     -11.968  17.239  64.622  1.00  0.00     2.910 C  
HETATM   37  C   UNL     1     -10.872  17.522  65.662  1.00  0.00     0.013 C  
ENDBRANCH  29  32
ENDBRANCH   9  26
ENDBRANCH   2   3
TORSDOF 3
ENDMDL
