MODEL        3
REMARK 921   NORMALIZED FREE ENERGY PREDICTED BY IDOCK:   -7.21 KCAL/MOL
REMARK 922        TOTAL FREE ENERGY PREDICTED BY IDOCK:   -9.68 KCAL/MOL
REMARK 923 INTER-LIGAND FREE ENERGY PREDICTED BY IDOCK:   -9.39 KCAL/MOL
REMARK 924 INTRA-LIGAND FREE ENERGY PREDICTED BY IDOCK:   -0.28 KCAL/MOL
REMARK 927      BINDING AFFINITY PREDICTED BY RF-SCORE:    0.00 PKD
ROOT
HETATM    1  C   UNL     1     -12.247  13.511  70.997  1.00  0.00    -0.262 C  
ENDROOT
BRANCH   1   2
HETATM    2  N   UNL     1     -12.651  14.229  69.778  1.00  0.00    -0.214 NA 
HETATM    3  C   UNL     1     -10.772  13.458  68.237  1.00  0.00    -0.258 C  
HETATM    4  N   UNL     1     -10.185  14.817  68.091  1.00  0.00    -0.225 NA 
HETATM    5  C   UNL     1     -12.028  15.570  69.679  1.00  0.00    -0.359 C  
HETATM    6  C   UNL     1     -12.282  13.436  68.583  1.00  0.00    -0.108 C  
HETATM    7  C   UNL     1     -10.522  15.564  69.326  1.00  0.00    -0.245 C  
BRANCH   4   8
HETATM    8  C   UNL     1     -10.663  15.509  66.848  1.00  0.00    -0.317 C  
BRANCH   8   9
HETATM    9  C   UNL     1      -9.830  16.756  66.507  1.00  0.00    -0.303 A  
HETATM   10  C   UNL     1      -9.637  19.194  66.490  1.00  0.00    -0.399 A  
HETATM   11  C   UNL     1      -8.461  16.684  66.202  1.00  0.00    -0.308 A  
HETATM   12  C   UNL     1      -8.276  19.096  66.217  1.00  0.00    -0.309 A  
HETATM   13  C   UNL     1      -7.693  17.842  66.055  1.00  0.00    -0.216 A  
HETATM   14  C   UNL     1     -10.411  18.037  66.622  1.00  0.00    -0.375 A  
ENDBRANCH   8   9
BRANCH   8  15
HETATM   15  C   UNL     1     -10.801  14.513  65.684  1.00  0.00    -0.329 A  
HETATM   16  C   UNL     1     -12.212  13.526  63.958  1.00  0.00    -0.458 A  
HETATM   17  C   UNL     1     -10.178  12.412  64.616  1.00  0.00    -0.312 A  
HETATM   18  C   UNL     1     -11.332  12.453  63.840  1.00  0.00    -0.502 A  
HETATM   19  C   UNL     1      -9.916  13.431  65.533  1.00  0.00    -0.226 A  
HETATM   20  C   UNL     1     -11.944  14.556  64.863  1.00  0.00    -0.425 A  
ENDBRANCH   8  15
ENDBRANCH   4   8
ENDBRANCH   1   2
BRANCH   1  21
HETATM   21  C   UNL     1     -12.348  12.026  70.852  1.00  0.00    -0.384 C  
HETATM   22  C   UNL     1     -13.006  11.252  71.731  1.00  0.00    -0.519 C  
BRANCH  22  23
HETATM   23  C   UNL     1     -13.067   9.805  71.581  1.00  0.00    -0.516 A  
HETATM   24  C   UNL     1     -14.257   9.135  71.886  1.00  0.00    -0.288 A  
HETATM   25  C   UNL     1     -14.337   7.750  71.748  1.00  0.00    -0.594 A  
HETATM   26  C   UNL     1     -11.955   9.079  71.144  1.00  0.00    -0.356 A  
HETATM   27  C   UNL     1     -12.038   7.692  71.005  1.00  0.00    -0.282 A  
HETATM   28  C   UNL     1     -13.228   7.030  71.304  1.00  0.00    -0.304 A  
ENDBRANCH  22  23
ENDBRANCH   1  21
TORSDOF 6
ENDMDL
