MODEL        1
REMARK 921   NORMALIZED FREE ENERGY PREDICTED BY IDOCK:   -8.51 KCAL/MOL
REMARK 922        TOTAL FREE ENERGY PREDICTED BY IDOCK:  -14.41 KCAL/MOL
REMARK 923 INTER-LIGAND FREE ENERGY PREDICTED BY IDOCK:  -12.98 KCAL/MOL
REMARK 924 INTRA-LIGAND FREE ENERGY PREDICTED BY IDOCK:   -1.43 KCAL/MOL
REMARK 927      BINDING AFFINITY PREDICTED BY RF-SCORE:    0.00 PKD
ROOT
HETATM    1  C   UNL     1     -12.334  14.680  70.401  1.00  0.00    -0.399 C  
HETATM    2  C   UNL     1     -11.517  15.789  69.758  1.00  0.00    -0.350 C  
ENDROOT
BRANCH   2   3
HETATM    3  C   UNL     1     -11.345  15.610  68.267  1.00  0.00    -0.357 A  
HETATM    4  C   UNL     1     -11.732  14.354  67.777  1.00  0.00    -0.407 A  
HETATM    5  C   UNL     1     -11.479  13.964  66.460  1.00  0.00    -0.361 A  
HETATM    6  C   UNL     1     -10.865  14.858  65.592  1.00  0.00    -0.347 A  
HETATM    7  C   UNL     1     -10.534  16.145  66.047  1.00  0.00    -0.349 A  
HETATM    8  C   UNL     1     -10.784  16.553  67.378  1.00  0.00    -0.260 A  
BRANCH   5   9
HETATM    9  C   UNL     1     -11.770  12.542  66.125  1.00  0.00    -0.409 C  
HETATM   10  C   UNL     1     -11.858  12.101  64.689  1.00  0.00    -0.400 C  
BRANCH   9  11
HETATM   11  N   UNL     1     -11.938  11.729  67.131  1.00  0.00    -0.595 NA 
HETATM   12  H   UNL     1     -12.732  11.768  67.770  1.00  0.00     0.000 HD 
BRANCH  11  13
HETATM   13  O   UNL     1     -10.901  10.802  67.229  1.00  0.00    -0.260 OA 
BRANCH  13  14
HETATM   14  C   UNL     1     -10.022  11.244  68.256  1.00  0.00    -0.195 C  
BRANCH  14  15
HETATM   15  C   UNL     1     -10.285  10.406  69.469  1.00  0.00    -0.258 A  
HETATM   16  F   UNL     1     -13.435   9.189  72.993  1.00  0.00    -0.458 F  
HETATM   17  F   UNL     1     -13.478  11.131  72.046  1.00  0.00    -0.513 F  
HETATM   18  C   UNL     1      -9.271   9.649  70.038  1.00  0.00    -0.275 A  
HETATM   19  F   UNL     1     -14.193   9.392  70.962  1.00  0.00    -0.341 F  
HETATM   20  C   UNL     1      -9.542   8.840  71.137  1.00  0.00    -0.309 A  
HETATM   21  C   UNL     1     -11.536  10.426  70.089  1.00  0.00    -0.396 A  
HETATM   22  C   UNL     1     -10.836   8.721  71.685  1.00  0.00    -0.399 A  
HETATM   23  C   UNL     1     -13.208   9.813  71.806  1.00  0.00    -0.436 C  
HETATM   24  C   UNL     1     -11.825   9.618  71.212  1.00  0.00    -0.460 A  
BRANCH  22  25
HETATM   25  C   UNL     1     -11.137   7.623  72.717  1.00  0.00    -0.437 C  
HETATM   26  C   UNL     1     -11.831   6.397  72.075  1.00  0.00    -0.382 C  
HETATM   27  C   UNL     1     -10.894   5.635  71.142  1.00  0.00    -0.288 C  
HETATM   28  C   UNL     1      -9.687   5.106  71.903  1.00  0.00    -0.211 C  
HETATM   29  C   UNL     1      -8.972   6.186  72.706  1.00  0.00    -0.126 C  
HETATM   30  C   UNL     1      -9.927   7.074  73.521  1.00  0.00    -0.321 C  
ENDBRANCH  22  25
ENDBRANCH  14  15
ENDBRANCH  13  14
ENDBRANCH  11  13
ENDBRANCH   9  11
ENDBRANCH   5   9
BRANCH   8  31
HETATM   31  C   UNL     1     -10.324  17.929  67.844  1.00  0.00    -0.389 C  
BRANCH  31  32
HETATM   32  N   UNL     1      -9.254  18.565  67.037  1.00  0.00    -0.277 NA 
HETATM   33  O   UNL     1      -7.015  19.512  65.169  1.00  0.00    -0.407 OA 
HETATM   34  O   UNL     1      -6.118  21.332  66.140  1.00  0.00    -0.271 OA 
HETATM   35  C   UNL     1      -9.544  19.999  66.774  1.00  0.00    -0.417 C  
HETATM   36  C   UNL     1      -6.988  20.465  66.143  1.00  0.00    -0.242 C  
HETATM   37  C   UNL     1      -8.167  18.994  67.972  1.00  0.00    -0.300 C  
HETATM   38  C   UNL     1      -8.098  20.329  67.207  1.00  0.00    -0.381 C  
ENDBRANCH  31  32
ENDBRANCH   8  31
ENDBRANCH   2   3
TORSDOF 9
ENDMDL
