MODEL      210
REMARK 921   NORMALIZED FREE ENERGY PREDICTED BY IDOCK:   -3.97 KCAL/MOL
REMARK 922        TOTAL FREE ENERGY PREDICTED BY IDOCK:  -10.00 KCAL/MOL
REMARK 923 INTER-LIGAND FREE ENERGY PREDICTED BY IDOCK:   -8.38 KCAL/MOL
REMARK 924 INTRA-LIGAND FREE ENERGY PREDICTED BY IDOCK:   -1.62 KCAL/MOL
REMARK 927      BINDING AFFINITY PREDICTED BY RF-SCORE:    0.00 PKD
ROOT
HETATM    1  C   UNL     1      -9.026   7.392  72.563  1.00  0.00    -0.165 C  
HETATM    2  C   UNL     1     -10.257   6.557  72.258  1.00  0.00    -0.184 C  
ENDROOT
BRANCH   2   3
HETATM    3  O   UNL     1     -11.397   7.275  72.743  1.00  0.00    -0.300 OA 
BRANCH   3   4
HETATM    4  C   UNL     1     -12.281   7.642  71.773  1.00  0.00    -0.311 C  
HETATM    5  O   UNL     1     -12.843   6.883  71.001  1.00  0.00    -0.333 OA 
BRANCH   4   6
HETATM    6  C   UNL     1     -12.528   9.122  71.882  1.00  0.00    -0.459 C  
BRANCH   6   7
HETATM    7  C   UNL     1     -11.528   9.893  71.015  1.00  0.00    -0.466 C  
BRANCH   7   8
HETATM    8  C   UNL     1     -12.224  10.784  69.997  1.00  0.00    -0.409 C  
BRANCH   8   9
HETATM    9  C   UNL     1     -12.644  12.108  70.587  1.00  0.00    -0.255 C  
HETATM   10  C   UNL     1     -12.398  13.312  70.047  1.00  0.00    -0.269 C  
BRANCH  10  11
HETATM   11  C   UNL     1     -11.528  13.533  68.853  1.00  0.00    -0.348 C  
BRANCH  11  12
HETATM   12  C   UNL     1     -11.590  12.458  67.812  1.00  0.00    -0.413 C  
HETATM   13  C   UNL     1     -12.070  12.654  66.570  1.00  0.00    -0.296 C  
BRANCH  13  14
HETATM   14  C   UNL     1     -12.613  13.928  65.964  1.00  0.00    -0.467 C  
BRANCH  14  15
HETATM   15  C   UNL     1     -11.803  14.498  64.828  1.00  0.00    -0.446 C  
HETATM   16  C   UNL     1     -10.782  15.361  64.941  1.00  0.00    -0.416 C  
BRANCH  16  17
HETATM   17  C   UNL     1     -10.383  16.047  66.207  1.00  0.00    -0.330 C  
BRANCH  17  18
HETATM   18  C   UNL     1      -9.188  15.343  66.791  1.00  0.00    -0.273 C  
HETATM   19  C   UNL     1      -8.601  15.677  67.949  1.00  0.00    -0.163 C  
BRANCH  19  20
HETATM   20  C   UNL     1      -9.028  16.814  68.816  1.00  0.00    -0.254 C  
BRANCH  20  21
HETATM   21  C   UNL     1      -8.121  18.000  68.688  1.00  0.00    -0.293 C  
HETATM   22  C   UNL     1      -8.539  19.245  68.411  1.00  0.00    -0.389 C  
BRANCH  22  23
HETATM   23  C   UNL     1      -9.956  19.651  68.146  1.00  0.00    -0.547 C  
HETATM   24  C   UNL     1     -10.226  19.809  66.661  1.00  0.00    -0.595 C  
ENDBRANCH  22  23
ENDBRANCH  20  21
ENDBRANCH  19  20
ENDBRANCH  17  18
ENDBRANCH  16  17
ENDBRANCH  14  15
ENDBRANCH  13  14
ENDBRANCH  11  12
ENDBRANCH  10  11
ENDBRANCH   8   9
ENDBRANCH   7   8
ENDBRANCH   6   7
ENDBRANCH   4   6
ENDBRANCH   3   4
ENDBRANCH   2   3
TORSDOF 15
ENDMDL
