MODEL       99
REMARK 921   NORMALIZED FREE ENERGY PREDICTED BY IDOCK:   -5.63 KCAL/MOL
REMARK 922        TOTAL FREE ENERGY PREDICTED BY IDOCK:  -10.34 KCAL/MOL
REMARK 923 INTER-LIGAND FREE ENERGY PREDICTED BY IDOCK:   -8.27 KCAL/MOL
REMARK 924 INTRA-LIGAND FREE ENERGY PREDICTED BY IDOCK:   -2.06 KCAL/MOL
REMARK 927      BINDING AFFINITY PREDICTED BY RF-SCORE:    0.00 PKD
ROOT
HETATM    1 CU   UNL     1     -12.361   9.215  69.051  1.00  0.00    -0.002 Cu 
HETATM    2  O   UNL     2     -12.329   4.870  73.193  1.00  0.00    -0.341 OA 
HETATM    3  C   UNL     2     -11.024   5.242  72.727  1.00  0.00    -0.275 C  
HETATM    4  H   UNL     2     -12.233   4.055  73.673  1.00  0.00     0.000 HD 
HETATM    5  O   UNL     3     -10.499  12.085  62.596  1.00  0.00    -0.328 OA 
HETATM    6  H   UNL     3     -10.091  11.282  62.291  1.00  0.00     0.000 HD 
HETATM    7  C   UNL     3     -11.335  11.773  63.728  1.00  0.00    -0.438 C  
ENDROOT
BRANCH   3   8
HETATM    8  C   UNL     2     -11.179   6.550  71.956  1.00  0.00    -0.273 C  
HETATM    9  O   UNL     2     -12.473   6.589  71.324  1.00  0.00    -0.283 OA 
HETATM   10  H   UNL     2     -12.569   7.404  70.844  1.00  0.00     0.000 HD 
BRANCH   8  11
HETATM   11  C   UNL     2     -10.961   7.786  72.853  1.00  0.00    -0.407 C  
HETATM   12  O   UNL     2     -10.183   7.360  73.975  1.00  0.00    -0.405 OA 
HETATM   13  H   UNL     2     -10.049   8.120  74.527  1.00  0.00     0.000 HD 
BRANCH  11  14
HETATM   14  C   UNL     2     -10.221   8.865  72.037  1.00  0.00    -0.293 C  
HETATM   15  H   UNL     2     -10.711  10.144  70.609  1.00  0.00     0.000 HD 
HETATM   16  O   UNL     2     -11.167   9.479  71.112  1.00  0.00    -0.315 OA 
BRANCH  14  17
HETATM   17  C   UNL     2      -8.941   8.440  71.318  1.00  0.00    -0.178 C  
HETATM   18  C   UNL     2      -7.716   9.079  72.022  1.00  0.00     0.274 C  
HETATM   19  H   UNL     2      -8.255   8.468  69.473  1.00  0.00     0.000 HD 
HETATM   20  O   UNL     2      -9.051   8.732  69.920  1.00  0.00    -0.148 OA 
HETATM   21  O   UNL     2      -7.766   8.901  73.282  1.00  0.00    -0.375 OA 
HETATM   22  O   UNL     2      -6.874   9.617  71.277  1.00  0.00    -0.311 OA 
ENDBRANCH  14  17
ENDBRANCH  11  14
ENDBRANCH   8  11
ENDBRANCH   3   8
BRANCH   7  23
HETATM   23  C   UNL     3     -11.993  13.068  64.220  1.00  0.00    -0.402 C  
HETATM   24  O   UNL     3     -13.186  12.717  64.951  1.00  0.00    -0.808 OA 
HETATM   25  H   UNL     3     -13.594  13.520  65.256  1.00  0.00     0.000 HD 
BRANCH  23  26
HETATM   26  C   UNL     3     -11.173  13.937  65.194  1.00  0.00    -0.326 C  
HETATM   27  O   UNL     3     -11.202  15.316  64.819  1.00  0.00    -0.458 OA 
HETATM   28  H   UNL     3     -10.696  15.852  65.420  1.00  0.00     0.000 HD 
BRANCH  26  29
HETATM   29  C   UNL     3     -11.466  13.828  66.706  1.00  0.00    -0.348 C  
HETATM   30  O   UNL     3     -12.767  14.328  67.052  1.00  0.00    -0.483 OA 
HETATM   31  H   UNL     3     -12.947  14.261  67.983  1.00  0.00     0.000 HD 
BRANCH  29  32
HETATM   32  C   UNL     3     -10.455  14.463  67.655  1.00  0.00    -0.245 C  
HETATM   33  C   UNL     3     -10.879  15.836  68.205  1.00  0.00    -0.305 C  
HETATM   34  O   UNL     3      -9.169  14.665  66.923  1.00  0.00    -0.225 OA 
HETATM   35  O   UNL     3     -10.409  16.814  67.488  1.00  0.00    -0.286 OA 
HETATM   36  O   UNL     3     -11.253  15.880  69.394  1.00  0.00    -0.287 OA 
HETATM   37  H   UNL     3      -8.539  15.061  67.513  1.00  0.00     0.000 HD 
ENDBRANCH  29  32
ENDBRANCH  26  29
ENDBRANCH  23  26
ENDBRANCH   7  23
TORSDOF 8
ENDMDL
