MODEL       53
REMARK 921   NORMALIZED FREE ENERGY PREDICTED BY IDOCK:   -5.70 KCAL/MOL
REMARK 922        TOTAL FREE ENERGY PREDICTED BY IDOCK:  -12.21 KCAL/MOL
REMARK 923 INTER-LIGAND FREE ENERGY PREDICTED BY IDOCK:  -11.10 KCAL/MOL
REMARK 924 INTRA-LIGAND FREE ENERGY PREDICTED BY IDOCK:   -1.12 KCAL/MOL
REMARK 927      BINDING AFFINITY PREDICTED BY RF-SCORE:    0.00 PKD
ROOT
HETATM    1  C   UNL     1     -12.863  12.358  70.511  1.00  0.00     0.162 C  
HETATM    2  C   UNL     1     -13.023  12.388  72.029  1.00  0.00    -0.376 C  
ENDROOT
BRANCH   1   3
HETATM    3  C   UNL     1     -12.741  10.955  69.933  1.00  0.00    -0.045 C  
BRANCH   3   4
HETATM    4  N   UNL     1     -12.649   9.883  70.887  1.00  0.00    -0.316 NA 
HETATM    5  C   UNL     1     -11.460   9.348  71.278  1.00  0.00    -0.363 A  
HETATM    6  N   UNL     1      -9.466   8.008  72.413  1.00  0.00    -0.191 NA 
HETATM    7  C   UNL     1     -13.630   9.339  71.668  1.00  0.00    -0.381 A  
HETATM    8  N   UNL     1     -10.897   6.838  73.881  1.00  0.00    -0.474 NA 
HETATM    9  N   UNL     1     -10.239   9.635  70.799  1.00  0.00    -0.290 NA 
HETATM   10  C   UNL     1     -10.717   7.774  72.869  1.00  0.00    -0.385 A  
HETATM   11  N   UNL     1     -13.148   8.449  72.506  1.00  0.00    -0.230 NA 
HETATM   12  C   UNL     1      -9.298   8.919  71.430  1.00  0.00    -0.268 A  
HETATM   13  C   UNL     1     -11.787   8.464  72.286  1.00  0.00    -0.389 A  
HETATM   14  H1  UNL     1     -10.118   6.336  74.305  1.00  0.00     0.000 HD 
HETATM   15  H2  UNL     1     -11.564   6.145  73.545  1.00  0.00     0.000 HD 
ENDBRANCH   3   4
ENDBRANCH   1   3
BRANCH   1  16
HETATM   16  O   UNL     1     -11.774  13.235  70.149  1.00  0.00    -0.272 OA 
BRANCH  16  17
HETATM   17  C   UNL     1     -12.027  14.656  70.281  1.00  0.00    -0.308 C  
HETATM   18  O   UNL     1      -9.905  15.726  69.987  1.00  0.00    -0.237 OA 
HETATM   19  O   UNL     1     -10.974  14.395  68.002  1.00  0.00    -0.248 OA 
HETATM   20  P   UNL     1     -11.114  15.657  69.052  1.00  0.00    -0.331 P  
HETATM   21  O   UNL     1     -10.251  16.604  67.889  1.00  0.00    -0.264 OA 
BRANCH  19  22
HETATM   22  C   UNL     1     -11.929  14.225  66.977  1.00  0.00    -0.433 C  
BRANCH  22  23
HETATM   23  O   UNL     1     -12.456  12.893  66.952  1.00  0.00    -0.308 OA 
BRANCH  23  24
HETATM   24  C   UNL     1     -11.604  11.970  66.439  1.00  0.00    -0.313 C  
HETATM   25  O   UNL     1     -11.416  10.846  66.886  1.00  0.00    -0.342 OA 
BRANCH  24  26
HETATM   26  O   UNL     1     -10.972  12.498  65.358  1.00  0.00    -0.280 OA 
BRANCH  26  27
HETATM   27  C   UNL     1     -11.337  11.918  64.086  1.00  0.00    -0.380 C  
HETATM   28  C   UNL     1     -12.359  12.822  63.404  1.00  0.00    -0.531 C  
HETATM   29  C   UNL     1     -10.090  11.778  63.219  1.00  0.00    -0.448 C  
ENDBRANCH  26  27
ENDBRANCH  24  26
ENDBRANCH  23  24
ENDBRANCH  22  23
ENDBRANCH  19  22
BRANCH  21  30
HETATM   30  C   UNL     1     -10.774  17.908  67.752  1.00  0.00    -0.326 C  
BRANCH  30  31
HETATM   31  O   UNL     1      -9.742  18.872  67.567  1.00  0.00    -0.301 OA 
BRANCH  31  32
HETATM   32  C   UNL     1      -9.552  19.238  66.279  1.00  0.00    -0.362 C  
HETATM   33  O   UNL     1     -10.373  19.805  65.568  1.00  0.00    -0.403 OA 
BRANCH  32  34
HETATM   34  O   UNL     1      -8.279  18.923  65.934  1.00  0.00    -0.477 OA 
BRANCH  34  35
HETATM   35  C   UNL     1      -7.378  20.030  65.732  1.00  0.00    -0.304 C  
HETATM   36  C   UNL     1      -6.179  19.507  64.947  1.00  0.00    -0.319 C  
HETATM   37  C   UNL     1      -6.918  20.595  67.072  1.00  0.00    -0.365 C  
ENDBRANCH  34  35
ENDBRANCH  32  34
ENDBRANCH  31  32
ENDBRANCH  30  31
ENDBRANCH  21  30
ENDBRANCH  16  17
ENDBRANCH   1  16
TORSDOF 14
ENDMDL
