MODEL       22
REMARK 921   NORMALIZED FREE ENERGY PREDICTED BY IDOCK:   -5.69 KCAL/MOL
REMARK 922        TOTAL FREE ENERGY PREDICTED BY IDOCK:   -9.53 KCAL/MOL
REMARK 923 INTER-LIGAND FREE ENERGY PREDICTED BY IDOCK:   -8.27 KCAL/MOL
REMARK 924 INTRA-LIGAND FREE ENERGY PREDICTED BY IDOCK:   -1.27 KCAL/MOL
REMARK 927      BINDING AFFINITY PREDICTED BY RF-SCORE:    0.00 PKD
ROOT
HETATM    1  N   UNL     1     -12.177  11.571  63.234  1.00  0.00    -0.878 NA 
HETATM    2  C   UNL     1     -11.949  12.644  64.029  1.00  0.00    -0.451 C  
HETATM    3  H2  UNL     1     -13.039  11.027  63.209  1.00  0.00     0.000 HD 
HETATM    4  H1  UNL     1     -11.351  11.392  62.663  1.00  0.00     0.000 HD 
HETATM    5  N   UNL     1     -10.827  13.275  63.971  1.00  0.00    -0.540 NA 
HETATM    6  N   UNL     1     -13.047  12.882  64.789  1.00  0.00    -0.796 NA 
HETATM    7  H2  UNL     1     -13.910  12.338  64.765  1.00  0.00     0.000 HD 
HETATM    8  H1  UNL     1     -12.876  13.690  65.387  1.00  0.00     0.000 HD 
HETATM    9  H   UNL     1     -10.098  12.984  63.320  1.00  0.00     0.000 HD 
ENDROOT
BRANCH   5  10
HETATM   10  C   UNL     1     -10.636  14.337  64.796  1.00  0.00    -0.412 A  
HETATM   11  N   UNL     1      -9.905  14.406  65.899  1.00  0.00    -0.316 NA 
HETATM   12  C   UNL     1      -9.954  15.683  66.450  1.00  0.00    -0.281 A  
HETATM   13  S   UNL     1     -11.413  15.826  64.376  1.00  0.00    -0.120 SA 
HETATM   14  C   UNL     1     -10.752  16.574  65.760  1.00  0.00    -0.225 A  
BRANCH  12  15
HETATM   15  C   UNL     1      -9.177  15.965  67.698  1.00  0.00    -0.208 C  
BRANCH  15  16
HETATM   16  S   UNL     1     -10.103  17.103  68.788  1.00  0.00    -0.342 SA 
BRANCH  16  17
HETATM   17  C   UNL     1     -10.665  15.944  70.084  1.00  0.00    -0.332 C  
BRANCH  17  18
HETATM   18  C   UNL     1     -12.008  15.276  69.812  1.00  0.00    -0.374 C  
BRANCH  18  19
HETATM   19  C   UNL     1     -11.873  13.953  69.059  1.00  0.00    -0.358 C  
HETATM   20  H2  UNL     1     -12.985  14.682  67.434  1.00  0.00     0.000 HD 
HETATM   21  N   UNL     1     -12.475  13.889  67.825  1.00  0.00    -0.377 NA 
HETATM   22  H1  UNL     1     -12.386  13.006  67.323  1.00  0.00     0.000 HD 
BRANCH  19  23
HETATM   23  N   UNL     1     -11.194  13.033  69.661  1.00  0.00    -0.477 N  
HETATM   24  H   UNL     1     -10.299  13.268  70.089  1.00  0.00     0.000 HD 
BRANCH  23  25
HETATM   25  S   UNL     1     -11.742  11.520  69.744  1.00  0.00    -0.366 S  
HETATM   26  O   UNL     1     -12.223  11.109  68.446  1.00  0.00    -0.610 OA 
HETATM   27  O   UNL     1     -12.557  11.380  70.928  1.00  0.00    -0.367 OA 
HETATM   28  N   UNL     1     -10.378  10.591  70.025  1.00  0.00    -0.439 N  
HETATM   29  H1  UNL     1     -10.725   9.634  70.078  1.00  0.00     0.000 HD 
HETATM   30  H2  UNL     1      -9.414  10.911  70.122  1.00  0.00     0.000 HD 
ENDBRANCH  23  25
ENDBRANCH  19  23
ENDBRANCH  18  19
ENDBRANCH  17  18
ENDBRANCH  16  17
ENDBRANCH  15  16
ENDBRANCH  12  15
ENDBRANCH   5  10
TORSDOF 8
ENDMDL
