MODEL      122
REMARK 921   NORMALIZED FREE ENERGY PREDICTED BY IDOCK:   -5.66 KCAL/MOL
REMARK 922        TOTAL FREE ENERGY PREDICTED BY IDOCK:  -11.71 KCAL/MOL
REMARK 923 INTER-LIGAND FREE ENERGY PREDICTED BY IDOCK:  -10.70 KCAL/MOL
REMARK 924 INTRA-LIGAND FREE ENERGY PREDICTED BY IDOCK:   -1.01 KCAL/MOL
REMARK 927      BINDING AFFINITY PREDICTED BY RF-SCORE:    0.00 PKD
ROOT
HETATM    1  F   UNL     1     -12.735   6.869  70.703  1.00  0.00    -0.402 F  
HETATM    2  C   UNL     1     -12.133   6.925  71.923  1.00  0.00    -0.333 C  
HETATM    3  C   UNL     1     -10.776   7.585  71.908  1.00  0.00    -0.253 A  
HETATM    4  F   UNL     1     -13.014   7.555  72.748  1.00  0.00     0.114 F  
HETATM    5  F   UNL     1     -12.071   5.636  72.364  1.00  0.00    -0.343 F  
HETATM    6  C   UNL     1     -10.212   8.080  70.713  1.00  0.00    -0.209 A  
HETATM    7  C   UNL     1      -8.912   8.595  70.691  1.00  0.00    -0.171 A  
HETATM    8  C   UNL     1     -10.043   7.662  73.101  1.00  0.00    -0.382 A  
HETATM    9  C   UNL     1      -8.218   8.672  71.912  1.00  0.00    -0.167 A  
HETATM   10  C   UNL     1      -8.770   8.215  73.106  1.00  0.00    -0.307 A  
ENDROOT
BRANCH   7  11
HETATM   11  N   UNL     1      -8.238   8.990  69.532  1.00  0.00    -0.110 NA 
HETATM   12  C   UNL     1      -6.744  10.415  68.161  1.00  0.00    -0.061 C  
HETATM   13  C   UNL     1      -7.623  10.330  69.443  1.00  0.00    -0.137 C  
HETATM   14  N   UNL     1      -7.437  10.082  66.885  1.00  0.00    -0.094 NA 
HETATM   15  C   UNL     1      -8.964   8.598  68.301  1.00  0.00    -0.142 C  
HETATM   16  C   UNL     1      -8.037   8.731  67.070  1.00  0.00    -0.099 C  
BRANCH  14  17
HETATM   17  C   UNL     1      -8.482  11.064  66.511  1.00  0.00    -0.161 C  
BRANCH  17  18
HETATM   18  C   UNL     1      -9.700  10.487  65.753  1.00  0.00    -0.223 C  
BRANCH  18  19
HETATM   19  O   UNL     1     -10.850  10.291  66.631  1.00  0.00    -0.159 OA 
BRANCH  19  20
HETATM   20  C   UNL     1     -11.620  11.402  66.740  1.00  0.00     0.046 C  
HETATM   21  O   UNL     1     -12.132  11.956  65.766  1.00  0.00    -0.451 OA 
BRANCH  20  22
HETATM   22  C   UNL     1     -11.862  11.922  68.129  1.00  0.00    -0.338 A  
HETATM   23  C   UNL     1     -11.643  10.932  69.119  1.00  0.00    -0.389 A  
HETATM   24  C   UNL     1     -11.833  11.187  70.471  1.00  0.00    -0.448 A  
HETATM   25  C   UNL     1     -12.236  12.453  70.868  1.00  0.00    -0.290 A  
HETATM   26  C   UNL     1     -12.447  13.452  69.912  1.00  0.00    -0.155 A  
HETATM   27  C   UNL     1     -12.277  13.221  68.529  1.00  0.00    -0.068 A  
BRANCH  27  28
HETATM   28  N   UNL     1     -12.598  14.248  67.616  1.00  0.00    -0.375 NA 
HETATM   29  H   UNL     1     -13.568  14.559  67.687  1.00  0.00     0.000 HD 
BRANCH  28  30
HETATM   30  C   UNL     1     -11.857  14.945  66.618  1.00  0.00    -0.156 A  
HETATM   31  C   UNL     1     -11.090  16.075  66.991  1.00  0.00    -0.071 A  
HETATM   32  C   UNL     1     -10.787  16.342  68.336  1.00  0.00    -0.342 A  
HETATM   33  C   UNL     1     -10.152  17.521  68.711  1.00  0.00    -0.363 A  
HETATM   34  C   UNL     1      -9.832  18.479  67.751  1.00  0.00    -0.336 A  
HETATM   35  C   UNL     1     -10.024  18.154  66.392  1.00  0.00    -0.376 A  
HETATM   36  C   UNL     1      -9.341  19.836  68.200  1.00  0.00    -0.340 C  
HETATM   37  C   UNL     1     -10.607  16.949  65.991  1.00  0.00    -0.218 A  
HETATM   38  F   UNL     1      -9.293  19.957  69.561  1.00  0.00    -0.284 F  
HETATM   39  F   UNL     1      -8.091  20.140  67.761  1.00  0.00    -0.322 F  
HETATM   40  F   UNL     1     -10.150  20.848  67.780  1.00  0.00    -0.521 F  
HETATM   41  N   UNL     1     -10.733  16.656  64.688  1.00  0.00    -0.707 NA 
HETATM   42  C   UNL     1     -11.346  15.492  64.352  1.00  0.00    -0.252 A  
HETATM   43  C   UNL     1     -11.937  14.626  65.268  1.00  0.00    -0.302 A  
ENDBRANCH  28  30
ENDBRANCH  27  28
ENDBRANCH  20  22
ENDBRANCH  19  20
ENDBRANCH  18  19
ENDBRANCH  17  18
ENDBRANCH  14  17
ENDBRANCH   7  11
TORSDOF 8
ENDMDL
