MODEL      128
REMARK 921   NORMALIZED FREE ENERGY PREDICTED BY IDOCK:   -5.29 KCAL/MOL
REMARK 922        TOTAL FREE ENERGY PREDICTED BY IDOCK:  -11.44 KCAL/MOL
REMARK 923 INTER-LIGAND FREE ENERGY PREDICTED BY IDOCK:   -9.55 KCAL/MOL
REMARK 924 INTRA-LIGAND FREE ENERGY PREDICTED BY IDOCK:   -1.88 KCAL/MOL
REMARK 927      BINDING AFFINITY PREDICTED BY RF-SCORE:    0.00 PKD
ROOT
HETATM    1  C   UNL     1     -11.438   5.009  73.083  1.00  0.00    -0.282 C  
HETATM    2  S   UNL     1      -9.887   4.176  73.299  1.00  0.00    -0.133 S  
HETATM    3  O   UNL     1      -9.567   3.502  72.057  1.00  0.00    -0.123 OA 
HETATM    4  O   UNL     1      -9.945   3.456  74.555  1.00  0.00    -0.123 OA 
ENDROOT
BRANCH   2   5
HETATM    5  C   UNL     1      -8.761   5.540  73.497  1.00  0.00    -0.117 C  
BRANCH   5   6
HETATM    6  C   UNL     1      -9.027   6.633  72.472  1.00  0.00    -0.131 C  
BRANCH   6   7
HETATM    7  N   UNL     1      -8.526   6.309  71.132  1.00  0.00    -0.124 NA 
HETATM    8  H   UNL     1      -9.152   6.673  70.414  1.00  0.00     0.000 HD 
BRANCH   7   9
HETATM    9  C   UNL     1      -7.153   6.758  70.900  1.00  0.00    -0.068 C  
BRANCH   9  10
HETATM   10  C   UNL     1      -7.147   8.106  70.273  1.00  0.00    -0.047 A  
HETATM   11  C   UNL     1      -6.845   9.365  70.743  1.00  0.00    -0.109 A  
HETATM   12  C   UNL     1      -7.031  10.250  69.655  1.00  0.00    -0.114 A  
HETATM   13  C   UNL     1      -7.413   9.479  68.575  1.00  0.00    -0.080 A  
HETATM   14  O   UNL     1      -7.476   8.168  68.955  1.00  0.00    -0.084 OA 
BRANCH  13  15
HETATM   15  C   UNL     1      -7.748   9.754  67.184  1.00  0.00    -0.095 A  
HETATM   16  C   UNL     1      -8.951  10.385  66.837  1.00  0.00    -0.151 A  
HETATM   17  C   UNL     1      -9.284  10.646  65.481  1.00  0.00    -0.228 A  
HETATM   18  C   UNL     1      -8.392  10.264  64.468  1.00  0.00    -0.168 A  
HETATM   19  C   UNL     1      -7.210   9.642  64.817  1.00  0.00    -0.119 A  
HETATM   20  N   UNL     1      -8.623  10.450  63.169  1.00  0.00    -0.178 NA 
HETATM   21  C   UNL     1      -9.786  11.014  62.853  1.00  0.00    -0.323 A  
HETATM   22  C   UNL     1      -6.883   9.388  66.151  1.00  0.00    -0.085 A  
HETATM   23  N   UNL     1     -10.716  11.409  63.719  1.00  0.00    -0.385 NA 
HETATM   24  C   UNL     1     -10.478  11.244  65.029  1.00  0.00    -0.298 A  
BRANCH  24  25
HETATM   25  N   UNL     1     -11.485  11.598  65.974  1.00  0.00    -0.328 NA 
HETATM   26  H   UNL     1     -12.223  10.908  66.114  1.00  0.00     0.000 HD 
BRANCH  25  27
HETATM   27  C   UNL     1     -11.594  12.780  66.743  1.00  0.00    -0.370 A  
HETATM   28  C   UNL     1     -11.823  12.777  68.119  1.00  0.00    -0.372 A  
HETATM   29  C   UNL     1     -11.831  13.947  68.883  1.00  0.00    -0.358 A  
HETATM   30  C   UNL     1     -11.570  15.179  68.272  1.00  0.00    -0.339 A  
HETATM   31 CL   UNL     1     -12.226  13.693  70.551  1.00  0.00    -0.428 Cl 
HETATM   32  C   UNL     1     -11.407  15.204  66.879  1.00  0.00    -0.264 A  
HETATM   33  C   UNL     1     -11.424  14.021  66.123  1.00  0.00    -0.350 A  
BRANCH  30  34
HETATM   34  O   UNL     1     -11.457  16.417  68.856  1.00  0.00    -0.311 OA 
BRANCH  34  35
HETATM   35  C   UNL     1     -10.130  16.869  69.108  1.00  0.00    -0.269 C  
BRANCH  35  36
HETATM   36  C   UNL     1      -9.692  17.895  68.096  1.00  0.00    -0.320 A  
HETATM   37  C   UNL     1      -8.586  17.658  67.275  1.00  0.00    -0.238 A  
HETATM   38  C   UNL     1      -8.129  18.666  66.433  1.00  0.00    -0.281 A  
HETATM   39  C   UNL     1      -8.755  19.907  66.393  1.00  0.00    -0.397 A  
HETATM   40  F   UNL     1      -7.057  18.443  65.663  1.00  0.00    -0.295 F  
HETATM   41  C   UNL     1      -9.858  20.149  67.204  1.00  0.00    -0.586 A  
HETATM   42  C   UNL     1     -10.326  19.150  68.054  1.00  0.00    -0.483 A  
ENDBRANCH  35  36
ENDBRANCH  34  35
ENDBRANCH  30  34
ENDBRANCH  25  27
ENDBRANCH  24  25
ENDBRANCH  13  15
ENDBRANCH   9  10
ENDBRANCH   7   9
ENDBRANCH   6   7
ENDBRANCH   5   6
ENDBRANCH   2   5
TORSDOF 11
ENDMDL
