MODEL      139
REMARK 921   NORMALIZED FREE ENERGY PREDICTED BY IDOCK:   -4.01 KCAL/MOL
REMARK 922        TOTAL FREE ENERGY PREDICTED BY IDOCK:   -6.62 KCAL/MOL
REMARK 923 INTER-LIGAND FREE ENERGY PREDICTED BY IDOCK:   -5.93 KCAL/MOL
REMARK 924 INTRA-LIGAND FREE ENERGY PREDICTED BY IDOCK:   -0.69 KCAL/MOL
REMARK 927      BINDING AFFINITY PREDICTED BY RF-SCORE:    0.00 PKD
ROOT
HETATM    1 NA   UNL     1     -13.765  12.442  71.656  1.00  0.00    -0.377 Na 
HETATM    2  C   UNL     2     -12.775  15.267  73.858  1.00  0.00    -0.662 C  
HETATM    3  C   UNL     2     -12.051  15.900  72.678  1.00  0.00    -0.615 C  
ENDROOT
BRANCH   3   4
HETATM    4  C   UNL     2     -12.299  15.109  71.395  1.00  0.00    -0.411 C  
BRANCH   4   5
HETATM    5  C   UNL     2     -11.798  15.806  70.126  1.00  0.00    -0.369 C  
HETATM    6  C   UNL     2     -10.695  15.068  69.329  1.00  0.00    -0.250 C  
HETATM    7  C   UNL     2     -11.064  13.614  68.955  1.00  0.00    -0.295 C  
HETATM    8  C   UNL     2     -10.295  15.855  68.058  1.00  0.00    -0.262 C  
HETATM    9  C   UNL     2     -12.218  13.464  67.972  1.00  0.00    -0.136 C  
BRANCH   8  10
HETATM   10  C   UNL     2      -9.786  17.276  68.300  1.00  0.00    -0.304 C  
BRANCH  10  11
HETATM   11  C   UNL     2      -8.291  17.541  68.017  1.00  0.00    -0.241 C  
BRANCH  11  12
HETATM   12  C   UNL     2      -7.960  19.044  68.188  1.00  0.00    -0.334 C  
HETATM   13  C   UNL     2      -7.201  19.547  65.787  1.00  0.00    -0.314 C  
HETATM   14  C   UNL     2      -6.844  19.600  67.274  1.00  0.00    -0.226 C  
HETATM   15  C   UNL     2      -6.549  21.059  67.656  1.00  0.00    -0.416 C  
ENDBRANCH  11  12
BRANCH  11  16
HETATM   16  O   UNL     2      -7.503  16.802  68.946  1.00  0.00    -0.220 OA 
HETATM   17  O   UNL     2      -5.861  16.234  67.230  1.00  0.00    -0.170 OA 
HETATM   18  O   UNL     2      -5.579  15.431  69.530  1.00  0.00    -0.099 OA 
HETATM   19  S   UNL     2      -6.487  15.640  68.407  1.00  0.00    -0.120 S  
HETATM   20  O   UNL     2      -7.351  14.509  68.100  1.00  0.00    -0.106 OA 
ENDBRANCH  11  16
ENDBRANCH  10  11
ENDBRANCH   8  10
ENDBRANCH   4   5
ENDBRANCH   3   4
TORSDOF 6
ENDMDL
