MODEL        7
REMARK 921   NORMALIZED FREE ENERGY PREDICTED BY IDOCK:   -4.96 KCAL/MOL
REMARK 922        TOTAL FREE ENERGY PREDICTED BY IDOCK:  -11.69 KCAL/MOL
REMARK 923 INTER-LIGAND FREE ENERGY PREDICTED BY IDOCK:  -10.01 KCAL/MOL
REMARK 924 INTRA-LIGAND FREE ENERGY PREDICTED BY IDOCK:   -1.67 KCAL/MOL
REMARK 927      BINDING AFFINITY PREDICTED BY RF-SCORE:    0.00 PKD
ROOT
HETATM    1  C   UNL     1     -10.169   6.778  70.130  1.00  0.00    -0.215 C  
HETATM    2  C   UNL     1     -11.666   6.532  70.216  1.00  0.00    -0.430 C  
ENDROOT
BRANCH   2   3
HETATM    3  C   UNL     1     -12.215   6.963  71.574  1.00  0.00    -0.415 C  
BRANCH   3   4
HETATM    4  C   UNL     1     -13.729   7.152  71.524  1.00  0.00    -0.413 C  
BRANCH   4   5
HETATM    5  C   UNL     1     -14.113   8.567  71.955  1.00  0.00    -0.519 C  
BRANCH   5   6
HETATM    6  C   UNL     1     -12.870   9.426  72.146  1.00  0.00    -0.480 C  
BRANCH   6   7
HETATM    7  C   UNL     1     -13.150  10.895  71.841  1.00  0.00    -0.537 C  
BRANCH   7   8
HETATM    8  C   UNL     1     -12.171  11.391  70.779  1.00  0.00    -0.475 C  
BRANCH   8   9
HETATM    9  C   UNL     1     -11.198  10.302  70.351  1.00  0.00    -0.407 C  
BRANCH   9  10
HETATM   10  C   UNL     1     -10.973  10.294  68.831  1.00  0.00    -0.279 C  
BRANCH  10  11
HETATM   11  C   UNL     1     -11.519  11.534  68.109  1.00  0.00    -0.385 C  
BRANCH  11  12
HETATM   12  C   UNL     1     -11.221  11.455  66.632  1.00  0.00    -0.231 C  
HETATM   13  O   UNL     1     -10.475  10.642  66.108  1.00  0.00    -0.243 OA 
BRANCH  12  14
HETATM   14  O   UNL     1     -12.048  12.299  65.956  1.00  0.00    -0.623 OA 
BRANCH  14  15
HETATM   15  C   UNL     1     -11.549  12.711  64.678  1.00  0.00    -0.342 C  
BRANCH  15  16
HETATM   16  C   UNL     1     -10.673  13.941  64.940  1.00  0.00    -0.410 C  
BRANCH  16  17
HETATM   17  N   UNL     1     -11.218  14.864  65.922  1.00  0.00    -0.336 N  
HETATM   18  C   UNL     1     -10.485  15.229  67.026  1.00  0.00    -0.292 C  
HETATM   19  H   UNL     1     -12.155  15.244  65.791  1.00  0.00     0.000 HD 
HETATM   20  O   UNL     1      -9.401  14.730  67.312  1.00  0.00    -0.196 OA 
BRANCH  18  21
HETATM   21  C   UNL     1     -11.133  16.239  67.950  1.00  0.00    -0.270 C  
BRANCH  21  22
HETATM   22  N   UNL     1     -10.515  17.563  67.727  1.00  0.00    -0.369 NA 
HETATM   23  C   UNL     1      -9.935  18.219  68.765  1.00  0.00    -0.370 A  
HETATM   24  C   UNL     1      -9.369  19.473  68.580  1.00  0.00    -0.430 A  
HETATM   25  C   UNL     1      -9.382  20.047  67.317  1.00  0.00    -0.496 A  
HETATM   26  C   UNL     1      -9.963  19.358  66.261  1.00  0.00    -0.509 A  
HETATM   27  C   UNL     1     -10.526  18.109  66.490  1.00  0.00    -0.341 A  
ENDBRANCH  21  22
ENDBRANCH  18  21
ENDBRANCH  16  17
ENDBRANCH  15  16
ENDBRANCH  14  15
ENDBRANCH  12  14
ENDBRANCH  11  12
ENDBRANCH  10  11
ENDBRANCH   9  10
ENDBRANCH   8   9
ENDBRANCH   7   8
ENDBRANCH   6   7
ENDBRANCH   5   6
ENDBRANCH   4   5
ENDBRANCH   3   4
ENDBRANCH   2   3
TORSDOF 16
ENDMDL
