MODEL      193
REMARK 921   NORMALIZED FREE ENERGY PREDICTED BY IDOCK:   -4.08 KCAL/MOL
REMARK 922        TOTAL FREE ENERGY PREDICTED BY IDOCK:  -12.33 KCAL/MOL
REMARK 923 INTER-LIGAND FREE ENERGY PREDICTED BY IDOCK:  -10.47 KCAL/MOL
REMARK 924 INTRA-LIGAND FREE ENERGY PREDICTED BY IDOCK:   -1.86 KCAL/MOL
REMARK 927      BINDING AFFINITY PREDICTED BY RF-SCORE:    0.00 PKD
ROOT
HETATM    1  C   UNL     1      -8.836  19.907  66.757  1.00  0.00    -0.422 C  
HETATM    2  C   UNL     1      -9.893  18.834  66.757  1.00  0.00    -0.343 C  
HETATM    3  N   UNL     1      -9.586  17.662  66.116  1.00  0.00    -0.235 N  
HETATM    4  O   UNL     1     -10.986  19.039  67.286  1.00  0.00    -0.459 OA 
HETATM    5  O   UNL     1      -8.307  17.337  65.635  1.00  0.00    -0.475 OA 
ENDROOT
BRANCH   3   6
HETATM    6  C   UNL     1     -10.507  16.538  66.015  1.00  0.00    -0.310 C  
BRANCH   6   7
HETATM    7  C   UNL     1     -11.083  16.381  64.607  1.00  0.00    -0.202 C  
BRANCH   7   8
HETATM    8  C   UNL     1     -12.371  15.556  64.646  1.00  0.00     0.107 C  
BRANCH   8   9
HETATM    9  C   UNL     1     -12.335  14.484  65.736  1.00  0.00    -0.249 C  
BRANCH   9  10
HETATM   10  C   UNL     1     -12.738  13.106  65.208  1.00  0.00    -0.394 C  
BRANCH  10  11
HETATM   11  N   UNL     1     -11.659  12.136  65.308  1.00  0.00    -0.342 N  
HETATM   12  C   UNL     1     -11.400  11.477  66.490  1.00  0.00    -0.193 C  
HETATM   13  H   UNL     1     -11.084  11.940  64.489  1.00  0.00     0.000 HD 
HETATM   14  O   UNL     1     -12.064  11.620  67.513  1.00  0.00    -0.611 OA 
BRANCH  12  15
HETATM   15  C   UNL     1     -10.216  10.538  66.403  1.00  0.00    -0.296 C  
BRANCH  15  16
HETATM   16  C   UNL     1      -8.927  11.323  66.175  1.00  0.00    -0.210 C  
BRANCH  16  17
HETATM   17  C   UNL     1      -8.985  12.716  66.772  1.00  0.00    -0.197 C  
HETATM   18  O   UNL     1      -9.126  13.708  66.059  1.00  0.00     0.010 OA 
HETATM   19  N   UNL     1      -8.839  12.797  68.133  1.00  0.00    -0.192 N  
HETATM   20  O   UNL     1      -8.775  11.690  68.997  1.00  0.00     0.018 OA 
BRANCH  19  21
HETATM   21  C   UNL     1      -8.796  14.054  68.865  1.00  0.00     0.062 C  
BRANCH  21  22
HETATM   22  C   UNL     1     -10.163  14.741  68.929  1.00  0.00    -0.237 C  
BRANCH  22  23
HETATM   23  C   UNL     1     -10.439  15.402  70.293  1.00  0.00    -0.264 C  
BRANCH  23  24
HETATM   24  C   UNL     1     -11.598  14.756  71.054  1.00  0.00    -0.313 C  
BRANCH  24  25
HETATM   25  C   UNL     1     -12.405  13.820  70.157  1.00  0.00    -0.323 C  
BRANCH  25  26
HETATM   26  N   UNL     1     -12.245  12.434  70.549  1.00  0.00    -0.391 N  
HETATM   27  H   UNL     1     -11.543  11.864  70.078  1.00  0.00     0.000 HD 
HETATM   28  C   UNL     1     -13.013  11.866  71.537  1.00  0.00    -0.323 C  
HETATM   29  O   UNL     1     -13.867  12.481  72.170  1.00  0.00    -0.343 OA 
BRANCH  28  30
HETATM   30  C   UNL     1     -12.734  10.406  71.789  1.00  0.00    -0.525 C  
BRANCH  30  31
HETATM   31  C   UNL     1     -11.789   9.877  70.722  1.00  0.00    -0.415 C  
BRANCH  31  32
HETATM   32  C   UNL     1     -10.912   8.773  71.275  1.00  0.00    -0.275 C  
HETATM   33  N   UNL     1     -11.313   7.471  71.101  1.00  0.00    -0.262 N  
HETATM   34  O   UNL     1      -9.831   9.062  71.791  1.00  0.00    -0.310 OA 
HETATM   35  O   UNL     1     -12.678   7.181  70.915  1.00  0.00    -0.314 OA 
BRANCH  33  36
HETATM   36  C   UNL     1     -10.573   6.339  71.662  1.00  0.00    -0.227 C  
BRANCH  36  37
HETATM   37  C   UNL     1     -11.255   5.760  72.903  1.00  0.00    -0.319 C  
BRANCH  37  38
HETATM   38  C   UNL     1     -10.344   4.792  73.664  1.00  0.00    -0.254 C  
BRANCH  38  39
HETATM   39  C   UNL     1     -11.005   3.424  73.854  1.00  0.00    -0.275 C  
BRANCH  39  40
HETATM   40  C   UNL     1     -10.047   2.264  73.578  1.00  0.00    -0.102 C  
HETATM   41  N   UNL     1      -8.652   2.685  73.655  1.00  0.00    -0.071 NA 
HETATM   42  H2  UNL     1      -8.448   3.130  74.550  1.00  0.00     0.000 HD 
HETATM   43  H1  UNL     1      -8.013   1.911  73.471  1.00  0.00     0.000 HD 
ENDBRANCH  39  40
ENDBRANCH  38  39
ENDBRANCH  37  38
ENDBRANCH  36  37
ENDBRANCH  33  36
ENDBRANCH  31  32
ENDBRANCH  30  31
ENDBRANCH  28  30
ENDBRANCH  25  26
ENDBRANCH  24  25
ENDBRANCH  23  24
ENDBRANCH  22  23
ENDBRANCH  21  22
ENDBRANCH  19  21
ENDBRANCH  16  17
ENDBRANCH  15  16
ENDBRANCH  12  15
ENDBRANCH  10  11
ENDBRANCH   9  10
ENDBRANCH   8   9
ENDBRANCH   7   8
ENDBRANCH   6   7
ENDBRANCH   3   6
TORSDOF 23
ENDMDL
