MODEL       14
REMARK 921   NORMALIZED FREE ENERGY PREDICTED BY IDOCK:   -6.85 KCAL/MOL
REMARK 922        TOTAL FREE ENERGY PREDICTED BY IDOCK:  -15.16 KCAL/MOL
REMARK 923 INTER-LIGAND FREE ENERGY PREDICTED BY IDOCK:  -13.14 KCAL/MOL
REMARK 924 INTRA-LIGAND FREE ENERGY PREDICTED BY IDOCK:   -2.02 KCAL/MOL
REMARK 927      BINDING AFFINITY PREDICTED BY RF-SCORE:    0.00 PKD
ROOT
HETATM    1  C   UNL     1      -6.883   1.805  72.337  1.00  0.00    -0.019 C  
HETATM    2  C   UNL     1      -7.500   3.127  71.977  1.00  0.00    -0.052 A  
HETATM    3  C   UNL     1      -7.455   3.556  70.641  1.00  0.00    -0.040 A  
HETATM    4  C   UNL     1      -8.137   4.702  70.217  1.00  0.00    -0.067 A  
HETATM    5  C   UNL     1      -8.970   5.390  71.121  1.00  0.00    -0.141 A  
HETATM    6  C   UNL     1      -8.903   5.037  72.479  1.00  0.00    -0.126 A  
HETATM    7  N   UNL     1      -9.804   6.423  70.640  1.00  0.00    -0.183 NA 
HETATM    8  H   UNL     1      -9.406   7.706  65.673  1.00  0.00     0.000 HD 
HETATM    9  C   UNL     1      -9.654   6.833  69.323  1.00  0.00    -0.144 A  
HETATM   10  C   UNL     1      -8.180   3.916  72.921  1.00  0.00    -0.091 A  
HETATM   11  C   UNL     1      -8.136   3.603  74.391  1.00  0.00    -0.081 C  
HETATM   12  O   UNL     1      -7.248   6.637  66.559  1.00  0.00    -0.070 OA 
HETATM   13  N   UNL     1     -10.423   7.724  68.761  1.00  0.00    -0.262 N  
HETATM   14  H   UNL     1     -11.200   8.105  69.301  1.00  0.00     0.000 HD 
HETATM   15  C   UNL     1      -8.574   6.198  68.493  1.00  0.00    -0.113 A  
HETATM   16  C   UNL     1     -10.240   8.168  67.492  1.00  0.00    -0.243 C  
HETATM   17  C   UNL     1      -8.311   6.774  67.140  1.00  0.00    -0.121 C  
HETATM   18  N   UNL     1      -7.924   5.143  68.893  1.00  0.00    -0.085 NA 
HETATM   19  N   UNL     1      -9.326   7.562  66.680  1.00  0.00    -0.167 N  
HETATM   20  O   UNL     1     -10.844   9.145  67.057  1.00  0.00    -0.182 OA 
ENDROOT
BRANCH   7  21
HETATM   21  C   UNL     1     -11.129   6.572  71.273  1.00  0.00    -0.273 C  
BRANCH  21  22
HETATM   22  C   UNL     1     -11.229   7.873  72.096  1.00  0.00    -0.307 C  
HETATM   23  O   UNL     1     -11.752   7.546  73.385  1.00  0.00    -0.574 OA 
HETATM   24  H   UNL     1     -11.814   8.347  73.893  1.00  0.00     0.000 HD 
BRANCH  22  25
HETATM   25  C   UNL     1     -12.110   8.878  71.334  1.00  0.00    -0.322 C  
HETATM   26  H   UNL     1     -11.771  10.381  70.152  1.00  0.00     0.000 HD 
HETATM   27  O   UNL     1     -11.227   9.760  70.622  1.00  0.00    -0.280 OA 
BRANCH  25  28
HETATM   28  C   UNL     1     -13.068   9.710  72.221  1.00  0.00    -0.382 C  
HETATM   29  H   UNL     1     -14.777   9.438  73.182  1.00  0.00     0.000 HD 
HETATM   30  O   UNL     1     -14.189   8.927  72.638  1.00  0.00    -0.563 OA 
BRANCH  28  31
HETATM   31  C   UNL     1     -13.568  10.972  71.491  1.00  0.00     0.206 C  
BRANCH  31  32
HETATM   32  O   UNL     1     -13.830  12.009  72.411  1.00  0.00    -0.138 OA 
BRANCH  32  33
HETATM   33  P   UNL     1     -13.325  13.491  72.067  1.00  0.00    -0.472 P  
HETATM   34  O   UNL     1     -12.289  13.781  73.245  1.00  0.00     0.115 OA 
HETATM   35  O   UNL     1     -14.398  14.545  72.066  1.00  0.00    -0.491 OA 
BRANCH  33  36
HETATM   36  O   UNL     1     -12.602  13.384  70.647  1.00  0.00    -0.311 OA 
BRANCH  36  37
HETATM   37  P   UNL     1     -11.401  14.507  70.109  1.00  0.00    -0.086 P  
HETATM   38  O   UNL     1     -11.875  14.306  68.561  1.00  0.00    -0.329 OA 
HETATM   39  O   UNL     1     -12.143  15.663  70.769  1.00  0.00    -0.352 OA 
BRANCH  37  40
HETATM   40  O   UNL     1     -10.201  15.631  69.572  1.00  0.00    -0.239 OA 
BRANCH  40  41
HETATM   41  C   UNL     1     -10.683  16.961  69.382  1.00  0.00    -0.258 C  
BRANCH  41  42
HETATM   42  C   UNL     1      -9.986  17.614  68.182  1.00  0.00    -0.330 C  
HETATM   43  O   UNL     1      -9.725  16.598  67.206  1.00  0.00    -0.238 OA 
HETATM   44  C   UNL     1      -9.918  17.161  65.902  1.00  0.00    -0.194 C  
HETATM   45  C   UNL     1     -10.613  18.516  66.015  1.00  0.00    -0.331 C  
HETATM   46  H   UNL     1     -10.901  20.685  67.543  1.00  0.00     0.000 HD 
HETATM   47  C   UNL     1     -10.812  18.711  67.515  1.00  0.00    -0.317 C  
HETATM   48  O   UNL     1     -10.388  20.001  67.959  1.00  0.00    -0.410 OA 
HETATM   49  O   UNL     1      -9.818  19.586  65.471  1.00  0.00    -0.303 OA 
HETATM   50  H   UNL     1     -10.250  20.428  65.541  1.00  0.00     0.000 HD 
BRANCH  44  51
HETATM   51  N   UNL     1     -10.625  16.199  65.080  1.00  0.00    -0.609 NA 
HETATM   52  C   UNL     1     -11.691  16.430  64.254  1.00  0.00     0.271 A  
HETATM   53  C   UNL     1     -11.699  14.342  64.722  1.00  0.00    -0.416 A  
HETATM   54  N   UNL     1     -12.384  15.329  64.038  1.00  0.00    -0.643 NA 
HETATM   55  C   UNL     1     -10.531  14.848  65.267  1.00  0.00    -0.404 A  
HETATM   56  N   UNL     1      -9.586  14.187  65.957  1.00  0.00    -0.264 NA 
HETATM   57  C   UNL     1      -9.933  12.891  66.100  1.00  0.00    -0.272 A  
HETATM   58  N   UNL     1     -11.065  12.276  65.692  1.00  0.00    -0.305 NA 
HETATM   59  C   UNL     1     -11.986  13.001  65.014  1.00  0.00    -0.397 A  
HETATM   60  N   UNL     1     -13.192  12.397  64.698  1.00  0.00    -0.731 NA 
HETATM   61  H2  UNL     1     -13.346  12.531  63.699  1.00  0.00     0.000 HD 
HETATM   62  H1  UNL     1     -13.401  11.421  64.911  1.00  0.00     0.000 HD 
ENDBRANCH  44  51
ENDBRANCH  41  42
ENDBRANCH  40  41
ENDBRANCH  37  40
ENDBRANCH  36  37
ENDBRANCH  33  36
ENDBRANCH  32  33
ENDBRANCH  31  32
ENDBRANCH  28  31
ENDBRANCH  25  28
ENDBRANCH  22  25
ENDBRANCH  21  22
ENDBRANCH   7  21
TORSDOF 13
ENDMDL
