MODEL      186
REMARK 921   NORMALIZED FREE ENERGY PREDICTED BY IDOCK:   -3.42 KCAL/MOL
REMARK 922        TOTAL FREE ENERGY PREDICTED BY IDOCK:   -9.65 KCAL/MOL
REMARK 923 INTER-LIGAND FREE ENERGY PREDICTED BY IDOCK:   -8.62 KCAL/MOL
REMARK 924 INTRA-LIGAND FREE ENERGY PREDICTED BY IDOCK:   -1.03 KCAL/MOL
REMARK 927      BINDING AFFINITY PREDICTED BY RF-SCORE:    0.00 PKD
ROOT
HETATM    1  C   UNL     1      -7.148  20.939  67.202  1.00  0.00    -0.413 C  
HETATM    2  C   UNL     1      -8.127  19.794  67.400  1.00  0.00    -0.332 C  
ENDROOT
BRANCH   2   3
HETATM    3  C   UNL     1      -9.460  20.089  66.718  1.00  0.00    -0.530 C  
BRANCH   3   4
HETATM    4  C   UNL     1     -10.576  19.230  67.306  1.00  0.00    -0.590 C  
BRANCH   4   5
HETATM    5  C   UNL     1     -10.183  17.759  67.291  1.00  0.00    -0.350 C  
BRANCH   5   6
HETATM    6  C   UNL     1     -10.464  17.109  68.639  1.00  0.00    -0.366 C  
BRANCH   6   7
HETATM    7  C   UNL     1     -11.392  15.914  68.467  1.00  0.00    -0.374 C  
BRANCH   7   8
HETATM    8  C   UNL     1     -11.122  15.217  67.142  1.00  0.00    -0.335 C  
BRANCH   8   9
HETATM    9  C   UNL     1     -12.137  14.103  66.915  1.00  0.00    -0.466 C  
BRANCH   9  10
HETATM   10  C   UNL     1     -12.256  13.797  65.430  1.00  0.00    -0.465 C  
BRANCH  10  11
HETATM   11  C   UNL     1     -12.020  12.321  65.163  1.00  0.00    -0.395 C  
BRANCH  11  12
HETATM   12  C   UNL     1     -10.601  12.107  64.664  1.00  0.00    -0.340 C  
BRANCH  12  13
HETATM   13  C   UNL     1      -9.782  11.277  65.645  1.00  0.00    -0.267 C  
BRANCH  13  14
HETATM   14  C   UNL     1      -9.162  12.131  66.751  1.00  0.00    -0.207 C  
BRANCH  14  15
HETATM   15  C   UNL     1      -9.163  11.485  68.139  1.00  0.00    -0.181 C  
BRANCH  15  16
HETATM   16  C   UNL     1     -10.512  10.864  68.511  1.00  0.00    -0.188 C  
BRANCH  16  17
HETATM   17  N   UNL     1     -10.392   9.499  69.214  1.00  0.00    -0.200 N  
HETATM   18  C   UNL     1     -10.410   8.366  68.196  1.00  0.00    -0.204 C  
HETATM   19  C   UNL     1      -9.099   9.430  70.025  1.00  0.00    -0.220 C  
BRANCH  17  20
HETATM   20  C   UNL     1     -11.618   9.371  70.185  1.00  0.00    -0.078 C  
BRANCH  20  21
HETATM   21  C   UNL     1     -11.511   8.240  71.178  1.00  0.00    -0.307 A  
HETATM   22  C   UNL     1     -10.926   8.451  72.437  1.00  0.00    -0.425 A  
HETATM   23  C   UNL     1     -10.580   7.365  73.241  1.00  0.00    -0.442 A  
HETATM   24  C   UNL     1     -10.846   6.067  72.811  1.00  0.00    -0.284 A  
HETATM   25  C   UNL     1     -11.510   5.853  71.607  1.00  0.00    -0.238 A  
HETATM   26  C   UNL     1     -11.866   6.935  70.805  1.00  0.00    -0.427 A  
ENDBRANCH  20  21
ENDBRANCH  17  20
ENDBRANCH  16  17
ENDBRANCH  15  16
ENDBRANCH  14  15
ENDBRANCH  13  14
ENDBRANCH  12  13
ENDBRANCH  11  12
ENDBRANCH  10  11
ENDBRANCH   9  10
ENDBRANCH   8   9
ENDBRANCH   7   8
ENDBRANCH   6   7
ENDBRANCH   5   6
ENDBRANCH   4   5
ENDBRANCH   3   4
ENDBRANCH   2   3
TORSDOF 17
ENDMDL
