MODEL      207
REMARK 921   NORMALIZED FREE ENERGY PREDICTED BY IDOCK:    2.00 KCAL/MOL
REMARK 922        TOTAL FREE ENERGY PREDICTED BY IDOCK:    1.02 KCAL/MOL
REMARK 923 INTER-LIGAND FREE ENERGY PREDICTED BY IDOCK:    1.20 KCAL/MOL
REMARK 924 INTRA-LIGAND FREE ENERGY PREDICTED BY IDOCK:   -0.19 KCAL/MOL
REMARK 927      BINDING AFFINITY PREDICTED BY RF-SCORE:    0.00 PKD
ROOT
HETATM    1 CL   UNL     1     -12.638  18.041  67.210  1.00  0.00     4.819 Cl 
HETATM    2  C   UNL     1     -11.275  17.061  67.577  1.00  0.00     0.138 A  
HETATM    3  C   UNL     1     -10.051  17.652  67.860  1.00  0.00    -0.345 A  
HETATM    4  C   UNL     1      -8.935  16.847  68.131  1.00  0.00    -0.227 A  
HETATM    5  C   UNL     1      -8.997  15.438  68.079  1.00  0.00    -0.171 A  
HETATM    6  C   UNL     1     -11.392  15.678  67.568  1.00  0.00    -0.198 A  
HETATM    7  C   UNL     1     -10.260  14.882  67.788  1.00  0.00    -0.236 A  
ENDROOT
BRANCH   5   8
HETATM    8  C   UNL     1      -7.759  14.602  68.215  1.00  0.00    -0.123 A  
HETATM    9  C   UNL     1      -7.744  13.223  68.553  1.00  0.00    -0.120 A  
HETATM   10  C   UNL     1      -6.540  12.493  68.533  1.00  0.00    -0.077 A  
HETATM   11  C   UNL     1      -6.511  15.180  67.881  1.00  0.00    -0.176 A  
HETATM   12  C   UNL     1      -5.331  13.111  68.236  1.00  0.00    -0.089 A  
HETATM   13  C   UNL     1      -5.313  14.460  67.914  1.00  0.00    -0.076 A  
BRANCH   9  14
HETATM   14  N   UNL     1      -8.909  12.579  69.033  1.00  0.00    -0.227 N  
HETATM   15  O   UNL     1      -8.610  10.496  68.064  1.00  0.00    -0.118 OA 
HETATM   16  H   UNL     1      -9.570  13.134  69.576  1.00  0.00     0.000 HD 
HETATM   17  C   UNL     1      -9.213  11.243  68.817  1.00  0.00    -0.126 C  
BRANCH  17  18
HETATM   18  C   UNL     1     -10.445  10.738  69.473  1.00  0.00    -0.205 A  
HETATM   19  C   UNL     1     -11.728  10.938  68.981  1.00  0.00    -0.320 A  
HETATM   20 CL   UNL     1     -12.087  11.814  67.542  1.00  0.00    -0.051 Cl 
HETATM   21  N   UNL     1     -12.851  10.495  69.594  1.00  0.00    -0.035 NA 
HETATM   22  C   UNL     1     -12.702   9.844  70.763  1.00  0.00    -0.224 A  
HETATM   23  C   UNL     1     -11.468   9.601  71.348  1.00  0.00    -0.455 A  
HETATM   24  C   UNL     1     -10.324  10.055  70.693  1.00  0.00    -0.153 A  
ENDBRANCH  17  18
ENDBRANCH   9  14
ENDBRANCH   5   8
TORSDOF 3
ENDMDL
