MODEL       76
REMARK 921   NORMALIZED FREE ENERGY PREDICTED BY IDOCK:   -5.55 KCAL/MOL
REMARK 922        TOTAL FREE ENERGY PREDICTED BY IDOCK:  -12.28 KCAL/MOL
REMARK 923 INTER-LIGAND FREE ENERGY PREDICTED BY IDOCK:  -10.48 KCAL/MOL
REMARK 924 INTRA-LIGAND FREE ENERGY PREDICTED BY IDOCK:   -1.80 KCAL/MOL
REMARK 927      BINDING AFFINITY PREDICTED BY RF-SCORE:    0.00 PKD
ROOT
HETATM    1  C   UNL     1     -12.532  12.077  63.533  1.00  0.00    -0.654 C  
HETATM    2  C   UNL     1     -11.021  11.953  63.457  1.00  0.00    -0.432 C  
ENDROOT
BRANCH   2   3
HETATM    3  N   UNL     1     -10.431  11.830  64.771  1.00  0.00    -0.278 N  
HETATM    4  C   UNL     1      -9.391  10.959  65.004  1.00  0.00    -0.226 C  
HETATM    5  H   UNL     1     -10.792  12.398  65.538  1.00  0.00     0.000 HD 
HETATM    6  O   UNL     1      -8.912  10.237  64.138  1.00  0.00    -0.197 OA 
BRANCH   4   7
HETATM    7  C   UNL     1      -8.890  10.990  66.434  1.00  0.00    -0.182 C  
BRANCH   7   8
HETATM    8  C   UNL     1      -8.924  12.413  66.998  1.00  0.00    -0.209 C  
BRANCH   8   9
HETATM    9  C   UNL     1      -9.720  12.537  68.297  1.00  0.00    -0.220 C  
BRANCH   9  10
HETATM   10  C   UNL     1     -11.162  12.158  68.117  1.00  0.00    -0.320 C  
HETATM   11  C   UNL     1     -12.143  12.241  69.030  1.00  0.00    -0.197 C  
BRANCH  11  12
HETATM   12  C   UNL     1     -12.012  12.704  70.455  1.00  0.00    -0.331 C  
BRANCH  12  13
HETATM   13  C   UNL     1     -12.769  14.008  70.746  1.00  0.00    -0.396 C  
HETATM   14  C   UNL     1     -13.938  13.875  71.734  1.00  0.00    -0.339 C  
HETATM   15  C   UNL     1     -14.115  15.292  72.263  1.00  0.00    -0.651 C  
HETATM   16  O   UNL     1     -13.609  13.026  72.828  1.00  0.00    -0.648 OA 
HETATM   17  H   UNL     1     -14.331  12.944  73.439  1.00  0.00     0.000 HD 
HETATM   18  C   UNL     1     -12.682  15.773  72.474  1.00  0.00    -0.451 C  
HETATM   19  O   UNL     1     -12.231  15.391  73.776  1.00  0.00    -0.496 OA 
HETATM   20  C   UNL     1     -11.829  15.053  71.405  1.00  0.00    -0.413 C  
HETATM   21  H   UNL     1     -11.339  15.690  73.906  1.00  0.00     0.000 HD 
BRANCH  20  22
HETATM   22  C   UNL     1     -11.267  16.026  70.391  1.00  0.00    -0.401 C  
HETATM   23  C   UNL     1     -10.139  15.797  69.695  1.00  0.00    -0.289 C  
BRANCH  23  24
HETATM   24  C   UNL     1      -9.451  16.735  68.737  1.00  0.00    -0.259 C  
HETATM   25  H   UNL     1      -8.627  16.630  66.952  1.00  0.00     0.000 HD 
HETATM   26  O   UNL     1      -9.061  16.039  67.556  1.00  0.00    -0.196 OA 
BRANCH  24  27
HETATM   27  C   UNL     1     -10.334  17.915  68.312  1.00  0.00    -0.389 C  
BRANCH  27  28
HETATM   28  C   UNL     1      -9.771  19.280  68.718  1.00  0.00    -0.510 C  
BRANCH  28  29
HETATM   29  C   UNL     1      -8.604  19.675  67.849  1.00  0.00    -0.360 A  
HETATM   30  C   UNL     1      -7.443  20.207  68.425  1.00  0.00    -0.200 A  
HETATM   31  C   UNL     1      -6.378  20.615  67.621  1.00  0.00    -0.331 A  
HETATM   32  C   UNL     1      -6.465  20.496  66.236  1.00  0.00    -0.272 A  
HETATM   33  C   UNL     1      -7.615  19.964  65.654  1.00  0.00    -0.242 A  
HETATM   34  C   UNL     1      -8.680  19.555  66.455  1.00  0.00    -0.388 A  
ENDBRANCH  28  29
ENDBRANCH  27  28
ENDBRANCH  24  27
ENDBRANCH  23  24
ENDBRANCH  20  22
ENDBRANCH  12  13
ENDBRANCH  11  12
ENDBRANCH   9  10
ENDBRANCH   8   9
ENDBRANCH   7   8
ENDBRANCH   4   7
ENDBRANCH   2   3
TORSDOF 12
ENDMDL
