MODEL      154
REMARK 921   NORMALIZED FREE ENERGY PREDICTED BY IDOCK:    1.42 KCAL/MOL
REMARK 922        TOTAL FREE ENERGY PREDICTED BY IDOCK:    1.34 KCAL/MOL
REMARK 923 INTER-LIGAND FREE ENERGY PREDICTED BY IDOCK:   -0.36 KCAL/MOL
REMARK 924 INTRA-LIGAND FREE ENERGY PREDICTED BY IDOCK:    1.70 KCAL/MOL
REMARK 927      BINDING AFFINITY PREDICTED BY RF-SCORE:    0.00 PKD
ROOT
HETATM    1  C   UNL     1      -5.401   6.242  67.517  1.00  0.00    -0.005 C  
HETATM    2  C   UNL     1      -6.831   6.620  67.964  1.00  0.00    -0.077 C  
HETATM    3  C   UNL     1      -6.689   7.477  69.248  1.00  0.00    -0.041 C  
HETATM    4  C   UNL     1      -7.552   5.304  68.338  1.00  0.00    -0.080 C  
ENDROOT
BRANCH   2   5
HETATM    5  C   UNL     1      -7.637   7.409  66.910  1.00  0.00    -0.102 A  
HETATM    6  C   UNL     1      -7.137   7.779  65.646  1.00  0.00    -0.060 A  
HETATM    7  C   UNL     1      -7.868   8.616  64.767  1.00  0.00    -0.123 A  
HETATM    8  C   UNL     1      -9.136   9.084  65.121  1.00  0.00    -0.203 A  
HETATM    9  C   UNL     1      -8.928   7.859  67.228  1.00  0.00    -0.137 A  
HETATM   10  C   UNL     1      -9.652   8.674  66.359  1.00  0.00    -0.316 A  
BRANCH   8  11
HETATM   11  C   UNL     1      -9.932  10.146  64.367  1.00  0.00    -0.159 C  
BRANCH  11  12
HETATM   12  N   UNL     1      -9.639  11.577  64.578  1.00  0.00    -0.196 NA 
HETATM   13  C   UNL     1     -10.761  12.328  65.167  1.00  0.00    -0.293 C  
HETATM   14  C   UNL     1     -10.988  12.260  66.713  1.00  0.00    -0.276 C  
HETATM   15  N   UNL     1      -9.848  12.000  67.629  1.00  0.00    -0.186 NA 
HETATM   16  C   UNL     1      -8.761  11.293  66.945  1.00  0.00    -0.157 C  
HETATM   17  C   UNL     1      -8.484  11.732  65.493  1.00  0.00     0.492 C  
BRANCH  15  18
HETATM   18  C   UNL     1      -9.475  13.172  68.476  1.00  0.00    -0.103 C  
BRANCH  18  19
HETATM   19  C   UNL     1      -7.941  13.320  68.553  1.00  0.00    -0.097 A  
HETATM   20  C   UNL     1      -7.273  14.297  67.794  1.00  0.00    -0.188 A  
HETATM   21  C   UNL     1      -7.177  12.508  69.412  1.00  0.00     0.249 A  
HETATM   22  C   UNL     1      -5.891  14.473  67.916  1.00  0.00    -0.137 A  
HETATM   23  C   UNL     1      -5.797  12.681  69.526  1.00  0.00    -0.105 A  
HETATM   24  C   UNL     1      -5.155  13.669  68.785  1.00  0.00    -0.074 A  
ENDBRANCH  18  19
BRANCH  18  25
HETATM   25  C   UNL     1     -10.088  14.528  68.062  1.00  0.00    -0.226 A  
HETATM   26  C   UNL     1     -11.278  16.987  67.362  1.00  0.00     0.194 A  
HETATM   27  C   UNL     1     -10.568  16.263  66.408  1.00  0.00    -0.253 A  
HETATM   28 CL   UNL     1     -12.069  18.448  66.918  1.00  0.00     3.033 Cl 
HETATM   29  C   UNL     1     -10.765  15.306  69.022  1.00  0.00    -0.244 A  
HETATM   30  C   UNL     1      -9.962  15.052  66.763  1.00  0.00    -0.254 A  
HETATM   31  C   UNL     1     -11.360  16.519  68.673  1.00  0.00    -0.237 A  
ENDBRANCH  18  25
ENDBRANCH  15  18
ENDBRANCH  11  12
ENDBRANCH   8  11
ENDBRANCH   2   5
TORSDOF 6
ENDMDL
