MODEL       19
REMARK 921   NORMALIZED FREE ENERGY PREDICTED BY IDOCK:   -6.61 KCAL/MOL
REMARK 922        TOTAL FREE ENERGY PREDICTED BY IDOCK:  -12.38 KCAL/MOL
REMARK 923 INTER-LIGAND FREE ENERGY PREDICTED BY IDOCK:  -10.44 KCAL/MOL
REMARK 924 INTRA-LIGAND FREE ENERGY PREDICTED BY IDOCK:   -1.94 KCAL/MOL
REMARK 927      BINDING AFFINITY PREDICTED BY RF-SCORE:    0.00 PKD
ROOT
HETATM    1  C   UNL     1     -10.741  17.650  65.638  1.00  0.00    -0.084 C  
HETATM    2  C   UNL     1      -9.997  16.702  66.524  1.00  0.00    -0.296 A  
HETATM    3  C   UNL     1      -9.974  15.300  66.544  1.00  0.00    -0.265 A  
HETATM    4  C   UNL     1      -6.845  17.570  69.148  1.00  0.00    -0.232 A  
HETATM    5  N   UNL     1      -9.036  14.940  67.538  1.00  0.00    -0.179 NA 
HETATM    6  O   UNL     1      -7.257  19.875  69.245  1.00  0.00    -0.309 OA 
HETATM    7  C   UNL     1      -8.347  16.076  67.955  1.00  0.00    -0.153 A  
HETATM    8  C   UNL     1      -7.617  18.647  68.777  1.00  0.00    -0.298 A  
HETATM    9  C   UNL     1      -9.057  17.178  67.487  1.00  0.00    -0.225 A  
HETATM   10  H   UNL     1      -6.519  19.989  69.832  1.00  0.00     0.000 HD 
HETATM   11  C   UNL     1      -7.177  16.288  68.708  1.00  0.00    -0.179 A  
HETATM   12  C   UNL     1      -8.696  18.480  67.918  1.00  0.00    -0.301 A  
ENDROOT
BRANCH   3  13
HETATM   13  C   UNL     1     -10.756  14.349  65.701  1.00  0.00    -0.326 A  
HETATM   14  C   UNL     1     -12.328  12.680  64.042  1.00  0.00    -0.443 A  
HETATM   15  H   UNL     1     -14.056  11.811  63.424  1.00  0.00     0.000 HD 
HETATM   16  C   UNL     1     -12.121  14.127  65.955  1.00  0.00    -0.449 A  
HETATM   17  C   UNL     1     -12.910  13.331  65.116  1.00  0.00    -0.376 A  
HETATM   18  O   UNL     1     -13.126  11.909  63.253  1.00  0.00    -0.674 OA 
HETATM   19  C   UNL     1     -10.201  13.678  64.598  1.00  0.00    -0.338 A  
HETATM   20  C   UNL     1     -10.970  12.823  63.792  1.00  0.00    -0.445 A  
ENDBRANCH   3  13
BRANCH   5  21
HETATM   21  C   UNL     1      -8.846  13.554  68.042  1.00  0.00    -0.181 C  
BRANCH  21  22
HETATM   22  C   UNL     1     -10.073  12.805  68.502  1.00  0.00    -0.189 A  
HETATM   23  C   UNL     1     -11.989  12.661  69.969  1.00  0.00    -0.377 A  
HETATM   24  C   UNL     1     -11.355  10.736  68.690  1.00  0.00    -0.356 A  
HETATM   25  C   UNL     1     -10.952  13.400  69.407  1.00  0.00    -0.079 A  
HETATM   26  C   UNL     1     -12.128  11.295  69.698  1.00  0.00    -0.322 A  
HETATM   27  C   UNL     1     -10.400  11.519  68.044  1.00  0.00    -0.208 A  
BRANCH  26  28
HETATM   28  O   UNL     1     -12.971  10.440  70.382  1.00  0.00    -0.303 OA 
BRANCH  28  29
HETATM   29  C   UNL     1     -12.596  10.296  71.754  1.00  0.00    -0.389 C  
BRANCH  29  30
HETATM   30  C   UNL     1     -12.838   8.905  72.358  1.00  0.00    -0.380 C  
BRANCH  30  31
HETATM   31  N   UNL     1     -11.732   7.970  71.991  1.00  0.00    -0.303 NA 
HETATM   32  C   UNL     1     -11.022   7.494  73.191  1.00  0.00    -0.367 C  
HETATM   33  C   UNL     1      -9.847   6.536  72.998  1.00  0.00    -0.178 C  
HETATM   34  C   UNL     1     -10.285   5.145  72.583  1.00  0.00    -0.232 C  
HETATM   35  C   UNL     1     -10.498   4.989  71.086  1.00  0.00    -0.205 C  
HETATM   36  C   UNL     1     -11.109   6.186  70.365  1.00  0.00    -0.420 C  
HETATM   37  C   UNL     1     -12.235   6.902  71.119  1.00  0.00    -0.379 C  
ENDBRANCH  30  31
ENDBRANCH  29  30
ENDBRANCH  28  29
ENDBRANCH  26  28
ENDBRANCH  21  22
ENDBRANCH   5  21
TORSDOF 7
ENDMDL
