MODEL      257
REMARK 921   NORMALIZED FREE ENERGY PREDICTED BY IDOCK:   -3.57 KCAL/MOL
REMARK 922        TOTAL FREE ENERGY PREDICTED BY IDOCK:   -9.03 KCAL/MOL
REMARK 923 INTER-LIGAND FREE ENERGY PREDICTED BY IDOCK:   -8.35 KCAL/MOL
REMARK 924 INTRA-LIGAND FREE ENERGY PREDICTED BY IDOCK:   -0.68 KCAL/MOL
REMARK 927      BINDING AFFINITY PREDICTED BY RF-SCORE:    0.00 PKD
ROOT
HETATM    1  O   UNL     1      -9.248   5.043  71.774  1.00  0.00    -0.138 OA 
HETATM    2  H   UNL     1      -9.139   4.440  71.048  1.00  0.00     0.000 HD 
HETATM    3  C   UNL     1     -10.192   6.034  71.795  1.00  0.00    -0.202 A  
HETATM    4  C   UNL     1     -10.353   6.916  72.859  1.00  0.00    -0.226 A  
HETATM    5  C   UNL     1     -11.363   7.879  72.825  1.00  0.00    -0.453 A  
HETATM    6  O   UNL     1      -9.555   6.891  73.967  1.00  0.00    -0.217 OA 
HETATM    7  H   UNL     1      -9.665   7.493  74.694  1.00  0.00     0.000 HD 
HETATM    8  C   UNL     1     -12.230   7.956  71.729  1.00  0.00    -0.344 A  
HETATM    9  C   UNL     1     -11.016   6.132  70.679  1.00  0.00    -0.376 A  
HETATM   10  C   UNL     1     -12.030   7.091  70.642  1.00  0.00    -0.361 A  
ENDROOT
BRANCH   8  11
HETATM   11  C   UNL     1     -13.355   8.961  71.704  1.00  0.00    -0.414 C  
BRANCH  11  12
HETATM   12  C   UNL     1     -12.865  10.345  71.276  1.00  0.00    -0.433 C  
BRANCH  12  13
HETATM   13  N   UNL     1     -12.761  10.428  69.814  1.00  0.00    -0.591 NA 
HETATM   14  H   UNL     1     -13.676  10.478  69.366  1.00  0.00     0.000 HD 
BRANCH  13  15
HETATM   15  C   UNL     1     -11.905  11.553  69.446  1.00  0.00    -0.350 C  
BRANCH  15  16
HETATM   16  C   UNL     1     -11.505  11.461  67.978  1.00  0.00    -0.377 C  
BRANCH  16  17
HETATM   17  C   UNL     1     -10.776  12.738  67.568  1.00  0.00    -0.247 C  
BRANCH  17  18
HETATM   18  C   UNL     1     -11.498  13.969  68.089  1.00  0.00    -0.341 C  
BRANCH  18  19
HETATM   19  C   UNL     1     -11.604  15.040  67.004  1.00  0.00    -0.248 C  
BRANCH  19  20
HETATM   20  C   UNL     1     -10.535  14.783  65.951  1.00  0.00    -0.312 C  
BRANCH  20  21
HETATM   21  N   UNL     1      -9.922  16.034  65.511  1.00  0.00    -0.459 NA 
HETATM   22  H   UNL     1     -10.389  16.410  64.686  1.00  0.00     0.000 HD 
BRANCH  21  23
HETATM   23  C   UNL     1      -9.876  17.016  66.603  1.00  0.00    -0.290 C  
BRANCH  23  24
HETATM   24  C   UNL     1      -8.515  17.063  67.314  1.00  0.00    -0.210 C  
BRANCH  24  25
HETATM   25  C   UNL     1      -7.783  18.354  67.063  1.00  0.00    -0.234 A  
HETATM   26  C   UNL     1      -6.846  18.434  66.026  1.00  0.00    -0.308 A  
HETATM   27  C   UNL     1      -6.171  19.631  65.780  1.00  0.00    -0.219 A  
HETATM   28  C   UNL     1      -6.426  20.746  66.574  1.00  0.00    -0.332 A  
HETATM   29  C   UNL     1      -7.349  20.668  67.616  1.00  0.00    -0.330 A  
HETATM   30  C   UNL     1      -8.024  19.474  67.863  1.00  0.00    -0.336 A  
ENDBRANCH  24  25
ENDBRANCH  23  24
ENDBRANCH  21  23
ENDBRANCH  20  21
ENDBRANCH  19  20
ENDBRANCH  18  19
ENDBRANCH  17  18
ENDBRANCH  16  17
ENDBRANCH  15  16
ENDBRANCH  13  15
ENDBRANCH  12  13
ENDBRANCH  11  12
ENDBRANCH   8  11
TORSDOF 13
ENDMDL
