MODEL       43
REMARK 921   NORMALIZED FREE ENERGY PREDICTED BY IDOCK:   -5.62 KCAL/MOL
REMARK 922        TOTAL FREE ENERGY PREDICTED BY IDOCK:  -13.66 KCAL/MOL
REMARK 923 INTER-LIGAND FREE ENERGY PREDICTED BY IDOCK:  -11.28 KCAL/MOL
REMARK 924 INTRA-LIGAND FREE ENERGY PREDICTED BY IDOCK:   -2.38 KCAL/MOL
REMARK 927      BINDING AFFINITY PREDICTED BY RF-SCORE:    0.00 PKD
ROOT
HETATM    1  C   UNL     1     -10.211  18.965  66.348  1.00  0.00    -0.481 C  
HETATM    2  C   UNL     1      -9.302  20.022  65.706  1.00  0.00    -0.098 C  
HETATM    3  C   UNL     1      -7.970  20.158  66.438  1.00  0.00    -0.298 C  
HETATM    4  C   UNL     1      -8.185  20.482  67.912  1.00  0.00    -0.080 C  
HETATM    5  C   UNL     1      -9.067  19.442  68.596  1.00  0.00    -0.423 C  
HETATM    6  C   UNL     1     -10.385  19.205  67.847  1.00  0.00    -0.505 C  
HETATM    7  C   UNL     1     -11.208  18.055  68.431  1.00  0.00     0.702 C  
HETATM    8  N   UNL     1     -10.558  16.737  68.367  1.00  0.00    -0.336 NA 
HETATM    9  C   UNL     1      -9.836  16.459  67.097  1.00  0.00    -0.249 C  
HETATM   10  C   UNL     1      -9.754  17.542  66.002  1.00  0.00    -0.160 C  
ENDROOT
BRANCH   8  11
HETATM   11  C   UNL     1     -11.584  15.692  68.654  1.00  0.00    -0.382 C  
BRANCH  11  12
HETATM   12  C   UNL     1     -11.078  14.394  69.337  1.00  0.00    -0.261 C  
HETATM   13  H   UNL     1     -11.849  13.025  70.510  1.00  0.00     0.000 HD 
HETATM   14  O   UNL     1     -12.159  13.819  70.091  1.00  0.00    -0.319 OA 
BRANCH  12  15
HETATM   15  C   UNL     1     -10.568  13.321  68.333  1.00  0.00    -0.252 C  
BRANCH  15  16
HETATM   16  N   UNL     1      -9.592  12.436  68.999  1.00  0.00    -0.357 N  
HETATM   17  C   UNL     1      -8.556  11.840  68.305  1.00  0.00    -0.162 C  
HETATM   18  O   UNL     1      -8.452  11.899  67.079  1.00  0.00    -0.166 OA 
HETATM   19  H   UNL     1      -9.685  12.258  70.000  1.00  0.00     0.000 HD 
BRANCH  17  20
HETATM   20  C   UNL     1      -7.570  11.028  69.171  1.00  0.00    -0.113 C  
BRANCH  20  21
HETATM   21  N   UNL     1      -8.319  10.063  69.972  1.00  0.00    -0.324 N  
HETATM   22  H   UNL     1      -8.183  10.068  70.983  1.00  0.00     0.000 HD 
HETATM   23  C   UNL     1      -9.196   9.151  69.439  1.00  0.00    -0.156 C  
HETATM   24  O   UNL     1      -9.490   9.121  68.247  1.00  0.00    -0.141 OA 
BRANCH  23  25
HETATM   25  C   UNL     1      -9.824   8.214  70.418  1.00  0.00    -0.186 A  
HETATM   26  N   UNL     1      -9.143   7.062  70.671  1.00  0.00    -0.158 NA 
HETATM   27  C   UNL     1      -9.713   6.176  71.505  1.00  0.00    -0.162 A  
HETATM   28  C   UNL     1     -10.959   6.413  72.128  1.00  0.00    -0.288 A  
HETATM   29  C   UNL     1     -11.609   7.628  71.873  1.00  0.00    -0.321 A  
HETATM   30  C   UNL     1     -11.526   5.446  72.973  1.00  0.00    -0.324 A  
HETATM   31  C   UNL     1     -11.037   8.544  71.000  1.00  0.00    -0.306 A  
HETATM   32  C   UNL     1     -10.869   4.239  73.200  1.00  0.00    -0.303 A  
HETATM   33  C   UNL     1      -9.637   4.003  72.598  1.00  0.00    -0.185 A  
HETATM   34  C   UNL     1      -9.071   4.972  71.764  1.00  0.00    -0.160 A  
ENDBRANCH  23  25
ENDBRANCH  20  21
BRANCH  20  35
HETATM   35  C   UNL     1      -6.432  10.406  68.364  1.00  0.00    -0.055 C  
BRANCH  35  36
HETATM   36  C   UNL     1      -5.846   9.168  69.000  1.00  0.00    -0.039 C  
HETATM   37  N   UNL     1      -5.539   8.147  68.154  1.00  0.00    -0.033 N  
HETATM   38  O   UNL     1      -5.687   9.055  70.209  1.00  0.00    -0.032 OA 
HETATM   39  H2  UNL     1      -5.694   8.215  67.149  1.00  0.00     0.000 HD 
HETATM   40  H1  UNL     1      -5.143   7.311  68.583  1.00  0.00     0.000 HD 
ENDBRANCH  35  36
ENDBRANCH  20  35
ENDBRANCH  17  20
ENDBRANCH  15  16
BRANCH  15  41
HETATM   41  C   UNL     1     -11.706  12.506  67.666  1.00  0.00    -0.423 C  
BRANCH  41  42
HETATM   42  C   UNL     1     -11.882  12.659  66.169  1.00  0.00    -0.477 A  
HETATM   43  C   UNL     1     -12.414  13.833  65.620  1.00  0.00    -0.541 A  
HETATM   44  C   UNL     1     -12.000  13.016  63.376  1.00  0.00    -0.592 A  
HETATM   45  C   UNL     1     -12.477  14.008  64.233  1.00  0.00    -0.303 A  
HETATM   46  C   UNL     1     -11.415  11.666  65.294  1.00  0.00    -0.173 A  
HETATM   47  C   UNL     1     -11.472  11.842  63.910  1.00  0.00    -0.511 A  
ENDBRANCH  41  42
ENDBRANCH  15  41
ENDBRANCH  12  15
ENDBRANCH  11  12
ENDBRANCH   8  11
BRANCH   9  48
HETATM   48  C   UNL     1      -8.395  15.937  67.401  1.00  0.00    -0.171 C  
HETATM   49  C   UNL     1      -5.394  16.612  67.542  1.00  0.00    -0.158 C  
HETATM   50  O   UNL     1      -7.915  14.997  66.770  1.00  0.00    -0.150 OA 
HETATM   51  C   UNL     1      -6.089  14.913  69.268  1.00  0.00    -0.107 C  
HETATM   52  C   UNL     1      -6.301  16.349  68.758  1.00  0.00    -0.135 C  
HETATM   53  N   UNL     1      -7.719  16.578  68.424  1.00  0.00    -0.180 N  
HETATM   54  C   UNL     1      -5.881  17.319  69.879  1.00  0.00    -0.240 C  
HETATM   55  H   UNL     1      -8.236  17.255  68.986  1.00  0.00     0.000 HD 
ENDBRANCH   9  48
TORSDOF 12
ENDMDL
