MODEL      177
REMARK 921   NORMALIZED FREE ENERGY PREDICTED BY IDOCK:   -0.36 KCAL/MOL
REMARK 922        TOTAL FREE ENERGY PREDICTED BY IDOCK:   -1.01 KCAL/MOL
REMARK 923 INTER-LIGAND FREE ENERGY PREDICTED BY IDOCK:   -0.83 KCAL/MOL
REMARK 924 INTRA-LIGAND FREE ENERGY PREDICTED BY IDOCK:   -0.18 KCAL/MOL
REMARK 927      BINDING AFFINITY PREDICTED BY RF-SCORE:    0.00 PKD
ROOT
HETATM    1  C   UNL     1      -5.375  18.371  67.467  1.00  0.00    -0.143 C  
HETATM    2  C   UNL     1      -5.939  17.093  68.005  1.00  0.00    -0.123 C  
HETATM    3  H   UNL     1      -5.490  15.216  68.207  1.00  0.00     0.000 HD 
HETATM    4  O   UNL     1      -5.132  16.027  67.865  1.00  0.00    -0.111 OA 
ENDROOT
BRANCH   2   5
HETATM    5  N   UNL     1      -7.103  17.042  68.568  1.00  0.00    -0.191 NA 
HETATM    6  H   UNL     1      -7.182  17.121  69.581  1.00  0.00     0.000 HD 
BRANCH   5   7
HETATM    7  C   UNL     1      -8.271  16.877  67.781  1.00  0.00    -0.189 A  
HETATM    8  C   UNL     1      -8.782  15.573  67.522  1.00  0.00    -0.172 A  
HETATM    9  C   UNL     1      -9.931  15.369  66.712  1.00  0.00    -0.256 A  
HETATM   10  I   UNL     1      -7.789  13.934  68.504  1.00  0.00    -0.050 I  
HETATM   11  C   UNL     1     -10.526  16.501  66.096  1.00  0.00    -0.294 A  
HETATM   12  O   UNL     1     -11.927  19.230  65.957  1.00  0.00     1.964 OA 
HETATM   13  O   UNL     1      -9.914  19.743  65.062  1.00  0.00     0.289 OA 
HETATM   14  I   UNL     1      -8.661  19.934  68.188  1.00  0.00    -0.098 I  
HETATM   15  C   UNL     1     -10.081  17.806  66.411  1.00  0.00    -0.357 A  
HETATM   16  I   UNL     1     -12.035  16.272  64.570  1.00  0.00     1.757 I  
HETATM   17  C   UNL     1      -9.012  17.982  67.310  1.00  0.00    -0.251 A  
HETATM   18  C   UNL     1     -10.618  19.006  65.725  1.00  0.00    -0.318 C  
BRANCH   9  19
HETATM   19  C   UNL     1     -10.563  14.022  66.536  1.00  0.00    -0.279 C  
HETATM   20  H   UNL     1     -12.058  12.931  67.170  1.00  0.00     0.000 HD 
HETATM   21  O   UNL     1     -11.657  13.785  67.282  1.00  0.00    -0.322 OA 
BRANCH  19  22
HETATM   22  N   UNL     1     -10.067  13.117  65.763  1.00  0.00    -0.289 NA 
HETATM   23  H   UNL     1      -9.120  13.185  65.391  1.00  0.00     0.000 HD 
BRANCH  22  24
HETATM   24  C   UNL     1     -10.953  11.976  65.448  1.00  0.00    -0.300 C  
BRANCH  24  25
HETATM   25  C   UNL     1     -11.597  12.210  64.077  1.00  0.00    -0.423 C  
HETATM   26  O   UNL     1     -10.672  11.897  63.037  1.00  0.00    -0.667 OA 
HETATM   27  H   UNL     1     -11.071  12.042  62.188  1.00  0.00     0.000 HD 
ENDBRANCH  24  25
ENDBRANCH  22  24
ENDBRANCH  19  22
ENDBRANCH   9  19
ENDBRANCH   5   7
ENDBRANCH   2   5
TORSDOF 6
ENDMDL
