MODEL       12
REMARK 921   NORMALIZED FREE ENERGY PREDICTED BY IDOCK:   -7.48 KCAL/MOL
REMARK 922        TOTAL FREE ENERGY PREDICTED BY IDOCK:  -10.20 KCAL/MOL
REMARK 923 INTER-LIGAND FREE ENERGY PREDICTED BY IDOCK:   -9.59 KCAL/MOL
REMARK 924 INTRA-LIGAND FREE ENERGY PREDICTED BY IDOCK:   -0.60 KCAL/MOL
REMARK 927      BINDING AFFINITY PREDICTED BY RF-SCORE:    0.00 PKD
ROOT
HETATM    1  C   UNL     1     -12.644  11.992  63.513  1.00  0.00    -0.507 C  
HETATM    2  O   UNL     1     -13.069  12.651  64.712  1.00  0.00    -0.852 OA 
ENDROOT
BRANCH   2   3
HETATM    3  C   UNL     1     -12.099  13.441  65.293  1.00  0.00    -0.413 A  
HETATM    4  C   UNL     1     -11.335  12.872  66.339  1.00  0.00    -0.319 A  
HETATM    5  C   UNL     1     -10.280  13.619  66.877  1.00  0.00    -0.261 A  
HETATM    6  C   UNL     1     -10.868  15.509  65.484  1.00  0.00    -0.361 A  
HETATM    7  C   UNL     1     -10.043  14.932  66.449  1.00  0.00    -0.296 A  
HETATM    8  C   UNL     1     -11.893  14.768  64.906  1.00  0.00    -0.377 A  
BRANCH   4   9
HETATM    9  N   UNL     1     -11.672  11.598  66.840  1.00  0.00    -0.555 NA 
HETATM   10  H   UNL     1     -12.651  11.358  66.679  1.00  0.00     0.000 HD 
BRANCH   9  11
HETATM   11  C   UNL     1     -10.958  10.565  67.520  1.00  0.00    -0.303 A  
HETATM   12  C   UNL     1      -8.884   7.553  66.992  1.00  0.00    -0.134 A  
HETATM   13  C   UNL     1     -11.318  10.325  68.884  1.00  0.00    -0.230 A  
HETATM   14  C   UNL     1     -12.146  11.183  69.649  1.00  0.00    -0.406 A  
HETATM   15  C   UNL     1     -10.052   9.672  66.873  1.00  0.00    -0.290 A  
HETATM   16  C   UNL     1     -12.447  10.910  70.983  1.00  0.00    -0.514 A  
HETATM   17  C   UNL     1      -9.666   8.526  67.603  1.00  0.00    -0.160 A  
HETATM   18  C   UNL     1      -9.538   9.808  65.556  1.00  0.00    -0.348 A  
HETATM   19  C   UNL     1     -11.934   9.768  71.580  1.00  0.00    -0.488 A  
HETATM   20  C   UNL     1      -8.710   8.842  64.980  1.00  0.00    -0.183 A  
HETATM   21  C   UNL     1      -8.408   7.693  65.690  1.00  0.00    -0.143 A  
HETATM   22  C   UNL     1     -11.124   8.912  70.834  1.00  0.00    -0.328 A  
HETATM   23  C   UNL     1     -10.810   9.172  69.505  1.00  0.00    -0.180 A  
HETATM   24  N   UNL     1     -10.031   8.291  68.868  1.00  0.00    -0.181 NA 
ENDBRANCH   9  11
ENDBRANCH   4   9
BRANCH   6  25
HETATM   25  N   UNL     1     -10.734  16.878  65.104  1.00  0.00    -0.222 N  
HETATM   26  H   UNL     1     -11.024  17.206  64.183  1.00  0.00     0.000 HD 
BRANCH  25  27
HETATM   27  S   UNL     1     -10.072  17.934  66.247  1.00  0.00    -0.326 S  
HETATM   28  C   UNL     1     -10.590  19.516  65.597  1.00  0.00    -0.341 C  
HETATM   29  O   UNL     1      -8.639  17.838  66.077  1.00  0.00    -0.497 OA 
HETATM   30  O   UNL     1     -10.689  17.733  67.538  1.00  0.00    -0.375 OA 
ENDBRANCH  25  27
ENDBRANCH   6  25
ENDBRANCH   2   3
TORSDOF 5
ENDMDL
