MODEL      204
REMARK 921   NORMALIZED FREE ENERGY PREDICTED BY IDOCK:   -4.04 KCAL/MOL
REMARK 922        TOTAL FREE ENERGY PREDICTED BY IDOCK:   -5.10 KCAL/MOL
REMARK 923 INTER-LIGAND FREE ENERGY PREDICTED BY IDOCK:   -4.54 KCAL/MOL
REMARK 924 INTRA-LIGAND FREE ENERGY PREDICTED BY IDOCK:   -0.56 KCAL/MOL
REMARK 927      BINDING AFFINITY PREDICTED BY RF-SCORE:    0.00 PKD
ROOT
HETATM    1  C   UNL     1      -9.527   6.857  67.908  1.00  0.00    -0.120 C  
HETATM    2  C   UNL     1      -8.883   6.904  66.536  1.00  0.00    -0.148 A  
HETATM    3  C   UNL     1      -8.375   8.097  65.949  1.00  0.00    -0.134 A  
HETATM    4 CL   UNL     1      -9.337   4.204  66.544  1.00  0.00    -0.166 Cl 
HETATM    5  C   UNL     1      -7.818   8.033  64.648  1.00  0.00    -0.140 A  
HETATM    6  C   UNL     1      -8.119   4.355  63.761  1.00  0.00    -0.095 C  
HETATM    7 CL   UNL     1      -7.128   9.442  63.875  1.00  0.00    -0.096 Cl 
HETATM    8  N   UNL     1      -7.758   6.809  63.945  1.00  0.00    -0.108 NA 
HETATM    9  C   UNL     1      -8.231   5.638  64.536  1.00  0.00    -0.125 A  
HETATM   10  O   UNL     1      -7.258   6.762  62.768  1.00  0.00    -0.054 OA 
HETATM   11  C   UNL     1      -8.781   5.690  65.823  1.00  0.00    -0.150 A  
ENDROOT
BRANCH   3  12
HETATM   12  C   UNL     1      -8.394   9.362  66.695  1.00  0.00    -0.119 A  
HETATM   13  O   UNL     1      -7.882  11.043  67.961  1.00  0.00    -0.105 OA 
HETATM   14  N   UNL     1      -7.521   9.725  67.650  1.00  0.00    -0.090 NA 
HETATM   15  C   UNL     1      -8.926  11.353  67.142  1.00  0.00    -0.162 A  
HETATM   16  N   UNL     1      -9.310  10.340  66.397  1.00  0.00    -0.161 NA 
BRANCH  15  17
HETATM   17  C   UNL     1      -9.397  12.735  67.082  1.00  0.00    -0.216 A  
HETATM   18  C   UNL     1      -8.585  13.866  67.290  1.00  0.00    -0.221 A  
HETATM   19  C   UNL     1      -9.141  15.164  67.200  1.00  0.00    -0.211 A  
HETATM   20  N   UNL     1      -8.285  16.331  67.430  1.00  0.00    -0.154 N  
HETATM   21  C   UNL     1     -10.496  15.341  66.894  1.00  0.00    -0.289 A  
HETATM   22  O   UNL     1     -11.155  16.539  66.778  1.00  0.00    -0.037 OA 
HETATM   23  O   UNL     1      -8.815  17.452  67.366  1.00  0.00    -0.223 OA 
HETATM   24  O   UNL     1      -7.086  16.134  67.673  1.00  0.00    -0.124 OA 
HETATM   25  C   UNL     1     -11.279  14.215  66.672  1.00  0.00    -0.325 A  
HETATM   26  H   UNL     1     -12.074  16.659  66.569  1.00  0.00     0.000 HD 
HETATM   27  C   UNL     1     -10.751  12.938  66.762  1.00  0.00    -0.276 A  
HETATM   28  O   UNL     1     -12.603  14.346  66.356  1.00  0.00    -0.496 OA 
HETATM   29  H   UNL     1     -13.139  13.576  66.204  1.00  0.00     0.000 HD 
ENDBRANCH  15  17
ENDBRANCH   3  12
TORSDOF 2
ENDMDL
