MODEL       65
REMARK 921   NORMALIZED FREE ENERGY PREDICTED BY IDOCK:   -7.23 KCAL/MOL
REMARK 922        TOTAL FREE ENERGY PREDICTED BY IDOCK:  -12.75 KCAL/MOL
REMARK 923 INTER-LIGAND FREE ENERGY PREDICTED BY IDOCK:  -11.16 KCAL/MOL
REMARK 924 INTRA-LIGAND FREE ENERGY PREDICTED BY IDOCK:   -1.59 KCAL/MOL
REMARK 927      BINDING AFFINITY PREDICTED BY RF-SCORE:    0.00 PKD
ROOT
HETATM    1  C   UNL     1     -14.357  15.217  71.581  1.00  0.00    -0.685 C  
HETATM    2  C   UNL     1     -12.983  15.087  72.266  1.00  0.00    -0.349 C  
HETATM    3  C   UNL     1     -11.731  15.728  71.359  1.00  0.00    -0.445 C  
HETATM    4  N   UNL     1     -12.729  13.632  72.476  1.00  0.00    -0.153 NA 
HETATM    5  C   UNL     1     -13.179  15.708  73.677  1.00  0.00    -0.472 C  
HETATM    6  H2  UNL     1     -12.799  13.087  71.617  1.00  0.00     0.000 HD 
HETATM    7  N   UNL     1     -11.105  14.885  70.434  1.00  0.00    -0.430 N  
HETATM    8  H1  UNL     1     -11.819  13.547  72.930  1.00  0.00     0.000 HD 
HETATM    9  O   UNL     1     -11.398  16.908  71.469  1.00  0.00     0.016 OA 
HETATM   10  H   UNL     1     -11.378  13.909  70.546  1.00  0.00     0.000 HD 
ENDROOT
BRANCH   7  11
HETATM   11  C   UNL     1     -10.080  15.095  69.264  1.00  0.00    -0.246 C  
BRANCH  11  12
HETATM   12  C   UNL     1      -9.807  16.491  68.534  1.00  0.00    -0.243 C  
BRANCH  12  13
HETATM   13  C   UNL     1      -8.350  17.161  68.588  1.00  0.00    -0.257 A  
HETATM   14  C   UNL     1      -7.188  16.661  69.145  1.00  0.00    -0.220 A  
HETATM   15  C   UNL     1      -7.916  20.703  66.983  1.00  0.00    -0.292 A  
HETATM   16  C   UNL     1      -6.686  21.001  67.561  1.00  0.00    -0.428 A  
HETATM   17  C   UNL     1      -6.027  20.037  68.324  1.00  0.00    -0.284 A  
HETATM   18  N   UNL     1      -6.195  17.640  69.124  1.00  0.00    -0.216 NA 
HETATM   19  C   UNL     1      -8.548  19.464  67.221  1.00  0.00    -0.329 A  
HETATM   20  C   UNL     1      -7.941  18.481  68.048  1.00  0.00    -0.293 A  
HETATM   21  C   UNL     1      -6.662  18.781  68.517  1.00  0.00    -0.259 A  
HETATM   22  H   UNL     1      -5.256  17.525  69.505  1.00  0.00     0.000 HD 
ENDBRANCH  12  13
ENDBRANCH  11  12
BRANCH  11  23
HETATM   23  C   UNL     1     -10.243  13.891  68.298  1.00  0.00    -0.247 C  
HETATM   24  N   UNL     1     -11.518  13.391  68.119  1.00  0.00    -0.284 N  
HETATM   25  H   UNL     1     -12.318  13.895  68.500  1.00  0.00     0.000 HD 
HETATM   26  O   UNL     1      -9.250  13.362  67.790  1.00  0.00    -0.194 OA 
BRANCH  24  27
HETATM   27  C   UNL     1     -11.725  12.159  67.393  1.00  0.00    -0.304 C  
BRANCH  27  28
HETATM   28  N   UNL     1     -11.329  12.358  66.023  1.00  0.00    -0.335 N  
HETATM   29  O   UNL     1     -13.120  13.708  65.465  1.00  0.00    -0.639 OA 
HETATM   30  C   UNL     1     -12.082  13.135  65.172  1.00  0.00    -0.421 C  
HETATM   31  H   UNL     1     -10.476  11.918  65.678  1.00  0.00     0.000 HD 
ENDBRANCH  27  28
BRANCH  27  32
HETATM   32  C   UNL     1     -11.225  10.844  68.030  1.00  0.00    -0.378 C  
BRANCH  32  33
HETATM   33  C   UNL     1     -11.518  10.282  69.412  1.00  0.00    -0.248 A  
HETATM   34  C   UNL     1     -11.838   9.236  71.440  1.00  0.00    -0.358 A  
HETATM   35  H   UNL     1     -12.963  10.836  72.250  1.00  0.00     0.000 HD 
HETATM   36  C   UNL     1     -11.784   8.284  72.470  1.00  0.00    -0.451 A  
HETATM   37  C   UNL     1     -12.264  11.085  70.270  1.00  0.00    -0.363 A  
HETATM   38  C   UNL     1     -11.128   7.087  72.208  1.00  0.00    -0.287 A  
HETATM   39  N   UNL     1     -12.446  10.454  71.458  1.00  0.00    -0.398 NA 
HETATM   40  C   UNL     1     -10.558   6.861  70.956  1.00  0.00    -0.244 A  
HETATM   41  C   UNL     1     -10.610   7.834  69.936  1.00  0.00    -0.239 A  
HETATM   42  C   UNL     1     -11.259   9.067  70.166  1.00  0.00    -0.191 A  
ENDBRANCH  32  33
ENDBRANCH  27  32
ENDBRANCH  24  27
ENDBRANCH  11  23
ENDBRANCH   7  11
TORSDOF 8
ENDMDL
