MODEL      155
REMARK 921   NORMALIZED FREE ENERGY PREDICTED BY IDOCK:   -5.09 KCAL/MOL
REMARK 922        TOTAL FREE ENERGY PREDICTED BY IDOCK:  -11.91 KCAL/MOL
REMARK 923 INTER-LIGAND FREE ENERGY PREDICTED BY IDOCK:  -10.53 KCAL/MOL
REMARK 924 INTRA-LIGAND FREE ENERGY PREDICTED BY IDOCK:   -1.38 KCAL/MOL
REMARK 927      BINDING AFFINITY PREDICTED BY RF-SCORE:    0.00 PKD
ROOT
HETATM    1  O   UNL     1     -14.196   8.945  73.427  1.00  0.00    -1.241 OA 
HETATM    2  C   UNL     1     -13.624   9.544  72.264  1.00  0.00    -0.418 C  
HETATM    3  H   UNL     1     -14.924   9.460  73.754  1.00  0.00     0.000 HD 
ENDROOT
BRANCH   2   4
HETATM    4  C   UNL     1     -12.469   8.725  71.747  1.00  0.00    -0.407 A  
HETATM    5  C   UNL     1     -12.457   7.326  71.749  1.00  0.00    -0.343 A  
HETATM    6  O   UNL     1     -13.537   6.595  72.160  1.00  0.00    -0.520 OA 
HETATM    7  C   UNL     1     -11.340   6.609  71.329  1.00  0.00    -0.346 A  
HETATM    8  C   UNL     1     -10.206   7.286  70.885  1.00  0.00    -0.203 A  
HETATM    9  H   UNL     1     -13.528   5.645  72.161  1.00  0.00     0.000 HD 
HETATM   10  C   UNL     1     -10.179   8.688  70.866  1.00  0.00    -0.261 A  
HETATM   11  C   UNL     1     -11.311   9.393  71.312  1.00  0.00    -0.436 A  
BRANCH  10  12
HETATM   12  C   UNL     1      -8.913   9.406  70.446  1.00  0.00    -0.250 C  
HETATM   13  O   UNL     1      -7.784   8.531  70.568  1.00  0.00    -0.072 OA 
HETATM   14  H   UNL     1      -6.990   8.981  70.304  1.00  0.00     0.000 HD 
BRANCH  12  15
HETATM   15  C   UNL     1      -9.034   9.896  68.987  1.00  0.00    -0.160 C  
BRANCH  15  16
HETATM   16  N   UNL     1      -9.174  11.361  68.924  1.00  0.00    -0.382 NA 
HETATM   17  H   UNL     1      -8.322  11.839  69.219  1.00  0.00     0.000 HD 
BRANCH  16  18
HETATM   18  C   UNL     1      -9.593  11.768  67.587  1.00  0.00    -0.183 C  
BRANCH  18  19
HETATM   19  C   UNL     1     -11.116  11.799  67.501  1.00  0.00    -0.330 C  
BRANCH  19  20
HETATM   20  C   UNL     1     -11.555  12.295  66.124  1.00  0.00    -0.450 C  
BRANCH  20  21
HETATM   21  C   UNL     1     -12.298  13.622  66.228  1.00  0.00    -0.464 C  
BRANCH  21  22
HETATM   22  C   UNL     1     -11.894  14.382  67.488  1.00  0.00    -0.418 C  
BRANCH  22  23
HETATM   23  C   UNL     1     -11.131  15.648  67.128  1.00  0.00    -0.218 C  
BRANCH  23  24
HETATM   24  O   UNL     1     -10.481  16.138  68.296  1.00  0.00    -0.255 OA 
BRANCH  24  25
HETATM   25  C   UNL     1      -9.866  15.072  69.016  1.00  0.00    -0.236 C  
BRANCH  25  26
HETATM   26  C   UNL     1      -8.369  15.314  69.110  1.00  0.00    -0.233 C  
BRANCH  26  27
HETATM   27  O   UNL     1      -8.137  16.716  69.248  1.00  0.00    -0.193 OA 
BRANCH  27  28
HETATM   28  C   UNL     1      -6.817  17.064  68.855  1.00  0.00    -0.211 C  
BRANCH  28  29
HETATM   29  C   UNL     1      -6.818  18.486  68.364  1.00  0.00    -0.264 A  
HETATM   30  C   UNL     1      -6.252  19.523  69.126  1.00  0.00    -0.283 A  
HETATM   31 CL   UNL     1      -5.579  19.252  70.697  1.00  0.00    -0.250 Cl 
HETATM   32  C   UNL     1      -6.210  20.837  68.640  1.00  0.00    -0.308 A  
HETATM   33  C   UNL     1      -6.754  21.143  67.398  1.00  0.00    -0.429 A  
HETATM   34  C   UNL     1      -7.368  20.142  66.652  1.00  0.00    -0.304 A  
HETATM   35  C   UNL     1      -7.410  18.828  67.134  1.00  0.00    -0.213 A  
HETATM   36 CL   UNL     1      -8.224  17.662  66.147  1.00  0.00    -0.247 Cl 
ENDBRANCH  28  29
ENDBRANCH  27  28
ENDBRANCH  26  27
ENDBRANCH  25  26
ENDBRANCH  24  25
ENDBRANCH  23  24
ENDBRANCH  22  23
ENDBRANCH  21  22
ENDBRANCH  20  21
ENDBRANCH  19  20
ENDBRANCH  18  19
ENDBRANCH  16  18
ENDBRANCH  15  16
ENDBRANCH  12  15
ENDBRANCH  10  12
ENDBRANCH   2   4
TORSDOF 16
ENDMDL
