MODEL      168
REMARK 921   NORMALIZED FREE ENERGY PREDICTED BY IDOCK:    3.81 KCAL/MOL
REMARK 922        TOTAL FREE ENERGY PREDICTED BY IDOCK:    3.99 KCAL/MOL
REMARK 923 INTER-LIGAND FREE ENERGY PREDICTED BY IDOCK:    3.93 KCAL/MOL
REMARK 924 INTRA-LIGAND FREE ENERGY PREDICTED BY IDOCK:    0.06 KCAL/MOL
REMARK 927      BINDING AFFINITY PREDICTED BY RF-SCORE:    0.00 PKD
ROOT
HETATM    1  C   UNL     1      -8.969  19.880  66.200  1.00  0.00    -0.373 C  
HETATM    2  C   UNL     1     -10.104  18.973  65.916  1.00  0.00    -0.236 A  
HETATM    3  C   UNL     1     -10.312  17.606  66.008  1.00  0.00    -0.305 A  
HETATM    4  O   UNL     1     -11.233  19.579  65.462  1.00  0.00    -0.286 OA 
HETATM    5  C   UNL     1     -11.647  17.462  65.563  1.00  0.00     1.738 A  
HETATM    6  N   UNL     1     -12.210  18.625  65.238  1.00  0.00     5.310 NA 
ENDROOT
BRANCH   3   7
HETATM    7  C   UNL     1      -9.314  16.655  66.464  1.00  0.00    -0.265 C  
HETATM    8  O   UNL     1      -8.127  16.921  66.312  1.00  0.00    -0.287 OA 
HETATM    9  H   UNL     1     -10.790  15.376  67.145  1.00  0.00     0.000 HD 
HETATM   10  N   UNL     1      -9.780  15.485  67.053  1.00  0.00    -0.221 N  
BRANCH  10  11
HETATM   11  C   UNL     1      -8.961  14.430  67.537  1.00  0.00    -0.190 A  
HETATM   12  C   UNL     1      -8.992  13.134  67.014  1.00  0.00    -0.228 A  
HETATM   13  C   UNL     1      -8.192  12.116  67.534  1.00  0.00    -0.167 A  
HETATM   14  C   UNL     1      -7.328  12.364  68.600  1.00  0.00    -0.102 A  
HETATM   15  C   UNL     1      -6.486  11.250  69.168  1.00  0.00    -0.081 C  
HETATM   16  C   UNL     1      -7.274  13.667  69.124  1.00  0.00     0.005 A  
HETATM   17  C   UNL     1      -8.084  14.689  68.597  1.00  0.00    -0.150 A  
HETATM   18  F   UNL     1      -5.151  11.494  69.060  1.00  0.00    -0.045 F  
HETATM   19  F   UNL     1      -6.724  11.039  70.493  1.00  0.00    -0.135 F  
HETATM   20  F   UNL     1      -6.694  10.047  68.559  1.00  0.00    -0.053 F  
ENDBRANCH  10  11
ENDBRANCH   3   7
TORSDOF 2
ENDMDL
