MODEL        1
REMARK 921   NORMALIZED FREE ENERGY PREDICTED BY IDOCK:   -7.61 KCAL/MOL
REMARK 922        TOTAL FREE ENERGY PREDICTED BY IDOCK:  -12.38 KCAL/MOL
REMARK 923 INTER-LIGAND FREE ENERGY PREDICTED BY IDOCK:  -10.28 KCAL/MOL
REMARK 924 INTRA-LIGAND FREE ENERGY PREDICTED BY IDOCK:   -2.10 KCAL/MOL
REMARK 927      BINDING AFFINITY PREDICTED BY RF-SCORE:    0.00 PKD
ROOT
HETATM    1  O   UNL     1     -13.207  10.776  72.315  1.00  0.00    -0.605 OA 
HETATM    2  H   UNL     1     -12.819  10.040  72.772  1.00  0.00     0.000 HD 
HETATM    3  C   UNL     1     -12.288  11.231  71.326  1.00  0.00    -0.270 C  
HETATM    4  C   UNL     1     -12.909  12.408  70.595  1.00  0.00     0.069 C  
HETATM    5  O   UNL     1     -12.030  12.901  69.608  1.00  0.00    -0.313 OA 
HETATM    6  C   UNL     1     -11.748  11.971  68.580  1.00  0.00    -0.326 C  
HETATM    7  C   UNL     1     -11.128  10.661  69.122  1.00  0.00    -0.255 C  
HETATM    8  C   UNL     1     -11.899  10.110  70.348  1.00  0.00    -0.288 C  
ENDROOT
BRANCH   6   9
HETATM    9  O   UNL     1     -10.809  12.571  67.682  1.00  0.00    -0.215 OA 
BRANCH   9  10
HETATM   10  C   UNL     1     -11.281  13.747  67.012  1.00  0.00    -0.311 C  
HETATM   11  H   UNL     1     -10.982  17.108  63.725  1.00  0.00     0.000 HD 
HETATM   12  C   UNL     1     -10.084  14.710  66.786  1.00  0.00    -0.265 C  
HETATM   13  C   UNL     1     -11.956  13.434  65.667  1.00  0.00    -0.401 C  
HETATM   14  C   UNL     1     -10.505  15.910  65.915  1.00  0.00    -0.359 C  
HETATM   15  O   UNL     1     -11.730  16.567  63.950  1.00  0.00    -1.148 OA 
HETATM   16  O   UNL     1     -12.349  14.624  64.988  1.00  0.00    -0.370 OA 
HETATM   17  C   UNL     1     -11.232  15.432  64.651  1.00  0.00    -0.364 C  
BRANCH  14  18
HETATM   18  O   UNL     1      -9.482  16.874  65.683  1.00  0.00    -0.524 OA 
HETATM   19  S   UNL     1      -9.509  18.381  66.280  1.00  0.00    -0.179 S  
HETATM   20  O   UNL     1     -10.767  18.990  65.920  1.00  0.00    -0.454 OA 
HETATM   21  O   UNL     1      -9.499  18.176  67.873  1.00  0.00    -0.270 OA 
HETATM   22  O   UNL     1      -8.241  18.991  65.951  1.00  0.00    -0.465 OA 
ENDBRANCH  14  18
BRANCH  12  23
HETATM   23  O   UNL     1      -9.445  15.105  68.010  1.00  0.00    -0.196 OA 
HETATM   24  S   UNL     1      -7.876  14.811  68.301  1.00  0.00    -0.134 S  
HETATM   25  O   UNL     1      -7.713  13.388  68.488  1.00  0.00    -0.131 OA 
HETATM   26  O   UNL     1      -7.679  15.470  69.756  1.00  0.00    -0.182 OA 
HETATM   27  O   UNL     1      -7.058  15.548  67.372  1.00  0.00    -0.175 OA 
ENDBRANCH  12  23
ENDBRANCH   9  10
ENDBRANCH   6   9
BRANCH   7  28
HETATM   28  O   UNL     1     -11.144   9.643  68.106  1.00  0.00    -0.176 OA 
HETATM   29  O   UNL     1      -9.293   9.959  66.471  1.00  0.00    -0.153 OA 
HETATM   30  O   UNL     1     -10.205   7.729  66.798  1.00  0.00    -0.273 OA 
HETATM   31  S   UNL     1      -9.726   9.077  67.531  1.00  0.00    -0.171 S  
HETATM   32  O   UNL     1      -8.885   8.701  68.640  1.00  0.00    -0.140 OA 
ENDBRANCH   7  28
BRANCH   8  33
HETATM   33  O   UNL     1     -11.027   9.165  70.993  1.00  0.00    -0.254 OA 
HETATM   34  S   UNL     1     -11.608   7.763  71.573  1.00  0.00    -0.280 S  
HETATM   35  O   UNL     1     -12.160   7.990  72.886  1.00  0.00    -0.247 OA 
HETATM   36  O   UNL     1     -12.332   7.092  70.516  1.00  0.00    -0.267 OA 
HETATM   37  O   UNL     1     -10.254   6.948  71.862  1.00  0.00    -0.189 OA 
ENDBRANCH   8  33
TORSDOF 6
ENDMDL
