MODEL      116
REMARK 921   NORMALIZED FREE ENERGY PREDICTED BY IDOCK:   -2.63 KCAL/MOL
REMARK 922        TOTAL FREE ENERGY PREDICTED BY IDOCK:   -3.48 KCAL/MOL
REMARK 923 INTER-LIGAND FREE ENERGY PREDICTED BY IDOCK:   -3.17 KCAL/MOL
REMARK 924 INTRA-LIGAND FREE ENERGY PREDICTED BY IDOCK:   -0.31 KCAL/MOL
REMARK 927      BINDING AFFINITY PREDICTED BY RF-SCORE:    0.00 PKD
ROOT
HETATM    1  C   UNL     1     -11.863  15.677  67.998  1.00  0.00    -0.032 C  
HETATM    2  C   UNL     1     -11.507  16.496  69.096  1.00  0.00    -0.084 C  
HETATM    3  C   UNL     1     -10.371  15.943  68.312  1.00  0.00    -0.242 C  
HETATM    4  C   UNL     1     -10.904  15.006  66.559  1.00  0.00    -0.320 C  
HETATM    5  C   UNL     1     -10.515  16.307  66.736  1.00  0.00    -0.287 C  
HETATM    6  C   UNL     1      -8.691  11.201  68.842  1.00  0.00    -0.086 A  
HETATM    7  O   UNL     1     -10.095  14.520  65.487  1.00  0.00    -0.332 OA 
HETATM    8  C   UNL     1      -8.770  15.635  66.896  1.00  0.00    -0.283 C  
HETATM    9  C   UNL     1     -10.742  17.544  65.922  1.00  0.00    -0.119 C  
HETATM   10  C   UNL     1     -11.547  13.923  68.479  1.00  0.00    -0.367 C  
HETATM   11  H   UNL     1     -10.341  14.087  64.678  1.00  0.00     0.000 HD 
HETATM   12  C   UNL     1      -8.776  13.992  67.545  1.00  0.00    -0.201 C  
HETATM   13  C   UNL     1      -9.938  13.430  68.621  1.00  0.00    -0.139 C  
HETATM   14  C   UNL     1      -9.876  11.944  68.990  1.00  0.00     0.118 A  
HETATM   15  C   UNL     1     -10.948  11.352  69.696  1.00  0.00    -0.174 A  
HETATM   16  C   UNL     1     -10.834  10.029  70.159  1.00  0.00    -0.365 A  
HETATM   17  C   UNL     1     -12.259  12.054  69.978  1.00  0.00    -0.280 C  
HETATM   18  C   UNL     1     -12.240  13.568  69.795  1.00  0.00    -0.330 C  
HETATM   19  C   UNL     1      -9.675   9.288  69.954  1.00  0.00    -0.201 A  
HETATM   20  C   UNL     1      -8.592   9.890  69.324  1.00  0.00    -0.169 A  
ENDROOT
BRANCH   4  21
HETATM   21  C   UNL     1     -12.263  15.068  65.800  1.00  0.00     0.206 C  
HETATM   22  C   UNL     1     -13.328  15.154  65.243  1.00  0.00     1.400 C  
ENDBRANCH   4  21
BRANCH  19  23
HETATM   23  O   UNL     1      -9.504   7.985  70.341  1.00  0.00    -0.165 OA 
BRANCH  23  24
HETATM   24  C   UNL     1      -9.402   7.769  71.749  1.00  0.00    -0.141 C  
HETATM   25  C   UNL     1     -10.182   6.543  72.224  1.00  0.00    -0.203 C  
HETATM   26  C   UNL     1      -9.542   6.228  73.560  1.00  0.00    -0.158 C  
HETATM   27  C   UNL     1      -8.057   6.486  73.337  1.00  0.00    -0.109 C  
HETATM   28  C   UNL     1      -7.959   7.415  72.124  1.00  0.00    -0.101 C  
ENDBRANCH  23  24
ENDBRANCH  19  23
TORSDOF 3
ENDMDL
