MODEL      214
REMARK 921   NORMALIZED FREE ENERGY PREDICTED BY IDOCK:   -0.31 KCAL/MOL
REMARK 922        TOTAL FREE ENERGY PREDICTED BY IDOCK:   -7.24 KCAL/MOL
REMARK 923 INTER-LIGAND FREE ENERGY PREDICTED BY IDOCK:   -7.57 KCAL/MOL
REMARK 924 INTRA-LIGAND FREE ENERGY PREDICTED BY IDOCK:    0.33 KCAL/MOL
REMARK 927      BINDING AFFINITY PREDICTED BY RF-SCORE:    0.00 PKD
ROOT
HETATM    1  C   UNL     1      -5.926   7.540  69.440  1.00  0.00    -0.030 C  
HETATM    2  C   UNL     1      -6.448   7.098  70.795  1.00  0.00    -0.043 C  
ENDROOT
BRANCH   2   3
HETATM    3  C   UNL     1      -6.303   8.209  71.825  1.00  0.00    -0.047 C  
BRANCH   3   4
HETATM    4  C   UNL     1      -5.200   9.186  71.428  1.00  0.00    -0.042 C  
BRANCH   4   5
HETATM    5  C   UNL     1      -5.775  10.574  71.178  1.00  0.00     0.004 C  
BRANCH   5   6
HETATM    6  C   UNL     1      -5.753  10.902  69.692  1.00  0.00    -0.046 C  
BRANCH   6   7
HETATM    7  C   UNL     1      -6.948  10.268  68.996  1.00  0.00    -0.064 C  
BRANCH   7   8
HETATM    8  C   UNL     1      -8.128  10.184  69.951  1.00  0.00    -0.139 C  
BRANCH   8   9
HETATM    9  C   UNL     1      -9.082   9.087  69.511  1.00  0.00    -0.151 C  
BRANCH   9  10
HETATM   10  C   UNL     1      -9.888   8.597  70.700  1.00  0.00    -0.220 C  
BRANCH  10  11
HETATM   11  C   UNL     1     -10.683   9.740  71.303  1.00  0.00    -0.204 C  
BRANCH  11  12
HETATM   12  C   UNL     1     -12.162   9.413  71.242  1.00  0.00    -0.425 C  
BRANCH  12  13
HETATM   13  C   UNL     1     -12.960  10.660  70.920  1.00  0.00    -0.429 C  
BRANCH  13  14
HETATM   14  C   UNL     1     -12.060  11.680  70.246  1.00  0.00    -0.443 C  
BRANCH  14  15
HETATM   15  C   UNL     1     -11.304  11.007  69.123  1.00  0.00    -0.348 C  
BRANCH  15  16
HETATM   16  C   UNL     1     -11.988  11.245  67.788  1.00  0.00    -0.014 C  
BRANCH  16  17
HETATM   17  C   UNL     1     -12.227  12.737  67.657  1.00  0.00    -0.000 C  
BRANCH  17  18
HETATM   18  C   UNL     1     -12.245  13.175  66.204  1.00  0.00    -0.385 C  
BRANCH  18  19
HETATM   19  N   UNL     1     -10.840  13.559  65.695  1.00  0.00    -0.284 N  
HETATM   20  C   UNL     1     -10.525  12.822  64.390  1.00  0.00    -0.386 C  
HETATM   21  C   UNL     1     -10.749  15.071  65.473  1.00  0.00    -0.359 C  
BRANCH  19  22
HETATM   22  C   UNL     1      -9.864  13.119  66.808  1.00  0.00    -0.251 C  
BRANCH  22  23
HETATM   23  C   UNL     1      -8.422  13.437  66.464  1.00  0.00     0.288 C  
BRANCH  23  24
HETATM   24  C   UNL     1      -7.607  13.750  67.705  1.00  0.00    -0.189 C  
BRANCH  24  25
HETATM   25  C   UNL     1      -6.794  14.999  67.413  1.00  0.00    -0.144 C  
BRANCH  25  26
HETATM   26  C   UNL     1      -6.766  15.920  68.611  1.00  0.00    -0.119 C  
BRANCH  26  27
HETATM   27  C   UNL     1      -7.958  16.859  68.548  1.00  0.00    -0.242 C  
BRANCH  27  28
HETATM   28  C   UNL     1      -8.450  16.959  67.119  1.00  0.00    -0.218 C  
BRANCH  28  29
HETATM   29  C   UNL     1      -8.285  18.378  66.610  1.00  0.00    -0.283 C  
BRANCH  29  30
HETATM   30  C   UNL     1      -9.200  19.303  67.388  1.00  0.00    -0.356 C  
BRANCH  30  31
HETATM   31  C   UNL     1      -8.709  19.458  68.813  1.00  0.00    -0.377 C  
BRANCH  31  32
HETATM   32  C   UNL     1      -7.629  20.521  68.877  1.00  0.00     0.436 C  
BRANCH  32  33
HETATM   33  C   UNL     1      -6.290  19.888  69.214  1.00  0.00    -0.365 C  
BRANCH  33  34
HETATM   34  C   UNL     1      -5.208  20.416  68.285  1.00  0.00    -0.246 C  
BRANCH  34  35
HETATM   35  C   UNL     1      -5.835  21.157  67.112  1.00  0.00    -0.370 C  
BRANCH  35  36
HETATM   36  C   UNL     1      -5.184  20.737  65.801  1.00  0.00    -0.227 C  
BRANCH  36  37
HETATM   37  C   UNL     1      -6.244  20.312  64.790  1.00  0.00    -0.324 C  
BRANCH  37  38
HETATM   38  C   UNL     1      -5.676  20.302  63.375  1.00  0.00    -0.298 C  
HETATM   39  C   UNL     1      -6.470  21.222  62.464  1.00  0.00    -0.227 C  
ENDBRANCH  37  38
ENDBRANCH  36  37
ENDBRANCH  35  36
ENDBRANCH  34  35
ENDBRANCH  33  34
ENDBRANCH  32  33
ENDBRANCH  31  32
ENDBRANCH  30  31
ENDBRANCH  29  30
ENDBRANCH  28  29
ENDBRANCH  27  28
ENDBRANCH  26  27
ENDBRANCH  25  26
ENDBRANCH  24  25
ENDBRANCH  23  24
ENDBRANCH  22  23
ENDBRANCH  19  22
ENDBRANCH  18  19
ENDBRANCH  17  18
ENDBRANCH  16  17
ENDBRANCH  15  16
ENDBRANCH  14  15
ENDBRANCH  13  14
ENDBRANCH  12  13
ENDBRANCH  11  12
ENDBRANCH  10  11
ENDBRANCH   9  10
ENDBRANCH   8   9
ENDBRANCH   7   8
ENDBRANCH   6   7
ENDBRANCH   5   6
ENDBRANCH   4   5
ENDBRANCH   3   4
ENDBRANCH   2   3
TORSDOF 34
ENDMDL
