MODEL      142
REMARK 921   NORMALIZED FREE ENERGY PREDICTED BY IDOCK:   -2.62 KCAL/MOL
REMARK 922        TOTAL FREE ENERGY PREDICTED BY IDOCK:   -3.68 KCAL/MOL
REMARK 923 INTER-LIGAND FREE ENERGY PREDICTED BY IDOCK:   -3.45 KCAL/MOL
REMARK 924 INTRA-LIGAND FREE ENERGY PREDICTED BY IDOCK:   -0.23 KCAL/MOL
REMARK 927      BINDING AFFINITY PREDICTED BY RF-SCORE:    0.00 PKD
ROOT
HETATM    1  C   UNL     1     -11.997  13.751  68.559  1.00  0.00    -0.367 C  
HETATM    2  N   UNL     1     -11.044  13.922  67.455  1.00  0.00    -0.291 NA 
ENDROOT
BRANCH   2   3
HETATM    3  C   UNL     1     -11.351  15.147  66.682  1.00  0.00    -0.234 C  
BRANCH   3   4
HETATM    4  C   UNL     1     -10.301  16.238  66.762  1.00  0.00    -0.296 A  
HETATM    5  C   UNL     1     -10.646  17.515  67.233  1.00  0.00    -0.287 A  
HETATM    6  C   UNL     1      -8.981  16.004  66.352  1.00  0.00    -0.354 A  
HETATM    7  C   UNL     1      -9.686  18.526  67.318  1.00  0.00    -0.313 A  
HETATM    8  C   UNL     1      -8.022  17.017  66.441  1.00  0.00    -0.342 A  
HETATM    9  C   UNL     1      -8.373  18.274  66.927  1.00  0.00    -0.256 A  
ENDBRANCH   3   4
ENDBRANCH   2   3
BRANCH   2  10
HETATM   10  C   UNL     1     -11.100  12.770  66.533  1.00  0.00    -0.286 C  
BRANCH  10  11
HETATM   11  C   UNL     1     -10.277  11.624  66.960  1.00  0.00    -0.240 C  
HETATM   12  C   UNL     1      -9.592  10.681  67.254  1.00  0.00    -0.186 C  
ENDBRANCH  10  11
ENDBRANCH   2  10
TORSDOF 4
ENDMDL
