MODEL       27
REMARK 921   NORMALIZED FREE ENERGY PREDICTED BY IDOCK:   -6.04 KCAL/MOL
REMARK 922        TOTAL FREE ENERGY PREDICTED BY IDOCK:  -10.55 KCAL/MOL
REMARK 923 INTER-LIGAND FREE ENERGY PREDICTED BY IDOCK:   -8.76 KCAL/MOL
REMARK 924 INTRA-LIGAND FREE ENERGY PREDICTED BY IDOCK:   -1.79 KCAL/MOL
REMARK 927      BINDING AFFINITY PREDICTED BY RF-SCORE:    0.00 PKD
ROOT
HETATM    1 MN   UNL     1      -9.653  11.149  70.425  1.00  0.00    -0.245 Mn 
HETATM    2  C   UNL     2      -8.892  18.056  66.996  1.00  0.00    -0.254 C  
HETATM    3  C   UNL     3     -11.529   9.372  70.554  1.00  0.00    -0.262 C  
HETATM    4  H   UNL     3     -12.070   7.669  71.312  1.00  0.00     0.000 HD 
HETATM    5  H   UNL     2      -9.027  17.355  68.771  1.00  0.00     0.000 HD 
HETATM    6  O   UNL     2      -8.814  18.205  68.405  1.00  0.00    -0.283 OA 
HETATM    7  O   UNL     3     -12.498   8.489  71.094  1.00  0.00    -0.273 OA 
ENDROOT
BRANCH   2   8
HETATM    8  C   UNL     2      -8.545  19.436  66.401  1.00  0.00    -0.354 C  
HETATM    9  H   UNL     2      -8.992  21.344  66.690  1.00  0.00     0.000 HD 
HETATM   10  O   UNL     2      -9.205  20.494  67.056  1.00  0.00    -0.361 OA 
ENDBRANCH   2   8
BRANCH   2  11
HETATM   11  C   UNL     2     -10.322  17.498  66.623  1.00  0.00    -0.319 C  
HETATM   12  H   UNL     2     -11.528  17.484  65.060  1.00  0.00     0.000 HD 
HETATM   13  O   UNL     2     -10.668  17.820  65.285  1.00  0.00    -0.649 OA 
BRANCH  11  14
HETATM   14  C   UNL     2     -10.520  15.955  66.788  1.00  0.00    -0.309 C  
HETATM   15  H   UNL     2      -9.372  14.445  67.099  1.00  0.00     0.000 HD 
HETATM   16  O   UNL     2      -9.252  15.382  66.999  1.00  0.00    -0.206 OA 
BRANCH  14  17
HETATM   17  C   UNL     2     -11.182  15.236  65.589  1.00  0.00    -0.256 C  
HETATM   18  C   UNL     2     -12.169  14.178  66.052  1.00  0.00    -0.443 C  
HETATM   19  H   UNL     2     -10.595  14.177  64.075  1.00  0.00     0.000 HD 
HETATM   20  O   UNL     2     -10.189  14.619  64.811  1.00  0.00    -0.367 OA 
HETATM   21  O   UNL     2     -12.873  13.478  65.147  1.00  0.00    -0.681 OA 
HETATM   22  O   UNL     2     -12.399  13.995  67.247  1.00  0.00    -0.351 OA 
ENDBRANCH  14  17
ENDBRANCH  11  14
ENDBRANCH   2  11
BRANCH   3  23
HETATM   23  C   UNL     3     -10.810   8.557  69.405  1.00  0.00    -0.091 C  
HETATM   24  O   UNL     3      -9.587   9.227  69.207  1.00  0.00    -0.154 OA 
HETATM   25  H   UNL     3      -9.155   8.738  68.517  1.00  0.00     0.000 HD 
BRANCH  23  26
HETATM   26  C   UNL     3     -10.469   7.001  69.306  1.00  0.00    -0.210 C  
HETATM   27  O   UNL     3     -11.727   6.375  69.268  1.00  0.00    -0.608 OA 
HETATM   28  H   UNL     3     -11.524   5.449  69.209  1.00  0.00     0.000 HD 
BRANCH  26  29
HETATM   29  C   UNL     3      -9.641   6.131  70.372  1.00  0.00    -0.164 C  
HETATM   30  C   UNL     3     -10.350   5.177  71.292  1.00  0.00    -0.205 C  
HETATM   31  O   UNL     3      -8.876   6.957  71.223  1.00  0.00    -0.134 OA 
HETATM   32  O   UNL     3     -11.202   5.637  72.225  1.00  0.00    -0.266 OA 
HETATM   33  O   UNL     3     -10.035   3.997  71.298  1.00  0.00    -0.185 OA 
HETATM   34  H   UNL     3      -8.387   6.442  71.854  1.00  0.00     0.000 HD 
ENDBRANCH  26  29
ENDBRANCH  23  26
ENDBRANCH   3  23
BRANCH   3  35
HETATM   35  C   UNL     3     -12.234  10.725  70.194  1.00  0.00    -0.346 C  
HETATM   36  O   UNL     3     -12.287  10.948  68.816  1.00  0.00    -0.783 OA 
HETATM   37  H   UNL     3     -12.715  11.768  68.597  1.00  0.00     0.000 HD 
ENDBRANCH   3  35
TORSDOF 8
ENDMDL
