MODEL        5
REMARK 921   NORMALIZED FREE ENERGY PREDICTED BY IDOCK:   -8.16 KCAL/MOL
REMARK 922        TOTAL FREE ENERGY PREDICTED BY IDOCK:  -15.61 KCAL/MOL
REMARK 923 INTER-LIGAND FREE ENERGY PREDICTED BY IDOCK:  -13.92 KCAL/MOL
REMARK 924 INTRA-LIGAND FREE ENERGY PREDICTED BY IDOCK:   -1.69 KCAL/MOL
REMARK 927      BINDING AFFINITY PREDICTED BY RF-SCORE:    0.00 PKD
ROOT
HETATM    1  N   UNL     1      -9.679  20.494  66.322  1.00  0.00    -0.648 N  
HETATM    2  H1  UNL     1      -9.265  20.042  65.506  1.00  0.00     0.000 HD 
HETATM    3  H2  UNL     1     -10.034  21.447  66.246  1.00  0.00     0.000 HD 
HETATM    4  C   UNL     1      -9.761  19.843  67.504  1.00  0.00    -0.392 C  
HETATM    5  O   UNL     1     -10.259  20.387  68.489  1.00  0.00    -0.273 OA 
ENDROOT
BRANCH   4   6
HETATM    6  C   UNL     1      -9.213  18.468  67.545  1.00  0.00    -0.288 C  
HETATM    7  C   UNL     1      -9.559  17.718  68.608  1.00  0.00    -0.322 C  
HETATM    8  N   UNL     1      -9.182  16.387  68.769  1.00  0.00    -0.230 NA 
HETATM    9  C   UNL     1      -8.378  17.895  66.433  1.00  0.00    -0.273 C  
HETATM   10  C   UNL     1      -8.273  15.859  67.844  1.00  0.00    -0.145 C  
HETATM   11  C   UNL     1      -7.864  16.512  66.747  1.00  0.00    -0.296 C  
BRANCH   8  12
HETATM   12  C   UNL     1      -9.796  15.461  69.746  1.00  0.00    -0.227 C  
HETATM   13  O   UNL     1     -10.309  14.311  69.037  1.00  0.00    -0.231 OA 
HETATM   14  C   UNL     1     -11.675  14.601  68.663  1.00  0.00    -0.329 C  
HETATM   15  H   UNL     1     -11.930  15.454  72.267  1.00  0.00     0.000 HD 
HETATM   16  C   UNL     1     -12.193  15.662  69.629  1.00  0.00    -0.240 C  
HETATM   17  H   UNL     1     -13.649  15.833  70.957  1.00  0.00     0.000 HD 
HETATM   18  C   UNL     1     -11.012  15.939  70.555  1.00  0.00    -0.330 C  
HETATM   19  O   UNL     1     -13.327  15.172  70.355  1.00  0.00    -0.206 OA 
HETATM   20  O   UNL     1     -11.178  15.159  71.766  1.00  0.00    -0.389 OA 
BRANCH  14  21
HETATM   21  C   UNL     1     -11.741  15.066  67.200  1.00  0.00    -0.215 C  
BRANCH  21  22
HETATM   22  O   UNL     1     -12.426  14.118  66.390  1.00  0.00    -0.461 OA 
BRANCH  22  23
HETATM   23  P   UNL     1     -11.845  13.802  64.937  1.00  0.00    -0.425 P  
HETATM   24  O   UNL     1     -12.651  14.257  63.766  1.00  0.00    -0.821 OA 
HETATM   25  O   UNL     1     -10.460  14.620  64.958  1.00  0.00    -0.393 OA 
BRANCH  23  26
HETATM   26  O   UNL     1     -11.351  12.301  64.937  1.00  0.00    -0.309 OA 
BRANCH  26  27
HETATM   27  P   UNL     1     -10.653  11.575  66.156  1.00  0.00    -0.265 P  
HETATM   28  O   UNL     1     -11.815  11.548  67.266  1.00  0.00    -0.609 OA 
HETATM   29  O   UNL     1      -9.427  12.198  66.733  1.00  0.00    -0.200 OA 
BRANCH  27  30
HETATM   30  O   UNL     1     -10.497  10.028  65.765  1.00  0.00    -0.169 OA 
BRANCH  30  31
HETATM   31  C   UNL     1      -9.237   9.373  65.864  1.00  0.00    -0.213 C  
BRANCH  31  32
HETATM   32  C   UNL     1      -8.851   9.011  67.295  1.00  0.00    -0.117 C  
HETATM   33  O   UNL     1      -9.962   9.180  68.197  1.00  0.00    -0.163 OA 
HETATM   34  C   UNL     1      -9.563   8.455  69.376  1.00  0.00    -0.170 C  
HETATM   35  H   UNL     1      -6.784   6.470  67.316  1.00  0.00     0.000 HD 
HETATM   36  C   UNL     1      -8.881   7.179  68.854  1.00  0.00    -0.130 C  
HETATM   37  C   UNL     1      -8.439   7.549  67.437  1.00  0.00    -0.115 C  
HETATM   38  H   UNL     1      -7.342   5.973  69.322  1.00  0.00     0.000 HD 
HETATM   39  O   UNL     1      -7.764   6.761  69.644  1.00  0.00    -0.105 OA 
HETATM   40  O   UNL     1      -7.041   7.380  67.228  1.00  0.00    -0.079 OA 
BRANCH  34  41
HETATM   41  N   UNL     1     -10.708   8.188  70.222  1.00  0.00    -0.233 NA 
HETATM   42  C   UNL     1     -11.171   6.977  70.656  1.00  0.00    -0.288 A  
HETATM   43  N   UNL     1     -12.214   7.107  71.453  1.00  0.00    -0.342 NA 
HETATM   44  C   UNL     1     -12.449   8.466  71.512  1.00  0.00    -0.312 A  
HETATM   45  C   UNL     1     -13.400   9.240  72.196  1.00  0.00    -0.468 A  
HETATM   46  N   UNL     1     -14.342   8.701  73.059  1.00  0.00    -1.094 NA 
HETATM   47  N   UNL     1     -13.400  10.581  72.003  1.00  0.00    -0.401 NA 
HETATM   48  H1  UNL     1     -15.033   9.263  73.556  1.00  0.00     0.000 HD 
HETATM   49  C   UNL     1     -12.457  11.115  71.197  1.00  0.00    -0.393 A  
HETATM   50  H2  UNL     1     -13.836   8.155  73.758  1.00  0.00     0.000 HD 
HETATM   51  N   UNL     1     -11.462  10.484  70.531  1.00  0.00    -0.332 NA 
HETATM   52  C   UNL     1     -11.537   9.154  70.728  1.00  0.00    -0.276 A  
ENDBRANCH  34  41
ENDBRANCH  31  32
ENDBRANCH  30  31
ENDBRANCH  27  30
ENDBRANCH  26  27
ENDBRANCH  23  26
ENDBRANCH  22  23
ENDBRANCH  21  22
ENDBRANCH  14  21
ENDBRANCH   8  12
ENDBRANCH   4   6
TORSDOF 11
ENDMDL
