MODEL        3
REMARK 921   NORMALIZED FREE ENERGY PREDICTED BY IDOCK:   -7.93 KCAL/MOL
REMARK 922        TOTAL FREE ENERGY PREDICTED BY IDOCK:  -13.18 KCAL/MOL
REMARK 923 INTER-LIGAND FREE ENERGY PREDICTED BY IDOCK:  -12.01 KCAL/MOL
REMARK 924 INTRA-LIGAND FREE ENERGY PREDICTED BY IDOCK:   -1.17 KCAL/MOL
REMARK 927      BINDING AFFINITY PREDICTED BY RF-SCORE:    0.00 PKD
ROOT
HETATM    1  C   UNL     1      -7.721  20.476  67.158  1.00  0.00    -0.322 C  
HETATM    2  O   UNL     1      -8.158  19.119  67.079  1.00  0.00    -0.253 OA 
ENDROOT
BRANCH   2   3
HETATM    3  C   UNL     1      -9.417  18.957  66.591  1.00  0.00    -0.334 C  
HETATM    4  O   UNL     1     -10.049  19.792  65.955  1.00  0.00    -0.450 OA 
BRANCH   3   5
HETATM    5  C   UNL     1      -9.924  17.598  66.906  1.00  0.00    -0.323 A  
HETATM    6  C   UNL     1      -9.919  16.559  65.952  1.00  0.00    -0.342 A  
HETATM    7  C   UNL     1     -10.431  15.290  66.257  1.00  0.00    -0.313 A  
HETATM    8  C   UNL     1     -10.953  15.057  67.519  1.00  0.00    -0.307 A  
HETATM    9  C   UNL     1     -10.948  16.099  68.453  1.00  0.00    -0.341 A  
HETATM   10  C   UNL     1     -10.436  17.357  68.187  1.00  0.00    -0.389 A  
HETATM   11  N   UNL     1     -11.529  15.690  69.645  1.00  0.00    -0.314 N  
HETATM   12  H   UNL     1     -11.639  16.288  70.463  1.00  0.00     0.000 HD 
HETATM   13  C   UNL     1     -11.940  14.366  69.586  1.00  0.00    -0.336 C  
HETATM   14  O   UNL     1     -12.428  13.741  70.508  1.00  0.00    -0.337 OA 
HETATM   15  C   UNL     1     -11.593  13.897  68.184  1.00  0.00    -0.370 C  
HETATM   16  C   UNL     1     -11.872  12.655  67.717  1.00  0.00    -0.323 C  
BRANCH  16  17
HETATM   17  C   UNL     1     -11.447  12.274  66.353  1.00  0.00    -0.434 A  
HETATM   18  C   UNL     1     -10.583  11.699  63.756  1.00  0.00    -0.473 A  
HETATM   19  C   UNL     1     -10.189  11.693  66.143  1.00  0.00    -0.263 A  
HETATM   20  C   UNL     1     -12.275  12.539  65.254  1.00  0.00    -0.493 A  
HETATM   21  C   UNL     1      -9.759  11.412  64.845  1.00  0.00    -0.283 A  
HETATM   22  C   UNL     1     -11.843  12.256  63.960  1.00  0.00    -0.530 A  
ENDBRANCH  16  17
BRANCH  16  23
HETATM   23  N   UNL     1     -12.533  11.609  68.370  1.00  0.00    -0.072 NA 
HETATM   24  H   UNL     1     -13.482  11.358  68.091  1.00  0.00     0.000 HD 
BRANCH  23  25
HETATM   25  C   UNL     1     -11.894  10.891  69.421  1.00  0.00    -0.328 A  
HETATM   26  C   UNL     1     -10.758   9.179  71.405  1.00  0.00    -0.343 A  
HETATM   27  C   UNL     1     -10.577  10.456  69.327  1.00  0.00    -0.259 A  
HETATM   28  C   UNL     1     -12.567  10.645  70.615  1.00  0.00    -0.454 A  
HETATM   29  C   UNL     1     -10.030   9.604  70.290  1.00  0.00    -0.326 A  
HETATM   30  C   UNL     1     -12.007   9.800  71.589  1.00  0.00    -0.454 A  
BRANCH  26  31
HETATM   31  N   UNL     1     -10.279   8.124  72.281  1.00  0.00    -0.252 N  
HETATM   32  C   UNL     1      -8.941   8.259  72.861  1.00  0.00    -0.254 C  
HETATM   33  C   UNL     1     -11.087   7.021  72.650  1.00  0.00    -0.281 C  
HETATM   34  O   UNL     1     -12.210   6.774  72.195  1.00  0.00    -0.291 OA 
BRANCH  33  35
HETATM   35  C   UNL     1     -10.514   5.969  73.611  1.00  0.00    -0.269 C  
BRANCH  35  36
HETATM   36  N   UNL     1     -10.717   4.565  73.195  1.00  0.00    -0.216 NA 
HETATM   37  C   UNL     1      -9.995   4.182  71.960  1.00  0.00    -0.180 C  
HETATM   38  C   UNL     1      -8.487   3.832  72.101  1.00  0.00    -0.088 C  
HETATM   39  N   UNL     1      -8.117   3.001  73.267  1.00  0.00    -0.071 NA 
HETATM   40  C   UNL     1      -8.423   1.587  73.054  1.00  0.00    -0.057 C  
HETATM   41  C   UNL     1      -8.794   3.516  74.468  1.00  0.00    -0.086 C  
HETATM   42  C   UNL     1     -10.323   3.667  74.298  1.00  0.00    -0.197 C  
ENDBRANCH  35  36
ENDBRANCH  33  35
ENDBRANCH  26  31
ENDBRANCH  23  25
ENDBRANCH  16  23
ENDBRANCH   3   5
ENDBRANCH   2   3
TORSDOF 8
ENDMDL
