MODEL       79
REMARK 921   NORMALIZED FREE ENERGY PREDICTED BY IDOCK:   -3.81 KCAL/MOL
REMARK 922        TOTAL FREE ENERGY PREDICTED BY IDOCK:   -4.48 KCAL/MOL
REMARK 923 INTER-LIGAND FREE ENERGY PREDICTED BY IDOCK:   -4.28 KCAL/MOL
REMARK 924 INTRA-LIGAND FREE ENERGY PREDICTED BY IDOCK:   -0.20 KCAL/MOL
REMARK 927      BINDING AFFINITY PREDICTED BY RF-SCORE:    0.00 PKD
ROOT
HETATM    1 CL   UNL     1      -5.520  17.173  66.960  1.00  0.00    -0.181 Cl 
HETATM    2 CL   UNL     2      -7.491  20.753  67.322  1.00  0.00    -0.400 Cl 
HETATM    3  C   UNL     2      -8.842  19.860  66.645  1.00  0.00    -0.358 C  
HETATM    4  C   UNL     2      -9.235  18.700  67.182  1.00  0.00    -0.294 C  
ENDROOT
BRANCH   4   5
HETATM    5  C   UNL     2     -10.401  17.950  66.574  1.00  0.00    -0.362 C  
BRANCH   5   6
HETATM    6  N   UNL     2     -10.438  16.484  66.855  1.00  0.00    -0.301 N  
HETATM    7  C   UNL     2     -10.746  15.691  65.633  1.00  0.00    -0.364 C  
HETATM    8  N   UNL     2     -10.835  14.253  65.962  1.00  0.00    -0.298 NA 
HETATM    9  C   UNL     2      -9.551  13.804  66.536  1.00  0.00    -0.285 C  
HETATM   10  N   UNL     2      -9.239  14.567  67.762  1.00  0.00    -0.190 NA 
HETATM   11  C   UNL     2     -10.320  14.359  68.744  1.00  0.00    -0.241 C  
HETATM   12  C   UNL     2      -9.151  16.004  67.433  1.00  0.00    -0.199 C  
HETATM   13  N   UNL     2     -11.610  14.809  68.187  1.00  0.00    -0.321 NA 
HETATM   14  C   UNL     2     -11.903  14.048  66.958  1.00  0.00    -0.428 C  
HETATM   15  C   UNL     2     -11.516  16.241  67.854  1.00  0.00    -0.056 C  
ENDBRANCH   5   6
ENDBRANCH   4   5
TORSDOF 2
ENDMDL
