MODEL      152
REMARK 921   NORMALIZED FREE ENERGY PREDICTED BY IDOCK:    0.66 KCAL/MOL
REMARK 922        TOTAL FREE ENERGY PREDICTED BY IDOCK:    0.40 KCAL/MOL
REMARK 923 INTER-LIGAND FREE ENERGY PREDICTED BY IDOCK:    0.20 KCAL/MOL
REMARK 924 INTRA-LIGAND FREE ENERGY PREDICTED BY IDOCK:    0.20 KCAL/MOL
REMARK 927      BINDING AFFINITY PREDICTED BY RF-SCORE:    0.00 PKD
ROOT
HETATM    1  C   UNL     1     -12.062  14.046  68.538  1.00  0.00    -0.329 C  
HETATM    2  C   UNL     1     -11.442  15.209  67.827  1.00  0.00    -0.329 A  
HETATM    3  C   UNL     1     -10.059  15.390  67.789  1.00  0.00    -0.227 A  
HETATM    4  N   UNL     1      -9.263  14.218  67.615  1.00  0.00    -0.189 N  
HETATM    5  C   UNL     1      -8.318  13.942  68.576  1.00  0.00    -0.132 C  
HETATM    6  H   UNL     1      -9.390  13.607  66.809  1.00  0.00     0.000 HD 
HETATM    7  C   UNL     1      -7.202  14.887  68.773  1.00  0.00    -0.123 A  
HETATM    8  O   UNL     1      -8.362  12.915  69.242  1.00  0.00     0.497 OA 
HETATM    9  C   UNL     1      -7.348  16.270  68.684  1.00  0.00    -0.180 A  
HETATM   10  N   UNL     1      -8.138  16.901  67.672  1.00  0.00    -0.180 NA 
HETATM   11  N   UNL     1      -6.522  17.071  69.413  1.00  0.00    -0.233 NA 
HETATM   12  C   UNL     1      -9.509  16.617  67.397  1.00  0.00    -0.232 A  
HETATM   13  C   UNL     1      -5.494  16.511  70.091  1.00  0.00    -0.200 A  
HETATM   14  C   UNL     1     -12.223  16.155  67.179  1.00  0.00     1.632 A  
HETATM   15  C   UNL     1     -11.596  17.255  66.618  1.00  0.00     1.556 A  
HETATM   16  C   UNL     1      -5.140  15.185  69.971  1.00  0.00    -0.098 A  
HETATM   17  N   UNL     1     -10.280  17.521  66.754  1.00  0.00    -0.317 NA 
HETATM   18  C   UNL     1      -6.020  14.354  69.301  1.00  0.00    -0.097 A  
ENDROOT
BRANCH  10  19
HETATM   19  C   UNL     1      -7.339  17.267  66.465  1.00  0.00    -0.277 C  
HETATM   20  C   UNL     1      -7.462  18.581  65.752  1.00  0.00    -0.130 C  
HETATM   21  C   UNL     1      -6.214  18.267  66.518  1.00  0.00    -0.212 C  
ENDBRANCH  10  19
TORSDOF 1
ENDMDL
