MODEL        9
REMARK 921   NORMALIZED FREE ENERGY PREDICTED BY IDOCK:   -6.73 KCAL/MOL
REMARK 922        TOTAL FREE ENERGY PREDICTED BY IDOCK:   -8.17 KCAL/MOL
REMARK 923 INTER-LIGAND FREE ENERGY PREDICTED BY IDOCK:   -7.54 KCAL/MOL
REMARK 924 INTRA-LIGAND FREE ENERGY PREDICTED BY IDOCK:   -0.63 KCAL/MOL
REMARK 927      BINDING AFFINITY PREDICTED BY RF-SCORE:    0.00 PKD
ROOT
HETATM    1  C   UNL     1      -9.023  16.315  65.834  1.00  0.00    -0.186 C  
HETATM    2  O   UNL     1      -8.206  17.261  66.494  1.00  0.00    -0.233 OA 
HETATM    3  C   UNL     1      -8.071  17.250  67.944  1.00  0.00    -0.210 C  
HETATM    4  C   UNL     1      -7.372  15.916  68.381  1.00  0.00    -0.125 A  
HETATM    5  C   UNL     1      -7.174  18.496  68.202  1.00  0.00    -0.268 A  
HETATM    6  C   UNL     1      -9.453  17.459  68.699  1.00  0.00    -0.280 C  
HETATM    7  C   UNL     1     -10.135  18.799  68.441  1.00  0.00    -0.393 C  
HETATM    8  C   UNL     1      -7.344  19.651  67.396  1.00  0.00    -0.271 A  
HETATM    9  C   UNL     1      -6.481  15.243  67.524  1.00  0.00    -0.158 A  
HETATM   10  C   UNL     1      -5.608  19.795  69.547  1.00  0.00    -0.260 A  
HETATM   11  O   UNL     1      -9.916  19.825  69.068  1.00  0.00    -0.434 OA 
HETATM   12  C   UNL     1      -5.984  13.969  67.839  1.00  0.00    -0.144 A  
HETATM   13  C   UNL     1      -6.701  20.855  67.686  1.00  0.00    -0.404 A  
HETATM   14  C   UNL     1      -6.266  18.589  69.268  1.00  0.00    -0.267 A  
HETATM   15  O   UNL     1     -11.090  18.767  67.470  1.00  0.00    -0.326 OA 
HETATM   16  C   UNL     1      -7.619  15.306  69.629  1.00  0.00    -0.176 A  
HETATM   17  C   UNL     1      -6.341  13.349  69.032  1.00  0.00    -0.097 A  
HETATM   18  C   UNL     1      -5.842  20.930  68.772  1.00  0.00    -0.358 A  
HETATM   19  C   UNL     1      -7.142  14.028  69.938  1.00  0.00     0.232 A  
ENDROOT
BRANCH   6  20
HETATM   20  O   UNL     1     -10.429  16.467  68.312  1.00  0.00    -0.273 OA 
BRANCH  20  21
HETATM   21  C   UNL     1     -11.026  15.791  69.348  1.00  0.00    -0.296 A  
HETATM   22  C   UNL     1     -12.003  16.355  72.822  1.00  0.00    -0.585 C  
HETATM   23  N   UNL     1     -11.279  16.427  70.499  1.00  0.00    -0.318 NA 
HETATM   24  C   UNL     1     -12.051  14.333  71.353  1.00  0.00    -0.354 A  
HETATM   25  C   UNL     1     -11.778  15.679  71.502  1.00  0.00    -0.433 A  
HETATM   26  C   UNL     1     -11.790  13.781  70.114  1.00  0.00    -0.290 A  
HETATM   27  C   UNL     1     -12.034  12.325  69.854  1.00  0.00    -0.377 C  
HETATM   28  N   UNL     1     -11.279  14.503  69.095  1.00  0.00    -0.257 NA 
ENDBRANCH  20  21
ENDBRANCH   6  20
TORSDOF 2
ENDMDL
