MODEL       71
REMARK 921   NORMALIZED FREE ENERGY PREDICTED BY IDOCK:   -4.49 KCAL/MOL
REMARK 922        TOTAL FREE ENERGY PREDICTED BY IDOCK:   -8.84 KCAL/MOL
REMARK 923 INTER-LIGAND FREE ENERGY PREDICTED BY IDOCK:   -7.64 KCAL/MOL
REMARK 924 INTRA-LIGAND FREE ENERGY PREDICTED BY IDOCK:   -1.19 KCAL/MOL
REMARK 927      BINDING AFFINITY PREDICTED BY RF-SCORE:    0.00 PKD
ROOT
HETATM    1  C   UNK A   0      -6.486  10.970  70.190  1.00  0.00    -0.128 C  
HETATM    2  O   UNK A   0      -7.342   9.955  70.744  1.00  0.00    -0.312 OA 
HETATM    3  C   UNK A   0      -5.275  11.132  71.082  1.00  0.00    -0.098 C  
HETATM    4  H   UNK A   0      -8.103   9.854  70.184  1.00  0.00     0.000 HD 
ENDROOT
BRANCH   1   5
HETATM    5  C   UNK A   0      -6.060  10.484  68.816  1.00  0.00    -0.040 C  
HETATM    6  O   UNK A   0      -5.402   9.302  68.855  1.00  0.00    -0.037 OA 
HETATM    7  H   UNK A   0      -5.135   8.997  67.995  1.00  0.00     0.000 HD 
BRANCH   5   8
HETATM    8  N   UNK A   0      -6.346  11.109  67.722  1.00  0.00    -0.054 NA 
HETATM    9  H   UNK A   0      -5.793  10.949  66.880  1.00  0.00     0.000 HD 
BRANCH   8  10
HETATM   10  C   UNK A   0      -7.441  12.026  67.700  1.00  0.00    -0.132 A  
HETATM   11  C   UNK A   0      -7.259  13.415  67.897  1.00  0.00    -0.133 A  
HETATM   12  I   UNK A   0      -5.205  14.153  68.123  1.00  0.00    -0.044 I  
HETATM   13  C   UNK A   0      -8.345  14.309  67.788  1.00  0.00    -0.174 A  
HETATM   14  I   UNK A   0      -9.000   9.404  67.294  1.00  0.00    -0.158 I  
HETATM   15  C   UNK A   0      -9.556  13.828  67.211  1.00  0.00    -0.237 A  
HETATM   16  I   UNK A   0     -10.859  15.326  66.297  1.00  0.00    -0.217 I  
HETATM   17  C   UNK A   0      -8.731  11.551  67.312  1.00  0.00    -0.151 A  
HETATM   18  C   UNK A   0      -9.779  12.439  66.973  1.00  0.00    -0.211 A  
BRANCH  13  19
HETATM   19  C   UNK A   0      -8.311  15.696  68.352  1.00  0.00    -0.162 C  
HETATM   20  O   UNK A   0      -8.833  15.867  69.574  1.00  0.00    -0.242 OA 
HETATM   21  H   UNK A   0      -8.811  16.747  69.932  1.00  0.00     0.000 HD 
BRANCH  19  22
ATOM     22  N   SER A   1      -7.800  16.694  67.721  1.00  0.00    -0.162 NA 
ATOM     23  H   SER A   1      -7.096  16.555  66.996  1.00  0.00     0.000 HD 
BRANCH  22  24
ATOM     24  CA  SER A   1      -8.268  18.061  68.084  1.00  0.00    -0.271 C  
BRANCH  24  25
ATOM     25  C   SER A   1      -8.787  18.719  66.792  1.00  0.00    -0.305 C  
ATOM     26  H   SER A   1      -8.102  19.087  64.984  1.00  0.00     0.000 HD 
ATOM     27  O   SER A   1      -7.782  18.681  65.781  1.00  0.00    -0.491 OA 
ENDBRANCH  24  25
BRANCH  24  28
ATOM     28  CB  SER A   1      -7.139  18.945  68.654  1.00  0.00    -0.297 C  
ATOM     29  OG  SER A   1      -7.119  20.275  68.137  1.00  0.00    -0.293 OA 
ATOM     30  HG  SER A   1      -6.424  20.819  68.488  1.00  0.00     0.000 HD 
ENDBRANCH  24  28
ENDBRANCH  22  24
ENDBRANCH  19  22
ENDBRANCH  13  19
BRANCH  18  31
HETATM   31  C   UNK A   0     -11.059  11.966  66.328  1.00  0.00    -0.314 C  
HETATM   32  H   UNK A   0     -12.961  11.741  66.701  1.00  0.00     0.000 HD 
HETATM   33  O   UNK A   0     -12.155  12.039  67.107  1.00  0.00    -0.587 OA 
BRANCH  31  34
ATOM     34  N   SER A   1     -11.139  11.463  65.144  1.00  0.00    -0.188 NA 
ATOM     35  H   SER A   1     -11.454  10.504  64.996  1.00  0.00     0.000 HD 
BRANCH  34  36
ATOM     36  CA  SER A   1     -10.752  12.340  63.998  1.00  0.00    -0.396 C  
BRANCH  36  37
ATOM     37  CB  SER A   1      -9.979  11.486  62.989  1.00  0.00    -0.322 C  
ATOM     38  HG  SER A   1      -8.536  10.145  63.037  1.00  0.00     0.000 HD 
ATOM     39  OG  SER A   1      -9.016  10.675  63.662  1.00  0.00    -0.186 OA 
ENDBRANCH  36  37
BRANCH  36  40
ATOM     40  C   SER A   1     -12.023  12.917  63.346  1.00  0.00    -0.537 C  
ATOM     41  H   SER A   1     -13.912  12.390  63.136  1.00  0.00     0.000 HD 
ATOM     42  O   SER A   1     -13.128  12.034  63.537  1.00  0.00    -0.764 OA 
ENDBRANCH  36  40
ENDBRANCH  34  36
ENDBRANCH  31  34
ENDBRANCH  18  31
ENDBRANCH   8  10
ENDBRANCH   5   8
ENDBRANCH   1   5
TORSDOF 13
ENDMDL
