MODEL        4
REMARK 921   NORMALIZED FREE ENERGY PREDICTED BY IDOCK:   -6.24 KCAL/MOL
REMARK 922        TOTAL FREE ENERGY PREDICTED BY IDOCK:  -10.70 KCAL/MOL
REMARK 923 INTER-LIGAND FREE ENERGY PREDICTED BY IDOCK:   -9.58 KCAL/MOL
REMARK 924 INTRA-LIGAND FREE ENERGY PREDICTED BY IDOCK:   -1.12 KCAL/MOL
REMARK 927      BINDING AFFINITY PREDICTED BY RF-SCORE:    0.00 PKD
ROOT
HETATM    1  C   UNL     1     -10.435  16.629  65.336  1.00  0.00    -0.233 C  
ENDROOT
BRANCH   1   2
HETATM    2  N   UNL     1     -10.526  15.348  65.439  1.00  0.00    -0.372 NA 
HETATM    3  H   UNL     1      -9.798  14.737  65.067  1.00  0.00     0.000 HD 
BRANCH   2   4
HETATM    4  C   UNL     1     -11.709  14.797  66.110  1.00  0.00    -0.255 C  
HETATM    5  C   UNL     1     -10.934  12.715  68.657  1.00  0.00    -0.256 C  
HETATM    6  O   UNL     1     -11.663  15.646  68.546  1.00  0.00    -0.371 OA 
HETATM    7  C   UNL     1     -11.761  14.821  67.666  1.00  0.00    -0.341 C  
HETATM    8  C   UNL     1     -11.588  13.254  66.301  1.00  0.00    -0.346 C  
HETATM    9  C   UNL     1      -9.539  12.675  67.981  1.00  0.00    -0.213 C  
HETATM   10  N   UNL     1     -11.817  13.453  67.745  1.00  0.00    -0.358 N  
HETATM   11  S   UNL     1      -9.903  12.495  66.177  1.00  0.00    -0.253 SA 
HETATM   12  C   UNL     1      -8.740  13.972  68.215  1.00  0.00    -0.182 C  
HETATM   13  C   UNL     1      -8.621  11.516  68.403  1.00  0.00    -0.159 C  
BRANCH   5  14
HETATM   14  C   UNL     1     -11.481  11.308  68.976  1.00  0.00    -0.302 C  
HETATM   15  O   UNL     1     -12.031  10.597  68.141  1.00  0.00    -0.460 OA 
BRANCH  14  16
HETATM   16  O   UNL     1     -11.333  10.971  70.284  1.00  0.00    -0.284 OA 
BRANCH  16  17
HETATM   17  C   UNL     1     -12.544  10.664  70.982  1.00  0.00    -0.416 C  
BRANCH  17  18
HETATM   18  O   UNL     1     -12.324   9.706  72.021  1.00  0.00    -0.361 OA 
BRANCH  18  19
HETATM   19  C   UNL     1     -12.626   8.422  71.686  1.00  0.00    -0.332 C  
HETATM   20  O   UNL     1     -13.763   8.001  71.517  1.00  0.00    -0.343 OA 
BRANCH  19  21
HETATM   21  C   UNL     1     -11.358   7.572  71.554  1.00  0.00    -0.283 C  
HETATM   22  C   UNL     1     -10.947   7.473  70.078  1.00  0.00    -0.252 C  
HETATM   23  C   UNL     1     -11.611   6.171  72.127  1.00  0.00    -0.369 C  
HETATM   24  C   UNL     1     -10.219   8.235  72.345  1.00  0.00    -0.397 C  
ENDBRANCH  19  21
ENDBRANCH  18  19
ENDBRANCH  17  18
ENDBRANCH  16  17
ENDBRANCH  14  16
ENDBRANCH   5  14
ENDBRANCH   2   4
ENDBRANCH   1   2
BRANCH   1  25
HETATM   25  N   UNL     1      -9.899  17.441  66.308  1.00  0.00    -0.365 NA 
HETATM   26  C   UNL     1      -8.503  17.326  66.717  1.00  0.00    -0.247 C  
HETATM   27  C   UNL     1     -10.639  18.608  66.793  1.00  0.00    -0.371 C  
HETATM   28  C   UNL     1     -10.073  19.921  66.246  1.00  0.00    -0.613 C  
HETATM   29  C   UNL     1      -7.623  18.211  65.836  1.00  0.00    -0.166 C  
HETATM   30  C   UNL     1      -8.753  20.311  66.908  1.00  0.00    -0.385 C  
HETATM   31  C   UNL     1      -7.506  19.662  66.306  1.00  0.00    -0.300 C  
ENDBRANCH   1  25
TORSDOF 9
ENDMDL
