MODEL        7
REMARK 921   NORMALIZED FREE ENERGY PREDICTED BY IDOCK:   -5.83 KCAL/MOL
REMARK 922        TOTAL FREE ENERGY PREDICTED BY IDOCK:  -10.14 KCAL/MOL
REMARK 923 INTER-LIGAND FREE ENERGY PREDICTED BY IDOCK:   -9.23 KCAL/MOL
REMARK 924 INTRA-LIGAND FREE ENERGY PREDICTED BY IDOCK:   -0.91 KCAL/MOL
REMARK 927      BINDING AFFINITY PREDICTED BY RF-SCORE:    0.00 PKD
ROOT
HETATM    1  C   UNL     1      -8.589  12.878  68.256  1.00  0.00    -0.170 C  
HETATM    2  C   UNL     1      -9.828  13.662  67.861  1.00  0.00    -0.237 C  
HETATM    3  C   UNL     1      -9.791  14.826  67.149  1.00  0.00    -0.232 C  
ENDROOT
BRANCH   2   4
HETATM    4  N   UNL     1     -11.012  13.003  68.208  1.00  0.00    -0.248 N  
HETATM    5  C   UNL     1     -11.196  11.667  67.882  1.00  0.00    -0.269 C  
HETATM    6  O   UNL     1     -12.212  11.020  68.123  1.00  0.00    -0.578 OA 
BRANCH   4   7
HETATM    7  C   UNL     1     -12.158  13.760  68.735  1.00  0.00    -0.309 C  
BRANCH   7   8
HETATM    8  C   UNL     1     -12.039  14.291  70.145  1.00  0.00    -0.403 A  
HETATM    9  H2  UNL     1     -13.137  11.900  70.521  1.00  0.00     0.000 HD 
HETATM   10  H1  UNL     1     -13.497  11.958  72.221  1.00  0.00     0.000 HD 
HETATM   11  N   UNL     1     -13.114  12.422  71.397  1.00  0.00    -0.290 NA 
HETATM   12  C   UNL     1     -12.602  13.608  71.356  1.00  0.00    -0.328 A  
HETATM   13  C   UNL     1     -11.649  15.566  70.390  1.00  0.00    -0.337 A  
HETATM   14  N   UNL     1     -11.764  16.285  71.570  1.00  0.00    -0.460 NA 
HETATM   15  C   UNL     1     -12.597  16.406  73.855  1.00  0.00    -0.550 C  
HETATM   16  N   UNL     1     -12.606  14.327  72.517  1.00  0.00    -0.268 NA 
HETATM   17  C   UNL     1     -12.269  15.646  72.588  1.00  0.00    -0.439 A  
ENDBRANCH   7   8
ENDBRANCH   4   7
ENDBRANCH   2   4
BRANCH   3  18
HETATM   18  C   UNL     1     -11.007  15.462  66.467  1.00  0.00    -0.271 C  
BRANCH  18  19
HETATM   19  C   UNL     1     -11.003  15.397  64.926  1.00  0.00    -0.437 C  
HETATM   20  H   UNL     1     -11.176  16.654  63.416  1.00  0.00     0.000 HD 
HETATM   21  O   UNL     1     -11.178  16.694  64.365  1.00  0.00    -1.033 OA 
ENDBRANCH  18  19
ENDBRANCH   3  18
BRANCH   3  22
HETATM   22  S   UNL     1      -8.227  15.635  66.952  1.00  0.00    -0.261 SA 
BRANCH  22  23
HETATM   23  S   UNL     1      -8.031  16.639  68.734  1.00  0.00    -0.238 SA 
BRANCH  23  24
HETATM   24  C   UNL     1      -9.243  18.010  68.674  1.00  0.00    -0.267 C  
BRANCH  24  25
HETATM   25  C   UNL     1      -8.851  19.308  67.972  1.00  0.00    -0.317 C  
HETATM   26  O   UNL     1      -8.976  19.104  66.545  1.00  0.00    -0.318 OA 
HETATM   27  C   UNL     1      -7.207  20.637  66.949  1.00  0.00    -0.350 C  
HETATM   28  C   UNL     1      -7.989  19.906  65.879  1.00  0.00    -0.276 C  
HETATM   29  C   UNL     1      -7.420  19.776  68.174  1.00  0.00    -0.343 C  
ENDBRANCH  24  25
ENDBRANCH  23  24
ENDBRANCH  22  23
ENDBRANCH   3  22
TORSDOF 9
ENDMDL
