MODEL        3
REMARK 921   NORMALIZED FREE ENERGY PREDICTED BY IDOCK:   -7.99 KCAL/MOL
REMARK 922        TOTAL FREE ENERGY PREDICTED BY IDOCK:  -11.48 KCAL/MOL
REMARK 923 INTER-LIGAND FREE ENERGY PREDICTED BY IDOCK:  -11.02 KCAL/MOL
REMARK 924 INTRA-LIGAND FREE ENERGY PREDICTED BY IDOCK:   -0.46 KCAL/MOL
REMARK 927      BINDING AFFINITY PREDICTED BY RF-SCORE:    0.00 PKD
ROOT
HETATM    1  C   UNL     1     -12.403  11.440  70.600  1.00  0.00    -0.466 C  
HETATM    2  C   UNL     1     -12.032  12.408  69.518  1.00  0.00    -0.324 C  
HETATM    3  C   UNL     1     -11.938  13.747  69.627  1.00  0.00    -0.342 C  
HETATM    4  O   UNL     1     -11.474  14.585  68.632  1.00  0.00    -0.264 OA 
HETATM    5  C   UNL     1     -10.663  14.923  66.405  1.00  0.00    -0.316 A  
HETATM    6  C   UNL     1     -10.468  14.412  65.102  1.00  0.00    -0.437 A  
HETATM    7  C   UNL     1     -11.150  14.071  67.404  1.00  0.00    -0.303 A  
HETATM    8  C   UNL     1     -11.335  12.721  67.113  1.00  0.00    -0.365 A  
HETATM    9  C   UNL     1     -10.720  13.074  64.806  1.00  0.00    -0.370 A  
HETATM   10  O   UNL     1     -11.845  10.607  67.987  1.00  0.00    -0.494 OA 
HETATM   11  C   UNL     1     -11.131  12.221  65.821  1.00  0.00    -0.362 A  
HETATM   12  C   UNL     1     -11.742  11.809  68.193  1.00  0.00    -0.307 C  
ENDROOT
BRANCH   3  13
HETATM   13  C   UNL     1     -12.368  14.485  70.823  1.00  0.00    -0.410 A  
HETATM   14  C   UNL     1     -14.161  15.346  72.225  1.00  0.00    -0.660 A  
HETATM   15  C   UNL     1     -11.862  15.846  72.768  1.00  0.00    -0.583 A  
HETATM   16  C   UNL     1     -11.435  15.112  71.657  1.00  0.00    -0.445 A  
HETATM   17  C   UNL     1     -13.736  14.608  71.117  1.00  0.00    -0.374 A  
HETATM   18  C   UNL     1     -13.223  15.966  73.050  1.00  0.00    -0.648 A  
ENDBRANCH   3  13
BRANCH   5  19
HETATM   19  C   UNL     1     -10.410  16.366  66.695  1.00  0.00    -0.292 C  
HETATM   20  O   UNL     1     -11.011  17.069  67.493  1.00  0.00    -0.258 OA 
BRANCH  19  21
HETATM   21  O   UNL     1      -9.419  16.814  65.880  1.00  0.00    -0.466 OA 
BRANCH  21  22
HETATM   22  C   UNL     1      -8.110  16.462  66.337  1.00  0.00    -0.322 C  
BRANCH  22  23
HETATM   23  C   UNL     1      -7.394  17.745  66.805  1.00  0.00    -0.206 C  
BRANCH  23  24
HETATM   24  N   UNL     1      -8.288  18.861  67.200  1.00  0.00    -0.270 NA 
HETATM   25  C   UNL     1      -8.149  19.262  68.609  1.00  0.00    -0.370 C  
HETATM   26  C   UNL     1      -6.751  19.781  68.930  1.00  0.00    -0.362 C  
HETATM   27  C   UNL     1      -6.337  20.915  67.992  1.00  0.00    -0.381 C  
HETATM   28  C   UNL     1      -6.703  20.674  66.525  1.00  0.00    -0.317 C  
HETATM   29  C   UNL     1      -8.088  20.046  66.353  1.00  0.00    -0.307 C  
ENDBRANCH  23  24
ENDBRANCH  22  23
ENDBRANCH  21  22
ENDBRANCH  19  21
ENDBRANCH   5  19
TORSDOF 6
ENDMDL
