MODEL      273
REMARK 921   NORMALIZED FREE ENERGY PREDICTED BY IDOCK:   -0.22 KCAL/MOL
REMARK 922        TOTAL FREE ENERGY PREDICTED BY IDOCK:   -1.83 KCAL/MOL
REMARK 923 INTER-LIGAND FREE ENERGY PREDICTED BY IDOCK:   -2.47 KCAL/MOL
REMARK 924 INTRA-LIGAND FREE ENERGY PREDICTED BY IDOCK:    0.63 KCAL/MOL
REMARK 927      BINDING AFFINITY PREDICTED BY RF-SCORE:    0.00 PKD
ROOT
HETATM    1  C   UNL     1     -12.008  15.066  66.721  1.00  0.00     0.006 C  
HETATM    2  C   UNL     1     -12.655  13.940  65.893  1.00  0.00    -0.498 C  
HETATM    3  C   UNL     1     -11.692  13.523  64.763  1.00  0.00    -0.370 C  
HETATM    4  N   UNL     1     -10.346  14.149  64.916  1.00  0.00    -0.428 NA 
HETATM    5  C   UNL     1      -9.833  13.813  66.283  1.00  0.00    -0.303 C  
HETATM    6  C   UNL     1     -10.535  15.611  64.760  1.00  0.00    -0.073 C  
HETATM    7  C   UNL     1     -10.767  14.440  67.364  1.00  0.00    -0.280 C  
HETATM    8  C   UNL     1     -11.593  16.193  65.738  1.00  0.00     0.660 C  
ENDROOT
BRANCH   5   9
HETATM    9  C   UNL     1      -8.349  14.110  66.736  1.00  0.00     0.086 C  
HETATM   10  O   UNL     1      -8.350  15.537  66.999  1.00  0.00    -0.193 OA 
HETATM   11  H   UNL     1      -7.457  15.716  67.272  1.00  0.00     0.000 HD 
BRANCH   9  12
HETATM   12  C   UNL     1      -7.667  13.428  67.915  1.00  0.00    -0.153 A  
HETATM   13  C   UNL     1      -7.614  12.042  68.021  1.00  0.00    -0.120 A  
HETATM   14  C   UNL     1      -7.022  14.212  68.941  1.00  0.00    -0.109 A  
HETATM   15  C   UNL     1      -6.939  11.477  69.092  1.00  0.00    -0.113 A  
HETATM   16  C   UNL     1      -7.008  15.638  68.989  1.00  0.00    -0.145 A  
HETATM   17  C   UNL     1      -6.381  16.355  70.016  1.00  0.00    -0.038 A  
HETATM   18  N   UNL     1      -6.320  12.189  70.057  1.00  0.00    -0.093 NA 
HETATM   19  C   UNL     1      -5.723  15.651  71.010  1.00  0.00     0.168 A  
HETATM   20  C   UNL     1      -5.721  14.255  70.981  1.00  0.00    -0.203 A  
HETATM   21  C   UNL     1      -6.362  13.529  69.979  1.00  0.00    -0.045 A  
BRANCH  17  22
HETATM   22  O   UNL     1      -6.500  17.715  69.919  1.00  0.00    -0.147 OA 
HETATM   23  C   UNL     1      -5.309  18.450  69.658  1.00  0.00    -0.201 C  
ENDBRANCH  17  22
ENDBRANCH   9  12
ENDBRANCH   5   9
BRANCH   8  24
HETATM   24  C   UNL     1     -11.104  17.520  66.279  1.00  0.00     0.496 C  
HETATM   25  C   UNL     1     -10.627  17.815  67.494  1.00  0.00    -0.365 C  
ENDBRANCH   8  24
TORSDOF 4
ENDMDL
