MODEL       32
REMARK 921   NORMALIZED FREE ENERGY PREDICTED BY IDOCK:   -5.89 KCAL/MOL
REMARK 922        TOTAL FREE ENERGY PREDICTED BY IDOCK:  -15.18 KCAL/MOL
REMARK 923 INTER-LIGAND FREE ENERGY PREDICTED BY IDOCK:  -12.91 KCAL/MOL
REMARK 924 INTRA-LIGAND FREE ENERGY PREDICTED BY IDOCK:   -2.27 KCAL/MOL
REMARK 927      BINDING AFFINITY PREDICTED BY RF-SCORE:    0.00 PKD
ROOT
HETATM    1  O   UNL     1     -13.681   7.509  72.168  1.00  0.00    -0.512 OA 
HETATM    2  C   UNL     1     -12.642   8.376  71.804  1.00  0.00    -0.342 C  
HETATM    3  H   UNL     1     -14.518   7.909  71.964  1.00  0.00     0.000 HD 
ENDROOT
BRANCH   2   4
HETATM    4  C   UNL     1     -11.287   7.728  72.135  1.00  0.00    -0.302 C  
HETATM    5  O   UNL     1     -11.432   6.897  73.260  1.00  0.00    -0.506 OA 
HETATM    6  H   UNL     1     -10.595   6.496  73.464  1.00  0.00     0.000 HD 
BRANCH   4   7
HETATM    7  C   UNL     1     -10.747   6.894  70.943  1.00  0.00    -0.230 C  
HETATM    8  H   UNL     1     -11.423   6.240  69.241  1.00  0.00     0.000 HD 
HETATM    9  O   UNL     1     -11.754   6.750  69.971  1.00  0.00    -0.337 OA 
BRANCH   7  10
HETATM   10  C   UNL     1      -9.504   7.555  70.289  1.00  0.00    -0.165 C  
HETATM   11  H   UNL     1      -7.587   7.431  70.493  1.00  0.00     0.000 HD 
HETATM   12  O   UNL     1      -8.348   7.027  70.894  1.00  0.00    -0.126 OA 
BRANCH  10  13
HETATM   13  C   UNL     1      -9.481   9.102  70.428  1.00  0.00    -0.227 C  
HETATM   14  H   UNL     1      -8.332  10.441  71.240  1.00  0.00     0.000 HD 
HETATM   15  O   UNL     1      -8.346   9.495  71.156  1.00  0.00    -0.285 OA 
BRANCH  13  16
HETATM   16  C   UNL     1      -9.454   9.824  69.101  1.00  0.00    -0.188 C  
HETATM   17  O   UNL     1      -8.739  10.803  68.959  1.00  0.00    -0.161 OA 
BRANCH  16  18
HETATM   18  O   UNL     1     -10.216   9.411  68.068  1.00  0.00    -0.182 OA 
BRANCH  18  19
HETATM   19 CA   UNL     1     -10.488  10.862  66.151  1.00  0.00    -0.205 Ca 
BRANCH  19  20
HETATM   20  O   UNL     1     -10.761  12.314  64.234  1.00  0.00    -0.301 OA 
BRANCH  20  21
HETATM   21  C   UNL     1     -12.002  12.830  64.256  1.00  0.00    -0.405 C  
HETATM   22  O   UNL     1     -12.877  12.238  63.648  1.00  0.00    -0.753 OA 
BRANCH  21  23
HETATM   23  C   UNL     1     -12.290  14.187  64.859  1.00  0.00    -0.430 C  
HETATM   24  H   UNL     1     -12.926  15.892  64.215  1.00  0.00     0.000 HD 
HETATM   25  O   UNL     1     -12.744  15.040  63.836  1.00  0.00    -0.775 OA 
BRANCH  23  26
HETATM   26  C   UNL     1     -11.076  14.852  65.574  1.00  0.00    -0.352 C  
HETATM   27  H   UNL     1      -9.950  16.407  65.301  1.00  0.00     0.000 HD 
HETATM   28  O   UNL     1     -10.690  16.001  64.865  1.00  0.00    -0.576 OA 
BRANCH  26  29
HETATM   29  C   UNL     1     -11.239  15.202  67.094  1.00  0.00    -0.320 C  
BRANCH  29  30
HETATM   30  O   UNL     1      -9.926  15.296  67.628  1.00  0.00    -0.221 OA 
BRANCH  30  31
HETATM   31  C   UNL     1      -9.595  16.528  68.235  1.00  0.00    -0.223 C  
HETATM   32  O   UNL     1     -10.027  17.605  67.420  1.00  0.00    -0.299 OA 
HETATM   33  C   UNL     1      -9.715  18.850  68.026  1.00  0.00    -0.337 C  
HETATM   34  H   UNL     1      -6.649  15.508  69.261  1.00  0.00     0.000 HD 
HETATM   35  C   UNL     1      -8.177  19.040  68.092  1.00  0.00    -0.314 C  
HETATM   36  O   UNL     1      -7.619  18.997  66.801  1.00  0.00    -0.222 OA 
HETATM   37  C   UNL     1      -7.586  17.905  68.953  1.00  0.00    -0.217 C  
HETATM   38  O   UNL     1      -7.594  15.490  69.173  1.00  0.00    -0.169 OA 
HETATM   39  H   UNL     1      -6.677  19.113  66.842  1.00  0.00     0.000 HD 
HETATM   40  O   UNL     1      -6.180  17.942  68.967  1.00  0.00    -0.203 OA 
HETATM   41  C   UNL     1      -8.053  16.557  68.379  1.00  0.00    -0.196 C  
HETATM   42  H   UNL     1      -5.816  17.244  69.498  1.00  0.00     0.000 HD 
BRANCH  33  43
HETATM   43  C   UNL     1     -10.402  19.958  67.212  1.00  0.00    -0.437 C  
HETATM   44  O   UNL     1      -9.495  20.969  66.861  1.00  0.00    -0.672 OA 
HETATM   45  H   UNL     1      -9.919  21.653  66.358  1.00  0.00     0.000 HD 
ENDBRANCH  33  43
ENDBRANCH  30  31
ENDBRANCH  29  30
BRANCH  29  46
HETATM   46  C   UNL     1     -12.147  14.232  67.928  1.00  0.00    -0.261 C  
HETATM   47  O   UNL     1     -12.618  14.861  69.097  1.00  0.00    -0.572 OA 
HETATM   48  H   UNL     1     -13.168  14.274  69.602  1.00  0.00     0.000 HD 
BRANCH  46  49
HETATM   49  C   UNL     1     -11.529  12.845  68.219  1.00  0.00    -0.311 C  
HETATM   50  H   UNL     1     -11.732  11.006  67.586  1.00  0.00     0.000 HD 
HETATM   51  O   UNL     1     -12.111  11.859  67.407  1.00  0.00    -0.577 OA 
ENDBRANCH  46  49
ENDBRANCH  29  46
ENDBRANCH  26  29
ENDBRANCH  23  26
ENDBRANCH  21  23
ENDBRANCH  20  21
ENDBRANCH  19  20
ENDBRANCH  18  19
ENDBRANCH  16  18
ENDBRANCH  13  16
ENDBRANCH  10  13
ENDBRANCH   7  10
ENDBRANCH   4   7
ENDBRANCH   2   4
TORSDOF 17
ENDMDL
