MODEL        3
REMARK 921   NORMALIZED FREE ENERGY PREDICTED BY IDOCK:   -6.36 KCAL/MOL
REMARK 922        TOTAL FREE ENERGY PREDICTED BY IDOCK:  -17.67 KCAL/MOL
REMARK 923 INTER-LIGAND FREE ENERGY PREDICTED BY IDOCK:  -14.42 KCAL/MOL
REMARK 924 INTRA-LIGAND FREE ENERGY PREDICTED BY IDOCK:   -3.25 KCAL/MOL
REMARK 927      BINDING AFFINITY PREDICTED BY RF-SCORE:    0.00 PKD
ROOT
HETATM    1  C   UNL     1     -10.776   7.312  67.121  1.00  0.00    -0.413 C  
HETATM    2  C   UNL     1      -9.950   7.477  68.391  1.00  0.00    -0.185 C  
HETATM    3  C   UNL     1     -10.274   8.746  69.217  1.00  0.00    -0.210 C  
HETATM    4  C   UNL     1     -10.023   6.186  69.214  1.00  0.00    -0.196 C  
ENDROOT
BRANCH   3   5
HETATM    5  N   UNL     1     -11.633   8.846  69.773  1.00  0.00    -0.401 N  
HETATM    6  H   UNL     1     -12.425   8.734  69.141  1.00  0.00     0.000 HD 
BRANCH   5   7
HETATM    7  C   UNL     1     -11.885   9.080  71.097  1.00  0.00    -0.301 C  
HETATM    8  O   UNL     1     -11.811  10.208  71.579  1.00  0.00    -0.362 OA 
BRANCH   7   9
HETATM    9  N   UNL     1     -12.150   7.977  71.883  1.00  0.00    -0.301 N  
HETATM   10  C   UNL     1     -13.142   6.941  71.644  1.00  0.00    -0.279 C  
BRANCH   9  11
HETATM   11  C   UNL     1     -11.314   7.784  73.076  1.00  0.00    -0.273 C  
BRANCH  11  12
HETATM   12  C   UNL     1     -10.014   7.104  72.738  1.00  0.00    -0.185 A  
HETATM   13  C   UNL     1      -8.802   7.732  72.512  1.00  0.00    -0.150 A  
HETATM   14  N   UNL     1      -9.945   5.707  72.704  1.00  0.00    -0.172 NA 
HETATM   15  S   UNL     1      -7.564   6.581  72.262  1.00  0.00    -0.096 SA 
HETATM   16  C   UNL     1      -8.884   3.125  71.273  1.00  0.00    -0.137 C  
HETATM   17  C   UNL     1      -8.707   5.311  72.485  1.00  0.00    -0.120 A  
HETATM   18  C   UNL     1      -8.250   3.870  72.447  1.00  0.00    -0.093 C  
HETATM   19  C   UNL     1      -8.573   3.166  73.766  1.00  0.00    -0.074 C  
ENDBRANCH  11  12
ENDBRANCH   9  11
ENDBRANCH   7   9
ENDBRANCH   5   7
ENDBRANCH   3   5
BRANCH   3  20
HETATM   20  C   UNL     1      -9.755  10.048  68.528  1.00  0.00    -0.155 C  
HETATM   21  O   UNL     1      -8.680  10.122  67.936  1.00  0.00    -0.121 OA 
HETATM   22  N   UNL     1     -10.581  11.144  68.683  1.00  0.00    -0.183 N  
HETATM   23  H   UNL     1     -11.395  11.065  69.292  1.00  0.00     0.000 HD 
BRANCH  22  24
HETATM   24  C   UNL     1     -10.329  12.412  68.003  1.00  0.00    -0.216 C  
BRANCH  24  25
HETATM   25  C   UNL     1      -9.838  13.535  68.941  1.00  0.00     0.048 C  
BRANCH  25  26
HETATM   26  C   UNL     1      -9.611  14.940  68.366  1.00  0.00    -0.209 C  
HETATM   27  H   UNL     1      -8.100  16.166  68.244  1.00  0.00     0.000 HD 
HETATM   28  O   UNL     1      -8.240  15.297  68.599  1.00  0.00    -0.141 OA 
BRANCH  26  29
HETATM   29  C   UNL     1     -10.543  16.071  68.897  1.00  0.00    -0.257 C  
BRANCH  29  30
HETATM   30  N   UNL     1     -10.581  17.243  68.022  1.00  0.00    -0.384 N  
HETATM   31  C   UNL     1     -10.533  17.110  66.661  1.00  0.00    -0.259 C  
HETATM   32  H   UNL     1     -10.644  18.175  68.434  1.00  0.00     0.000 HD 
HETATM   33  O   UNL     1     -10.907  16.124  66.057  1.00  0.00    -0.264 OA 
BRANCH  31  34
HETATM   34  O   UNL     1      -9.968  18.203  66.104  1.00  0.00    -0.440 OA 
BRANCH  34  35
HETATM   35  C   UNL     1      -9.505  19.214  67.023  1.00  0.00    -0.316 C  
BRANCH  35  36
HETATM   36  C   UNL     1      -8.070  19.551  66.789  1.00  0.00    -0.292 A  
HETATM   37  N   UNL     1      -6.058  20.753  66.813  1.00  0.00    -0.208 NA 
HETATM   38  C   UNL     1      -7.403  20.716  67.121  1.00  0.00    -0.337 A  
HETATM   39  C   UNL     1      -5.717  19.619  66.241  1.00  0.00    -0.169 A  
HETATM   40  S   UNL     1      -6.958  18.443  66.099  1.00  0.00    -0.282 SA 
ENDBRANCH  35  36
ENDBRANCH  34  35
ENDBRANCH  31  34
ENDBRANCH  29  30
BRANCH  29  41
HETATM   41  C   UNL     1     -11.985  15.559  69.225  1.00  0.00    -0.338 C  
BRANCH  41  42
HETATM   42  C   UNL     1     -12.359  15.432  70.687  1.00  0.00    -0.451 A  
HETATM   43  C   UNL     1     -13.616  14.336  72.465  1.00  0.00    -0.620 A  
HETATM   44  C   UNL     1     -13.374  14.567  71.115  1.00  0.00    -0.415 A  
HETATM   45  C   UNL     1     -11.665  16.156  71.661  1.00  0.00    -0.558 A  
HETATM   46  C   UNL     1     -11.921  15.946  73.022  1.00  0.00    -0.596 A  
HETATM   47  C   UNL     1     -12.884  15.021  73.423  1.00  0.00    -0.652 A  
ENDBRANCH  41  42
ENDBRANCH  29  41
ENDBRANCH  26  29
ENDBRANCH  25  26
ENDBRANCH  24  25
BRANCH  24  48
HETATM   48  C   UNL     1     -11.562  12.795  67.158  1.00  0.00    -0.426 C  
BRANCH  48  49
HETATM   49  C   UNL     1     -11.475  12.464  65.687  1.00  0.00    -0.412 A  
HETATM   50  C   UNL     1     -12.315  12.726  63.422  1.00  0.00    -0.531 A  
HETATM   51  C   UNL     1     -12.369  13.045  64.779  1.00  0.00    -0.490 A  
HETATM   52  C   UNL     1     -11.370  11.815  62.958  1.00  0.00    -0.008 A  
HETATM   53  C   UNL     1     -10.478  11.224  63.851  1.00  0.00    -0.452 A  
HETATM   54  C   UNL     1     -10.534  11.539  65.210  1.00  0.00    -0.336 A  
ENDBRANCH  48  49
ENDBRANCH  24  48
ENDBRANCH  22  24
ENDBRANCH   3  20
TORSDOF 18
ENDMDL
