MODEL      165
REMARK 921   NORMALIZED FREE ENERGY PREDICTED BY IDOCK:   -0.89 KCAL/MOL
REMARK 922        TOTAL FREE ENERGY PREDICTED BY IDOCK:   -1.21 KCAL/MOL
REMARK 923 INTER-LIGAND FREE ENERGY PREDICTED BY IDOCK:   -1.86 KCAL/MOL
REMARK 924 INTRA-LIGAND FREE ENERGY PREDICTED BY IDOCK:    0.65 KCAL/MOL
REMARK 927      BINDING AFFINITY PREDICTED BY RF-SCORE:    0.00 PKD
ROOT
HETATM    1  C   UNL     1     -11.651  17.064  65.214  1.00  0.00     1.169 C  
HETATM    2  C   UNL     1     -10.324  16.413  65.583  1.00  0.00    -0.350 C  
HETATM    3  C   UNL     1      -9.678  17.152  66.757  1.00  0.00    -0.277 C  
ENDROOT
BRANCH   2   4
HETATM    4  N   UNL     1     -10.529  15.022  65.946  1.00  0.00    -0.309 NA 
HETATM    5  C   UNL     1     -11.707  14.355  66.029  1.00  0.00    -0.375 C  
HETATM    6  H   UNL     1      -9.690  14.484  66.164  1.00  0.00     0.000 HD 
HETATM    7  N   UNL     1     -12.846  14.894  66.293  1.00  0.00     0.179 NA 
HETATM    8  N   UNL     1     -11.632  13.009  65.817  1.00  0.00    -0.339 NA 
HETATM    9  H1  UNL     1     -13.732  14.392  66.356  1.00  0.00     0.000 HD 
HETATM   10  H2  UNL     1     -12.863  15.902  66.453  1.00  0.00     0.000 HD 
HETATM   11  C   UNL     1     -10.712  12.222  65.188  1.00  0.00    -0.293 C  
HETATM   12  H   UNL     1     -12.419  12.488  66.204  1.00  0.00     0.000 HD 
HETATM   13  N   UNL     1     -10.773  10.887  65.502  1.00  0.00    -0.167 NA 
HETATM   14  N   UNL     1      -9.817  12.709  64.378  1.00  0.00    -0.570 NA 
HETATM   15  H1  UNL     1      -9.128  12.120  63.908  1.00  0.00     0.000 HD 
HETATM   16  H2  UNL     1      -9.802  13.715  64.208  1.00  0.00     0.000 HD 
HETATM   17  H   UNL     1     -11.672  10.449  65.705  1.00  0.00     0.000 HD 
BRANCH  13  18
HETATM   18  C   UNL     1      -9.580  10.119  65.543  1.00  0.00    -0.250 A  
HETATM   19  C   UNL     1      -9.358   9.075  64.631  1.00  0.00     0.217 A  
HETATM   20  C   UNL     1      -8.219   8.275  64.718  1.00  0.00    -0.147 A  
HETATM   21  C   UNL     1      -7.273   8.540  65.699  1.00  0.00    -0.079 A  
HETATM   22  C   UNL     1      -7.435   9.625  66.563  1.00  0.00    -0.094 A  
HETATM   23 CL   UNL     1      -5.904   7.509  65.858  1.00  0.00    -0.037 Cl 
HETATM   24  C   UNL     1      -8.581  10.428  66.470  1.00  0.00    -0.134 A  
ENDBRANCH  13  18
ENDBRANCH   2   4
TORSDOF 2
ENDMDL
