MODEL       18
REMARK 921   NORMALIZED FREE ENERGY PREDICTED BY IDOCK:   -6.21 KCAL/MOL
REMARK 922        TOTAL FREE ENERGY PREDICTED BY IDOCK:  -10.79 KCAL/MOL
REMARK 923 INTER-LIGAND FREE ENERGY PREDICTED BY IDOCK:   -9.38 KCAL/MOL
REMARK 924 INTRA-LIGAND FREE ENERGY PREDICTED BY IDOCK:   -1.41 KCAL/MOL
REMARK 927      BINDING AFFINITY PREDICTED BY RF-SCORE:    0.00 PKD
ROOT
HETATM    1 MN   UNL     1      -9.940  12.519  65.859  1.00  0.00    -0.220 Mn 
HETATM    2  C   UNL     2     -11.514   6.958  71.022  1.00  0.00    -0.314 C  
HETATM    3  C   UNL     3     -11.210  14.585  64.958  1.00  0.00    -0.382 C  
HETATM    4  H   UNL     3     -11.168  16.069  63.707  1.00  0.00     0.000 HD 
HETATM    5  H   UNL     2     -11.272   7.118  69.131  1.00  0.00     0.000 HD 
HETATM    6  O   UNL     2     -11.347   6.388  69.734  1.00  0.00    -0.384 OA 
HETATM    7  O   UNL     3     -11.830  15.481  64.050  1.00  0.00    -0.467 OA 
ENDROOT
BRANCH   2   8
HETATM    8  C   UNL     2     -11.635   5.773  72.001  1.00  0.00    -0.162 C  
HETATM    9  H   UNL     2     -10.630   4.143  72.505  1.00  0.00     0.000 HD 
HETATM   10  O   UNL     2     -10.556   4.873  71.902  1.00  0.00    -0.191 OA 
ENDBRANCH   2   8
BRANCH   2  11
HETATM   11  C   UNL     2     -12.755   7.936  70.987  1.00  0.00    -0.055 C  
HETATM   12  H   UNL     2     -14.684   7.871  71.402  1.00  0.00     0.000 HD 
HETATM   13  O   UNL     2     -13.938   7.284  71.423  1.00  0.00    -0.398 OA 
BRANCH  11  14
HETATM   14  C   UNL     2     -12.619   9.247  71.828  1.00  0.00    -0.382 C  
HETATM   15  H   UNL     2     -13.389   9.927  73.453  1.00  0.00     0.000 HD 
HETATM   16  O   UNL     2     -13.472   9.131  72.942  1.00  0.00    -0.335 OA 
BRANCH  14  17
HETATM   17  C   UNL     2     -12.971  10.557  71.085  1.00  0.00    -0.411 C  
HETATM   18  C   UNL     2     -11.829  11.015  70.194  1.00  0.00    -0.357 C  
HETATM   19  H   UNL     2     -13.462  12.369  71.567  1.00  0.00     0.000 HD 
HETATM   20  O   UNL     2     -13.246  11.565  72.024  1.00  0.00    -0.509 OA 
HETATM   21  O   UNL     2     -11.971  12.115  69.437  1.00  0.00    -0.303 OA 
HETATM   22  O   UNL     2     -10.794  10.358  70.090  1.00  0.00    -0.283 OA 
ENDBRANCH  14  17
ENDBRANCH  11  14
ENDBRANCH   2  11
BRANCH   3  23
HETATM   23  C   UNL     3     -10.403  15.498  65.966  1.00  0.00    -0.326 C  
HETATM   24  O   UNL     3      -9.088  14.993  65.927  1.00  0.00    -0.477 OA 
HETATM   25  H   UNL     3      -8.604  15.542  66.533  1.00  0.00     0.000 HD 
BRANCH  23  26
HETATM   26  C   UNL     3     -10.252  17.086  66.021  1.00  0.00    -0.325 C  
HETATM   27  O   UNL     3      -8.874  17.306  65.849  1.00  0.00    -0.528 OA 
HETATM   28  H   UNL     3      -8.784  18.251  65.882  1.00  0.00     0.000 HD 
BRANCH  26  29
HETATM   29  C   UNL     3     -10.643  18.045  67.248  1.00  0.00    -0.346 C  
HETATM   30  C   UNL     3      -9.723  19.157  67.669  1.00  0.00    -0.321 C  
HETATM   31  O   UNL     3     -10.876  17.301  68.425  1.00  0.00    -0.354 OA 
HETATM   32  O   UNL     3      -8.510  18.880  68.181  1.00  0.00    -0.289 OA 
HETATM   33  O   UNL     3     -10.136  20.306  67.695  1.00  0.00    -0.404 OA 
HETATM   34  H   UNL     3     -11.107  17.869  69.151  1.00  0.00     0.000 HD 
ENDBRANCH  26  29
ENDBRANCH  23  26
ENDBRANCH   3  23
BRANCH   3  35
HETATM   35  C   UNL     3     -12.303  13.615  65.525  1.00  0.00    -0.482 C  
HETATM   36  O   UNL     3     -12.064  13.263  66.856  1.00  0.00    -0.380 OA 
HETATM   37  H   UNL     3     -12.727  12.675  67.200  1.00  0.00     0.000 HD 
ENDBRANCH   3  35
TORSDOF 8
ENDMDL
