MODEL      189
REMARK 921   NORMALIZED FREE ENERGY PREDICTED BY IDOCK:    3.80 KCAL/MOL
REMARK 922        TOTAL FREE ENERGY PREDICTED BY IDOCK:    3.91 KCAL/MOL
REMARK 923 INTER-LIGAND FREE ENERGY PREDICTED BY IDOCK:    3.35 KCAL/MOL
REMARK 924 INTRA-LIGAND FREE ENERGY PREDICTED BY IDOCK:    0.56 KCAL/MOL
REMARK 927      BINDING AFFINITY PREDICTED BY RF-SCORE:    0.00 PKD
ROOT
HETATM    1  C   UNL     1     -12.967  16.728  67.006  1.00  0.00     5.789 C  
HETATM    2  O   UNL     1     -12.174  15.610  66.615  1.00  0.00     0.692 OA 
ENDROOT
BRANCH   2   3
HETATM    3  C   UNL     1     -10.845  15.666  66.926  1.00  0.00    -0.282 A  
HETATM    4  C   UNL     1     -10.433  15.107  68.141  1.00  0.00    -0.245 A  
HETATM    5  C   UNL     1      -9.094  15.167  68.557  1.00  0.00    -0.191 A  
HETATM    6  S   UNL     1     -11.602  14.255  69.164  1.00  0.00    -0.327 S  
HETATM    7  O   UNL     1     -10.730  13.769  70.439  1.00  0.00     0.688 OA 
HETATM    8  O   UNL     1     -12.024  13.060  68.465  1.00  0.00    -0.323 OA 
HETATM    9  C   UNL     1      -8.141  15.777  67.743  1.00  0.00    -0.156 A  
HETATM   10  O   UNL     1     -12.518  15.226  69.712  1.00  0.00    -0.275 OA 
HETATM   11  H   UNL     1      -7.981  17.466  64.916  1.00  0.00     0.000 HD 
HETATM   12  C   UNL     1      -8.556  16.377  66.549  1.00  0.00    -0.294 A  
HETATM   13  O   UNL     1      -7.699  17.058  65.726  1.00  0.00    -0.357 OA 
HETATM   14  C   UNL     1      -9.891  16.317  66.140  1.00  0.00    -0.358 A  
BRANCH   9  15
HETATM   15  C   UNL     1      -6.713  15.834  68.144  1.00  0.00    -0.122 C  
HETATM   16  O   UNL     1      -5.931  16.413  67.389  1.00  0.00    -0.139 OA 
BRANCH  15  17
HETATM   17  C   UNL     1      -6.195  15.192  69.380  1.00  0.00    -0.116 A  
HETATM   18  C   UNL     1      -6.302  13.800  69.500  1.00  0.00    -0.118 A  
HETATM   19  C   UNL     1      -5.898  13.164  70.675  1.00  0.00    -0.143 A  
HETATM   20  C   UNL     1      -5.383  13.912  71.732  1.00  0.00    -0.218 A  
HETATM   21  C   UNL     1      -5.269  15.298  71.616  1.00  0.00    -0.042 A  
HETATM   22  C   UNL     1      -5.683  15.940  70.449  1.00  0.00    -0.110 A  
ENDBRANCH  15  17
ENDBRANCH   9  15
ENDBRANCH   2   3
TORSDOF 3
ENDMDL
