MODEL        1
REMARK 921   NORMALIZED FREE ENERGY PREDICTED BY IDOCK:   -8.45 KCAL/MOL
REMARK 922        TOTAL FREE ENERGY PREDICTED BY IDOCK:  -10.48 KCAL/MOL
REMARK 923 INTER-LIGAND FREE ENERGY PREDICTED BY IDOCK:   -9.93 KCAL/MOL
REMARK 924 INTRA-LIGAND FREE ENERGY PREDICTED BY IDOCK:   -0.54 KCAL/MOL
REMARK 927      BINDING AFFINITY PREDICTED BY RF-SCORE:    0.00 PKD
ROOT
HETATM    1  C   UNL     1     -10.956  10.074  67.713  1.00  0.00    -0.310 C  
HETATM    2  C   UNL     1     -11.086  11.347  68.583  1.00  0.00    -0.290 C  
HETATM    3  C   UNL     1     -11.460  10.814  70.038  1.00  0.00    -0.412 C  
HETATM    4  C   UNL     1     -12.036  12.492  67.980  1.00  0.00    -0.281 C  
HETATM    5  C   UNL     1     -12.135  13.676  68.955  1.00  0.00    -0.335 C  
HETATM    6  C   UNL     1     -11.538  13.216  66.621  1.00  0.00    -0.403 C  
HETATM    7  C   UNL     1     -11.074  14.681  68.530  1.00  0.00    -0.273 C  
HETATM    8  C   UNL     1     -12.626  13.983  65.799  1.00  0.00    -0.512 C  
HETATM    9  C   UNL     1     -12.002  14.690  64.566  1.00  0.00    -0.473 C  
HETATM   10  C   UNL     1     -10.510  14.259  67.149  1.00  0.00    -0.266 C  
HETATM   11  C   UNL     1     -10.275  15.505  66.290  1.00  0.00    -0.308 C  
HETATM   12  C   UNL     1     -10.996  12.177  65.653  1.00  0.00    -0.337 C  
HETATM   13  C   UNL     1      -9.663  16.639  66.719  1.00  0.00    -0.271 C  
HETATM   14  C   UNL     1     -10.700  15.439  64.848  1.00  0.00    -0.416 C  
ENDROOT
BRANCH   3  15
HETATM   15  C   UNL     1     -10.501   9.663  70.425  1.00  0.00    -0.352 C  
BRANCH  15  16
HETATM   16  C   UNL     1     -10.495   9.046  71.814  1.00  0.00    -0.418 C  
HETATM   17  C   UNL     1     -13.050   8.576  71.693  1.00  0.00    -0.368 C  
HETATM   18  O   UNL     1     -11.632   7.536  73.322  1.00  0.00    -0.609 OA 
HETATM   19  C   UNL     1     -11.648   8.001  71.971  1.00  0.00    -0.316 C  
HETATM   20  C   UNL     1     -11.439   6.774  71.073  1.00  0.00    -0.372 C  
HETATM   21  H   UNL     1     -12.333   6.901  73.417  1.00  0.00     0.000 HD 
ENDBRANCH  15  16
ENDBRANCH   3  15
BRANCH  13  22
HETATM   22  C   UNL     1      -8.768  16.690  67.849  1.00  0.00    -0.193 C  
HETATM   23  C   UNL     1      -6.956  17.679  69.184  1.00  0.00    -0.217 C  
HETATM   24  C   UNL     1      -5.928  18.591  68.496  1.00  0.00    -0.198 C  
HETATM   25  C   UNL     1      -8.285  17.782  68.451  1.00  0.00    -0.298 C  
HETATM   26  O   UNL     1      -5.655  18.144  67.168  1.00  0.00    -0.132 OA 
HETATM   27  C   UNL     1      -6.425  20.038  68.469  1.00  0.00    -0.330 C  
HETATM   28  H   UNL     1      -5.020  18.708  66.743  1.00  0.00     0.000 HD 
HETATM   29  C   UNL     1      -7.810  20.172  67.828  1.00  0.00    -0.309 C  
HETATM   30  C   UNL     1      -8.790  19.140  68.345  1.00  0.00    -0.386 C  
HETATM   31  C   UNL     1     -10.028  19.471  68.773  1.00  0.00    -0.547 C  
ENDBRANCH  13  22
TORSDOF 3
ENDMDL
