MODEL      317
REMARK 921   NORMALIZED FREE ENERGY PREDICTED BY IDOCK:    3.11 KCAL/MOL
REMARK 922        TOTAL FREE ENERGY PREDICTED BY IDOCK:    2.91 KCAL/MOL
REMARK 923 INTER-LIGAND FREE ENERGY PREDICTED BY IDOCK:   -1.84 KCAL/MOL
REMARK 924 INTRA-LIGAND FREE ENERGY PREDICTED BY IDOCK:    4.75 KCAL/MOL
REMARK 927      BINDING AFFINITY PREDICTED BY RF-SCORE:    0.00 PKD
ROOT
HETATM    1  N   UNL     1     -12.709  15.393  63.784  1.00  0.00    -0.610 N  
HETATM    2  H1  UNL     1     -11.948  14.805  63.444  1.00  0.00     0.000 HD 
HETATM    3  H2  UNL     1     -13.083  16.130  63.186  1.00  0.00     0.000 HD 
HETATM    4  C   UNL     1     -13.229  15.205  65.017  1.00  0.00     1.174 C  
HETATM    5  O   UNL     1     -14.148  15.915  65.427  1.00  0.00     3.086 OA 
ENDROOT
BRANCH   4   6
HETATM    6  C   UNL     1     -12.630  14.127  65.835  1.00  0.00    -0.447 C  
HETATM    7  C   UNL     1     -12.142  14.487  67.036  1.00  0.00    -0.273 C  
HETATM    8  N   UNL     1     -11.603  13.588  67.952  1.00  0.00    -0.320 NA 
HETATM    9  C   UNL     1     -12.625  12.687  65.399  1.00  0.00    -0.288 C  
HETATM   10  C   UNL     1     -11.429  12.265  67.529  1.00  0.00    -0.347 C  
HETATM   11  C   UNL     1     -11.879  11.793  66.357  1.00  0.00     0.002 C  
BRANCH   8  12
HETATM   12  C   UNL     1     -11.357  13.900  69.378  1.00  0.00    -0.258 C  
HETATM   13  O   UNL     1     -10.806  12.728  70.021  1.00  0.00     0.456 OA 
HETATM   14  C   UNL     1     -11.911  11.947  70.527  1.00  0.00    -0.267 C  
HETATM   15  H   UNL     1     -12.866  15.216  72.003  1.00  0.00     0.000 HD 
HETATM   16  C   UNL     1     -13.089  12.899  70.719  1.00  0.00     0.187 C  
HETATM   17  H   UNL     1     -14.234  13.512  72.210  1.00  0.00     0.000 HD 
HETATM   18  C   UNL     1     -12.552  14.257  70.275  1.00  0.00    -0.319 C  
HETATM   19  O   UNL     1     -13.501  12.919  72.091  1.00  0.00    -0.523 OA 
HETATM   20  O   UNL     1     -12.127  14.995  71.448  1.00  0.00    -0.296 OA 
BRANCH  14  21
HETATM   21  C   UNL     1     -12.244  10.801  69.559  1.00  0.00    -0.221 C  
BRANCH  21  22
HETATM   22  O   UNL     1     -11.596   9.595  69.947  1.00  0.00    -0.163 OA 
BRANCH  22  23
HETATM   23  P   UNL     1     -10.040   9.433  69.624  1.00  0.00    -0.238 P  
HETATM   24  O   UNL     1      -9.098   9.454  70.780  1.00  0.00    -0.245 OA 
HETATM   25  O   UNL     1     -10.001   7.972  68.952  1.00  0.00    -0.183 OA 
BRANCH  23  26
HETATM   26  O   UNL     1      -9.707  10.376  68.400  1.00  0.00    -0.150 OA 
BRANCH  26  27
HETATM   27  P   UNL     1      -8.494  10.178  67.405  1.00  0.00    -0.120 P  
HETATM   28  O   UNL     1      -8.304  11.647  66.781  1.00  0.00    -0.167 OA 
HETATM   29  O   UNL     1      -8.646   9.184  66.305  1.00  0.00    -0.120 OA 
BRANCH  27  30
HETATM   30  O   UNL     1      -7.172   9.995  68.295  1.00  0.00    -0.075 OA 
BRANCH  30  31
HETATM   31  C   UNL     1      -6.582   8.712  68.471  1.00  0.00    -0.059 C  
BRANCH  31  32
HETATM   32  C   UNL     1      -7.507   7.560  68.088  1.00  0.00    -0.105 C  
HETATM   33  O   UNL     1      -7.313   7.164  66.716  1.00  0.00    -0.080 OA 
HETATM   34  C   UNL     1      -7.947   5.874  66.636  1.00  0.00    -0.102 C  
HETATM   35  H   UNL     1      -7.872   5.497  70.605  1.00  0.00     0.000 HD 
HETATM   36  C   UNL     1      -7.579   5.160  67.947  1.00  0.00    -0.084 C  
HETATM   37  C   UNL     1      -7.245   6.302  68.909  1.00  0.00    -0.084 C  
HETATM   38  H   UNL     1      -8.402   3.902  69.281  1.00  0.00     0.000 HD 
HETATM   39  O   UNL     1      -8.629   4.343  68.471  1.00  0.00    -0.091 OA 
HETATM   40  O   UNL     1      -8.034   6.280  70.093  1.00  0.00    -0.104 OA 
BRANCH  34  41
HETATM   41  N   UNL     1      -7.508   5.162  65.453  1.00  0.00    -0.076 NA 
HETATM   42  C   UNL     1      -7.507   5.599  64.158  1.00  0.00    -0.070 A  
HETATM   43  N   UNL     1      -6.995   4.703  63.338  1.00  0.00    -0.043 NA 
HETATM   44  C   UNL     1      -6.676   3.627  64.141  1.00  0.00    -0.043 A  
HETATM   45  C   UNL     1      -6.093   2.377  63.874  1.00  0.00    -0.014 A  
HETATM   46  N   UNL     1      -5.651   1.997  62.615  1.00  0.00    -0.007 NA 
HETATM   47  N   UNL     1      -5.955   1.499  64.895  1.00  0.00    -0.016 NA 
HETATM   48  H1  UNL     1      -5.227   1.090  62.422  1.00  0.00     0.000 HD 
HETATM   49  C   UNL     1      -6.343   1.882  66.131  1.00  0.00    -0.024 A  
HETATM   50  H2  UNL     1      -4.997   2.712  62.294  1.00  0.00     0.000 HD 
HETATM   51  N   UNL     1      -6.865   3.068  66.519  1.00  0.00    -0.051 NA 
HETATM   52  C   UNL     1      -7.015   3.884  65.459  1.00  0.00    -0.061 A  
ENDBRANCH  34  41
ENDBRANCH  31  32
ENDBRANCH  30  31
ENDBRANCH  27  30
ENDBRANCH  26  27
ENDBRANCH  23  26
ENDBRANCH  22  23
ENDBRANCH  21  22
ENDBRANCH  14  21
ENDBRANCH   8  12
ENDBRANCH   4   6
TORSDOF 11
ENDMDL
