MODEL       50
REMARK 921   NORMALIZED FREE ENERGY PREDICTED BY IDOCK:   -6.58 KCAL/MOL
REMARK 922        TOTAL FREE ENERGY PREDICTED BY IDOCK:  -11.65 KCAL/MOL
REMARK 923 INTER-LIGAND FREE ENERGY PREDICTED BY IDOCK:   -9.70 KCAL/MOL
REMARK 924 INTRA-LIGAND FREE ENERGY PREDICTED BY IDOCK:   -1.95 KCAL/MOL
REMARK 927      BINDING AFFINITY PREDICTED BY RF-SCORE:    0.00 PKD
ROOT
HETATM    1  C   UNL     1     -11.819  13.266  68.947  1.00  0.00    -0.367 C  
HETATM    2  C   UNL     1     -11.112  11.913  68.666  1.00  0.00    -0.295 A  
HETATM    3  C   UNL     1     -12.100  13.546  70.438  1.00  0.00    -0.415 C  
HETATM    4  C   UNL     1     -11.193  14.501  68.222  1.00  0.00    -0.295 C  
HETATM    5  C   UNL     1     -13.016  12.549  71.130  1.00  0.00    -0.237 C  
HETATM    6  C   UNL     1      -9.716  11.787  68.545  1.00  0.00    -0.181 A  
HETATM    7  C   UNL     1     -11.607  14.959  67.021  1.00  0.00    -0.304 C  
HETATM    8  O   UNL     1     -12.632  14.346  66.317  1.00  0.00    -0.457 OA 
HETATM    9  C   UNL     1     -10.854  16.022  66.199  1.00  0.00    -0.179 C  
HETATM   10  C   UNL     1      -9.109  10.574  68.146  1.00  0.00    -0.141 A  
HETATM   11  C   UNL     1      -9.883   9.441  67.945  1.00  0.00    -0.197 A  
HETATM   12  C   UNL     1      -9.679  16.717  66.887  1.00  0.00    -0.257 C  
HETATM   13  C   UNL     1     -10.072  15.230  68.878  1.00  0.00    -0.225 C  
HETATM   14  H   UNL     1     -12.923  14.669  65.472  1.00  0.00     0.000 HD 
HETATM   15  O   UNL     1      -9.383  16.164  68.188  1.00  0.00    -0.198 OA 
HETATM   16  C   UNL     1     -11.868  10.733  68.484  1.00  0.00    -0.168 A  
HETATM   17  O   UNL     1      -9.736  14.986  70.029  1.00  0.00    -0.039 OA 
HETATM   18  C   UNL     1     -11.259   9.511  68.148  1.00  0.00     0.067 A  
ENDROOT
BRANCH  10  19
HETATM   19  N   UNL     1      -7.710  10.540  67.841  1.00  0.00    -0.092 N  
HETATM   20  H   UNL     1      -7.335  11.096  67.072  1.00  0.00     0.000 HD 
BRANCH  19  21
HETATM   21  S   UNL     1      -6.672   9.547  68.788  1.00  0.00    -0.052 S  
HETATM   22  O   UNL     1      -6.084   8.575  67.882  1.00  0.00    -0.046 OA 
HETATM   23  O   UNL     1      -5.825  10.424  69.574  1.00  0.00    -0.037 OA 
BRANCH  21  24
HETATM   24  C   UNL     1      -7.715   8.669  69.942  1.00  0.00    -0.084 A  
HETATM   25  C   UNL     1      -9.266   8.394  71.776  1.00  0.00    -0.287 A  
HETATM   26  N   UNL     1      -7.939   7.429  69.547  1.00  0.00    -0.124 NA 
HETATM   27  F   UNL     1     -10.027   6.264  73.580  1.00  0.00    -0.155 F  
HETATM   28  C   UNL     1     -10.466   6.279  72.284  1.00  0.00    -0.199 C  
HETATM   29  F   UNL     1     -11.713   6.839  72.331  1.00  0.00    -0.291 F  
HETATM   30  C   UNL     1      -8.840   6.731  70.267  1.00  0.00    -0.152 A  
HETATM   31  F   UNL     1     -10.695   4.968  72.038  1.00  0.00    -0.269 F  
HETATM   32  C   UNL     1      -9.535   7.097  71.417  1.00  0.00    -0.162 A  
HETATM   33  C   UNL     1      -8.374   9.206  71.044  1.00  0.00    -0.205 A  
ENDBRANCH  21  24
ENDBRANCH  19  21
ENDBRANCH  10  19
BRANCH  12  34
HETATM   34  C   UNL     1     -10.195  18.152  67.074  1.00  0.00    -0.373 C  
BRANCH  34  35
HETATM   35  C   UNL     1      -9.714  18.737  68.421  1.00  0.00    -0.421 C  
BRANCH  35  36
HETATM   36  C   UNL     1      -8.458  19.506  68.247  1.00  0.00    -0.376 A  
HETATM   37  C   UNL     1      -7.048  20.985  66.995  1.00  0.00    -0.348 A  
HETATM   38  C   UNL     1      -8.272  20.329  67.141  1.00  0.00    -0.385 A  
HETATM   39  C   UNL     1      -6.258  20.013  69.060  1.00  0.00    -0.347 A  
HETATM   40  C   UNL     1      -6.053  20.833  67.949  1.00  0.00    -0.352 A  
HETATM   41  C   UNL     1      -7.467  19.351  69.210  1.00  0.00    -0.278 A  
ENDBRANCH  35  36
ENDBRANCH  34  35
ENDBRANCH  12  34
BRANCH  12  42
HETATM   42  C   UNL     1      -8.280  16.738  66.089  1.00  0.00    -0.300 C  
BRANCH  42  43
HETATM   43  C   UNL     1      -7.017  16.401  66.914  1.00  0.00    -0.247 C  
HETATM   44  C   UNL     1      -5.734  17.227  66.828  1.00  0.00    -0.226 C  
ENDBRANCH  42  43
ENDBRANCH  12  42
TORSDOF 8
ENDMDL
