MODEL      114
REMARK 921   NORMALIZED FREE ENERGY PREDICTED BY IDOCK:   -0.53 KCAL/MOL
REMARK 922        TOTAL FREE ENERGY PREDICTED BY IDOCK:   -1.04 KCAL/MOL
REMARK 923 INTER-LIGAND FREE ENERGY PREDICTED BY IDOCK:   -1.23 KCAL/MOL
REMARK 924 INTRA-LIGAND FREE ENERGY PREDICTED BY IDOCK:    0.19 KCAL/MOL
REMARK 927      BINDING AFFINITY PREDICTED BY RF-SCORE:    0.00 PKD
ROOT
HETATM    1  F   UNL     1     -11.590  16.588  65.279  1.00  0.00     0.063 F  
HETATM    2  C   UNL     1     -11.404  16.564  66.628  1.00  0.00     0.548 C  
HETATM    3  C   UNL     1     -10.602  15.377  67.107  1.00  0.00    -0.305 A  
HETATM    4  F   UNL     1     -10.828  17.752  66.951  1.00  0.00    -0.312 F  
HETATM    5  F   UNL     1     -12.653  16.590  67.175  1.00  0.00     1.706 F  
HETATM    6  C   UNL     1     -10.104  14.434  66.201  1.00  0.00    -0.323 A  
HETATM    7  C   UNL     1      -9.461  13.285  66.665  1.00  0.00    -0.262 A  
HETATM    8  C   UNL     1      -9.306  13.053  68.040  1.00  0.00    -0.213 A  
HETATM    9  C   UNL     1      -9.732  14.031  68.946  1.00  0.00    -0.049 A  
HETATM   10  C   UNL     1     -10.379  15.182  68.480  1.00  0.00    -0.230 A  
ENDROOT
BRANCH   8  11
HETATM   11  C   UNL     1      -8.742  11.730  68.445  1.00  0.00    -0.155 C  
HETATM   12  O   UNL     1      -9.507  10.853  68.848  1.00  0.00    -0.188 OA 
HETATM   13  N   UNL     1      -7.375  11.566  68.380  1.00  0.00    -0.090 N  
HETATM   14  H   UNL     1      -6.773  12.314  68.036  1.00  0.00     0.000 HD 
BRANCH  13  15
HETATM   15  N   UNL     1      -6.835  10.351  68.796  1.00  0.00    -0.057 N  
HETATM   16  C   UNL     1      -7.174   9.192  68.138  1.00  0.00    -0.079 C  
HETATM   17  C   UNL     1      -6.672   8.028  68.959  1.00  0.00    -0.052 C  
HETATM   18  O   UNL     1      -7.828   9.104  67.108  1.00  0.00    -0.101 OA 
HETATM   19  C   UNL     1      -6.145   8.692  70.270  1.00  0.00    -0.033 C  
HETATM   20  C   UNL     1      -6.902   8.113  71.498  1.00  0.00    -0.060 C  
HETATM   21  C   UNL     1      -6.447  10.156  70.105  1.00  0.00    -0.118 C  
HETATM   22  O   UNL     1      -6.434  10.964  71.021  1.00  0.00    -0.265 OA 
HETATM   23  C   UNL     1      -8.393   8.346  71.232  1.00  0.00    -0.174 C  
HETATM   24  C   UNL     1      -8.851   7.770  70.105  1.00  0.00    -0.145 C  
HETATM   25  C   UNL     1      -7.790   7.001  69.323  1.00  0.00    -0.114 C  
HETATM   26  C   UNL     1      -7.097   5.957  70.228  1.00  0.00    -0.074 C  
HETATM   27  C   UNL     1      -7.604   5.516  71.585  1.00  0.00    -0.098 C  
HETATM   28  C   UNL     1      -6.573   6.615  71.494  1.00  0.00    -0.054 C  
ENDBRANCH  13  15
ENDBRANCH   8  11
TORSDOF 2
ENDMDL
