MODEL        6
REMARK 921   NORMALIZED FREE ENERGY PREDICTED BY IDOCK:   -7.87 KCAL/MOL
REMARK 922        TOTAL FREE ENERGY PREDICTED BY IDOCK:  -10.36 KCAL/MOL
REMARK 923 INTER-LIGAND FREE ENERGY PREDICTED BY IDOCK:   -9.92 KCAL/MOL
REMARK 924 INTRA-LIGAND FREE ENERGY PREDICTED BY IDOCK:   -0.43 KCAL/MOL
REMARK 927      BINDING AFFINITY PREDICTED BY RF-SCORE:    0.00 PKD
ROOT
HETATM    1  O   UNL     1     -10.834  12.845  65.150  1.00  0.00    -0.284 OA 
HETATM    2  S   UNL     1     -12.228  13.570  65.500  1.00  0.00    -0.481 S  
HETATM    3  N   UNL     2      -7.671  12.592  67.178  1.00  0.00    -0.333 NA 
HETATM    4  H1  UNL     2      -8.167  11.838  66.703  1.00  0.00     0.000 HD 
HETATM    5  H2  UNL     2      -6.840  13.025  66.775  1.00  0.00     0.000 HD 
HETATM    6  C   UNL     2      -8.166  12.986  68.363  1.00  0.00    -0.123 C  
HETATM    7  N   UNL     3      -9.128  15.020  65.983  1.00  0.00    -0.486 NA 
HETATM    8  O   UNL     1     -12.017  14.982  64.770  1.00  0.00    -0.377 OA 
HETATM    9  O   UNL     1     -13.283  12.837  64.841  1.00  0.00    -0.808 OA 
HETATM   10  O   UNL     1     -12.227  13.814  66.916  1.00  0.00    -0.410 OA 
HETATM   11  C   UNL     3      -9.661  15.902  66.858  1.00  0.00    -0.230 C  
HETATM   12  H1  UNL     3      -9.203  15.121  64.970  1.00  0.00     0.000 HD 
HETATM   13  H2  UNL     3      -8.626  14.214  66.354  1.00  0.00     0.000 HD 
HETATM   14  N   UNL     2      -9.382  12.570  68.737  1.00  0.00    -0.406 NA 
HETATM   15  N   UNL     2      -7.541  13.935  68.961  1.00  0.00    -0.286 NA 
HETATM   16  H2  UNL     2      -6.710  14.368  68.558  1.00  0.00     0.000 HD 
HETATM   17  H   UNL     2      -9.779  13.058  69.540  1.00  0.00     0.000 HD 
HETATM   18  N   UNL     3      -9.568  15.776  68.127  1.00  0.00    -0.199 NA 
HETATM   19  N   UNL     3     -10.382  16.886  66.274  1.00  0.00    -0.320 NA 
HETATM   20  H2  UNL     3      -9.065  14.970  68.498  1.00  0.00     0.000 HD 
HETATM   21  H1  UNL     2      -7.917  14.234  69.861  1.00  0.00     0.000 HD 
HETATM   22  H1  UNL     3      -9.970  16.441  68.787  1.00  0.00     0.000 HD 
HETATM   23  H   UNL     3     -10.801  16.777  65.350  1.00  0.00     0.000 HD 
ENDROOT
BRANCH  14  24
HETATM   24  C   UNL     2     -10.219  11.529  68.170  1.00  0.00    -0.194 C  
BRANCH  24  25
HETATM   25  C   UNL     2     -10.934  10.767  69.271  1.00  0.00    -0.292 A  
HETATM   26  I   UNL     2     -10.846   6.737  70.938  1.00  0.00    -0.347 I  
HETATM   27  C   UNL     2     -11.932  11.388  70.044  1.00  0.00    -0.442 A  
HETATM   28  C   UNL     2     -10.610   9.424  69.548  1.00  0.00    -0.237 A  
HETATM   29  C   UNL     2     -12.636  10.679  71.013  1.00  0.00    -0.516 A  
HETATM   30  C   UNL     2     -11.306   8.727  70.538  1.00  0.00    -0.227 A  
HETATM   31  C   UNL     2     -12.325   9.346  71.263  1.00  0.00    -0.422 A  
ENDBRANCH  24  25
ENDBRANCH  14  24
BRANCH  19  32
HETATM   32  C   UNL     3     -10.522  18.112  67.048  1.00  0.00    -0.370 C  
BRANCH  32  33
HETATM   33  C   UNL     3      -9.214  18.821  67.252  1.00  0.00    -0.304 A  
HETATM   34  C   UNL     3      -6.585  19.759  67.587  1.00  0.00    -0.263 A  
HETATM   35  C   UNL     3      -8.427  19.132  66.145  1.00  0.00    -0.241 A  
HETATM   36  I   UNL     3      -5.924  19.860  64.632  1.00  0.00    -0.307 I  
HETATM   37  C   UNL     3      -7.382  19.519  68.704  1.00  0.00    -0.381 A  
HETATM   38  C   UNL     3      -7.114  19.573  66.311  1.00  0.00    -0.245 A  
HETATM   39  C   UNL     3      -8.687  19.045  68.541  1.00  0.00    -0.392 A  
ENDBRANCH  32  33
ENDBRANCH  19  32
TORSDOF 4
ENDMDL
