MODEL      214
REMARK 921   NORMALIZED FREE ENERGY PREDICTED BY IDOCK:   -1.84 KCAL/MOL
REMARK 922        TOTAL FREE ENERGY PREDICTED BY IDOCK:   -2.62 KCAL/MOL
REMARK 923 INTER-LIGAND FREE ENERGY PREDICTED BY IDOCK:   -2.68 KCAL/MOL
REMARK 924 INTRA-LIGAND FREE ENERGY PREDICTED BY IDOCK:    0.06 KCAL/MOL
REMARK 927      BINDING AFFINITY PREDICTED BY RF-SCORE:    0.00 PKD
ROOT
HETATM    1 CA   UNL     1     -10.217  18.306  69.461  1.00  0.00    -0.340 Ca 
HETATM    2  O   UNL     2     -10.596  18.447  67.354  1.00  0.00    -0.406 OA 
HETATM    3  C   UNL     2     -11.081  17.125  66.966  1.00  0.00     0.235 C  
HETATM    4  H   UNL     2     -11.307  19.072  67.438  1.00  0.00     0.000 HD 
ENDROOT
BRANCH   3   5
HETATM    5  C   UNL     2      -9.925  16.110  66.830  1.00  0.00    -0.258 C  
BRANCH   5   6
HETATM    6  C   UNL     2      -8.571  16.630  67.298  1.00  0.00    -0.191 C  
HETATM    7  H   UNL     2      -7.074  16.002  68.470  1.00  0.00     0.000 HD 
HETATM    8  O   UNL     2      -7.917  15.678  68.179  1.00  0.00    -0.126 OA 
ENDBRANCH   5   6
BRANCH   5   9
HETATM    9  O   UNL     2     -10.186  14.947  67.583  1.00  0.00    -0.234 OA 
HETATM   10  O   UNL     2      -9.938  14.129  65.500  1.00  0.00    -0.327 OA 
HETATM   11  P   UNL     2     -10.796  13.602  66.681  1.00  0.00    -0.287 P  
HETATM   12  O   UNL     2     -12.162  14.265  66.986  1.00  0.00    -0.424 OA 
HETATM   13  O   UNL     2     -11.341  12.399  65.873  1.00  0.00    -0.322 OA 
ENDBRANCH   5   9
ENDBRANCH   3   5
TORSDOF 3
ENDMDL
