MODEL       42
REMARK 921   NORMALIZED FREE ENERGY PREDICTED BY IDOCK:   -3.91 KCAL/MOL
REMARK 922        TOTAL FREE ENERGY PREDICTED BY IDOCK:   -9.03 KCAL/MOL
REMARK 923 INTER-LIGAND FREE ENERGY PREDICTED BY IDOCK:   -7.85 KCAL/MOL
REMARK 924 INTRA-LIGAND FREE ENERGY PREDICTED BY IDOCK:   -1.18 KCAL/MOL
REMARK 927      BINDING AFFINITY PREDICTED BY RF-SCORE:    0.00 PKD
ROOT
HETATM    1  C   UNL     1     -11.481   6.408  70.069  1.00  0.00    -0.496 C  
HETATM    2  C   UNL     1     -11.926   6.912  71.431  1.00  0.00    -0.393 C  
ENDROOT
BRANCH   2   3
HETATM    3  C   UNL     1     -13.326   7.513  71.360  1.00  0.00    -0.370 C  
BRANCH   3   4
HETATM    4  C   UNL     1     -13.361   8.897  72.001  1.00  0.00    -0.471 C  
BRANCH   4   5
HETATM    5  C   UNL     1     -12.174   9.734  71.538  1.00  0.00    -0.493 C  
BRANCH   5   6
HETATM    6  C   UNL     1     -12.636  11.103  71.057  1.00  0.00    -0.503 C  
BRANCH   6   7
HETATM    7  C   UNL     1     -11.854  11.529  69.821  1.00  0.00    -0.429 C  
BRANCH   7   8
HETATM    8  C   UNL     1     -11.805  13.047  69.727  1.00  0.00    -0.381 C  
BRANCH   8   9
HETATM    9  C   UNL     1     -11.680  13.491  68.278  1.00  0.00    -0.394 C  
BRANCH   9  10
HETATM   10  C   UNL     1     -11.410  12.287  67.387  1.00  0.00    -0.389 C  
BRANCH  10  11
HETATM   11  C   UNL     1     -12.048  12.481  66.024  1.00  0.00    -0.390 C  
BRANCH  11  12
HETATM   12  C   UNL     1     -12.385  13.948  65.790  1.00  0.00    -0.518 C  
BRANCH  12  13
HETATM   13  C   UNL     1     -11.642  14.447  64.563  1.00  0.00    -0.393 C  
BRANCH  13  14
HETATM   14  C   UNL     1     -10.870  15.731  64.852  1.00  0.00    -0.433 C  
BRANCH  14  15
HETATM   15  C   UNL     1      -9.780  15.517  65.905  1.00  0.00    -0.392 C  
BRANCH  15  16
HETATM   16  C   UNL     1      -9.067  16.824  66.261  1.00  0.00    -0.285 C  
BRANCH  16  17
HETATM   17  N   UNL     1      -9.219  17.236  67.731  1.00  0.00    -0.236 N  
HETATM   18  C   UNL     1      -9.004  16.056  68.664  1.00  0.00    -0.210 C  
HETATM   19  C   UNL     1     -10.652  17.749  67.914  1.00  0.00    -0.382 C  
HETATM   20  C   UNL     1      -8.262  18.368  68.088  1.00  0.00    -0.287 C  
ENDBRANCH  16  17
ENDBRANCH  15  16
ENDBRANCH  14  15
ENDBRANCH  13  14
ENDBRANCH  12  13
ENDBRANCH  11  12
ENDBRANCH  10  11
ENDBRANCH   9  10
ENDBRANCH   8   9
ENDBRANCH   7   8
ENDBRANCH   6   7
ENDBRANCH   5   6
ENDBRANCH   4   5
ENDBRANCH   3   4
ENDBRANCH   2   3
TORSDOF 15
ENDMDL
