MODEL       16
REMARK 921   NORMALIZED FREE ENERGY PREDICTED BY IDOCK:    2.03 KCAL/MOL
REMARK 922        TOTAL FREE ENERGY PREDICTED BY IDOCK:   -0.35 KCAL/MOL
REMARK 923 INTER-LIGAND FREE ENERGY PREDICTED BY IDOCK:   -3.19 KCAL/MOL
REMARK 924 INTRA-LIGAND FREE ENERGY PREDICTED BY IDOCK:    2.83 KCAL/MOL
REMARK 927      BINDING AFFINITY PREDICTED BY RF-SCORE:    0.00 PKD
ROOT
HETATM    1  C   UNL     1     -11.931  16.355  66.162  1.00  0.00     1.815 C  
HETATM    2  C   UNL     1     -11.432  17.659  66.758  1.00  0.00     1.269 C  
ENDROOT
BRANCH   2   3
HETATM    3  C   UNL     1      -9.939  17.846  66.501  1.00  0.00    -0.357 C  
BRANCH   3   4
HETATM    4  C   UNL     1      -9.367  18.969  67.362  1.00  0.00    -0.345 C  
BRANCH   4   5
HETATM    5  C   UNL     1      -9.257  18.530  68.820  1.00  0.00    -0.292 C  
BRANCH   5   6
HETATM    6  C   UNL     1     -10.180  17.351  69.106  1.00  0.00    -0.273 C  
BRANCH   6   7
HETATM    7  C   UNL     1      -9.369  16.094  69.404  1.00  0.00    -0.186 C  
BRANCH   7   8
HETATM    8  C   UNL     1      -7.938  16.240  68.900  1.00  0.00    -0.230 C  
BRANCH   8   9
HETATM    9  C   UNL     1      -6.968  15.516  69.825  1.00  0.00    -0.132 C  
BRANCH   9  10
HETATM   10  C   UNL     1      -5.527  15.876  69.479  1.00  0.00    -0.116 C  
BRANCH  10  11
HETATM   11  C   UNL     1      -5.280  15.737  67.980  1.00  0.00    -0.129 C  
BRANCH  11  12
HETATM   12  C   UNL     1      -5.162  14.269  67.592  1.00  0.00     0.100 C  
BRANCH  12  13
HETATM   13  C   UNL     1      -5.341  13.355  68.802  1.00  0.00    -0.071 C  
BRANCH  13  14
HETATM   14  C   UNL     1      -5.547  11.917  68.340  1.00  0.00    -0.049 C  
BRANCH  14  15
HETATM   15  C   UNL     1      -6.431  11.831  67.101  1.00  0.00    -0.146 C  
BRANCH  15  16
HETATM   16  C   UNL     1      -7.688  12.636  67.311  1.00  0.00    -0.140 C  
HETATM   17  O   UNL     1      -7.833  13.805  66.982  1.00  0.00    -0.071 OA 
BRANCH  16  18
HETATM   18  O   UNL     1      -8.646  11.875  67.912  1.00  0.00    -0.147 OA 
BRANCH  18  19
HETATM   19  C   UNL     1      -8.169  10.615  68.406  1.00  0.00    -0.125 C  
BRANCH  19  20
HETATM   20  C   UNL     1      -7.948   9.590  67.282  1.00  0.00    -0.106 C  
BRANCH  20  21
HETATM   21  O   UNL     1      -7.349   8.413  67.869  1.00  0.00    -0.092 OA 
BRANCH  21  22
HETATM   22  C   UNL     1      -8.124   7.765  68.776  1.00  0.00    -0.126 C  
HETATM   23  O   UNL     1      -9.259   8.108  69.106  1.00  0.00    -0.151 OA 
BRANCH  22  24
HETATM   24  C   UNL     1      -7.416   6.567  69.343  1.00  0.00    -0.094 C  
BRANCH  24  25
HETATM   25  C   UNL     1      -6.470   7.030  70.438  1.00  0.00    -0.043 C  
BRANCH  25  26
HETATM   26  C   UNL     1      -5.180   6.219  70.453  1.00  0.00    -0.014 C  
BRANCH  26  27
HETATM   27  C   UNL     1      -5.490   4.797  70.007  1.00  0.00    -0.008 C  
BRANCH  27  28
HETATM   28  C   UNL     1      -6.032   3.931  71.140  1.00  0.00    -0.014 C  
BRANCH  28  29
HETATM   29  C   UNL     1      -5.578   2.476  71.001  1.00  0.00    -0.012 C  
BRANCH  29  30
HETATM   30  C   UNL     1      -6.054   1.554  72.127  1.00  0.00    -0.009 C  
BRANCH  30  31
HETATM   31  C   UNL     1      -6.750   2.297  73.234  1.00  0.00    -0.022 C  
HETATM   32  C   UNL     1      -8.078   2.476  73.314  1.00  0.00    -0.059 C  
BRANCH  32  33
HETATM   33  C   UNL     1      -9.020   1.911  72.301  1.00  0.00    -0.102 C  
BRANCH  33  34
HETATM   34  C   UNL     1      -9.700   2.977  71.460  1.00  0.00    -0.223 C  
BRANCH  34  35
HETATM   35  C   UNL     1      -9.754   4.275  72.257  1.00  0.00    -0.210 C  
BRANCH  35  36
HETATM   36  C   UNL     1     -11.176   4.576  72.697  1.00  0.00    -0.036 C  
BRANCH  36  37
HETATM   37  C   UNL     1     -11.475   6.066  72.576  1.00  0.00    -0.336 C  
BRANCH  37  38
HETATM   38  C   UNL     1     -10.218   6.820  72.160  1.00  0.00    -0.213 C  
BRANCH  38  39
HETATM   39  C   UNL     1      -9.908   7.959  73.124  1.00  0.00    -0.357 C  
HETATM   40  C   UNL     1      -8.548   8.563  72.824  1.00  0.00    -0.168 C  
ENDBRANCH  38  39
ENDBRANCH  37  38
ENDBRANCH  36  37
ENDBRANCH  35  36
ENDBRANCH  34  35
ENDBRANCH  33  34
ENDBRANCH  32  33
ENDBRANCH  30  31
ENDBRANCH  29  30
ENDBRANCH  28  29
ENDBRANCH  27  28
ENDBRANCH  26  27
ENDBRANCH  25  26
ENDBRANCH  24  25
ENDBRANCH  22  24
ENDBRANCH  21  22
ENDBRANCH  20  21
BRANCH  20  41
HETATM   41  C   UNL     1      -9.259   9.193  66.593  1.00  0.00    -0.164 C  
BRANCH  41  42
HETATM   42  O   UNL     1      -9.370   9.730  65.278  1.00  0.00    -0.217 OA 
BRANCH  42  43
HETATM   43  P   UNL     1      -8.267   8.987  64.172  1.00  0.00    -0.155 P  
HETATM   44  O   UNL     1      -8.601  10.274  63.255  1.00  0.00    -0.167 OA 
HETATM   45  O   UNL     1      -7.101   9.337  65.094  1.00  0.00    -0.087 OA 
BRANCH  43  46
HETATM   46  O   UNL     1      -7.163   8.246  63.066  1.00  0.00    -0.092 OA 
BRANCH  46  47
HETATM   47  C   UNL     1      -7.341   6.827  62.809  1.00  0.00    -0.068 C  
BRANCH  47  48
HETATM   48  C   UNL     1      -7.600   5.859  64.025  1.00  0.00    -0.085 C  
HETATM   49  O   UNL     1      -8.109   4.581  63.636  1.00  0.00    -0.088 OA 
HETATM   50  H   UNL     1      -8.265   3.997  64.369  1.00  0.00     0.000 HD 
BRANCH  48  51
HETATM   51  C   UNL     1      -6.319   5.628  64.850  1.00  0.00    -0.037 C  
HETATM   52  H   UNL     1      -4.440   5.030  64.546  1.00  0.00     0.000 HD 
HETATM   53  O   UNL     1      -5.229   5.172  64.037  1.00  0.00    -0.009 OA 
ENDBRANCH  48  51
ENDBRANCH  47  48
ENDBRANCH  46  47
ENDBRANCH  43  46
ENDBRANCH  42  43
ENDBRANCH  41  42
ENDBRANCH  20  41
ENDBRANCH  19  20
ENDBRANCH  18  19
ENDBRANCH  16  18
ENDBRANCH  15  16
ENDBRANCH  14  15
ENDBRANCH  13  14
ENDBRANCH  12  13
ENDBRANCH  11  12
ENDBRANCH  10  11
ENDBRANCH   9  10
ENDBRANCH   8   9
ENDBRANCH   7   8
ENDBRANCH   6   7
ENDBRANCH   5   6
ENDBRANCH   4   5
ENDBRANCH   3   4
ENDBRANCH   2   3
TORSDOF 41
ENDMDL
