MODEL       58
REMARK 921   NORMALIZED FREE ENERGY PREDICTED BY IDOCK:   -2.37 KCAL/MOL
REMARK 922        TOTAL FREE ENERGY PREDICTED BY IDOCK:   -4.43 KCAL/MOL
REMARK 923 INTER-LIGAND FREE ENERGY PREDICTED BY IDOCK:   -3.23 KCAL/MOL
REMARK 924 INTRA-LIGAND FREE ENERGY PREDICTED BY IDOCK:   -1.21 KCAL/MOL
REMARK 927      BINDING AFFINITY PREDICTED BY RF-SCORE:    0.00 PKD
ROOT
HETATM    1  C   UNL     1     -13.150  15.359  65.320  1.00  0.00     1.341 C  
HETATM    2  O   UNL     1     -13.141  13.934  65.320  1.00  0.00    -0.777 OA 
ENDROOT
BRANCH   2   3
HETATM    3  C   UNL     1     -12.033  13.360  65.881  1.00  0.00    -0.409 A  
HETATM    4  C   UNL     1     -10.944  14.208  66.082  1.00  0.00    -0.309 A  
HETATM    5  C   UNL     1      -9.751  13.721  66.633  1.00  0.00    -0.293 A  
HETATM    6  C   UNL     1      -9.636  12.374  67.001  1.00  0.00    -0.211 A  
HETATM    7  C   UNL     1     -10.760  11.546  66.871  1.00  0.00    -0.304 A  
HETATM    8  C   UNL     1     -11.947  12.034  66.301  1.00  0.00    -0.098 A  
BRANCH   6   9
HETATM    9  N   UNL     1      -8.418  11.838  67.526  1.00  0.00    -0.147 NA 
HETATM   10  N   UNL     1      -8.029  12.171  68.812  1.00  0.00    -0.054 NA 
HETATM   11  C   UNL     1      -6.786  11.669  68.948  1.00  0.00    -0.088 A  
HETATM   12  C   UNL     1      -6.415  10.957  67.798  1.00  0.00    -0.063 A  
HETATM   13  C   UNL     1      -5.194  10.174  67.513  1.00  0.00    -0.037 C  
HETATM   14  C   UNL     1      -7.492  10.988  66.937  1.00  0.00    -0.133 A  
HETATM   15  C   UNL     1      -5.155   9.909  66.010  1.00  0.00    -0.035 C  
HETATM   16  O   UNL     1      -8.646  10.008  65.135  1.00  0.00    -0.141 OA 
HETATM   17  N   UNL     1      -6.428   9.345  65.521  1.00  0.00    -0.068 N  
HETATM   18  C   UNL     1      -7.604  10.119  65.771  1.00  0.00    -0.134 C  
BRANCH  11  19
HETATM   19  C   UNL     1      -5.954  11.801  70.159  1.00  0.00    -0.162 C  
HETATM   20  H1  UNL     1      -4.813  13.111  71.207  1.00  0.00     0.000 HD 
HETATM   21  N   UNL     1      -5.388  13.020  70.370  1.00  0.00    -0.114 N  
HETATM   22  H2  UNL     1      -5.529  13.799  69.727  1.00  0.00     0.000 HD 
HETATM   23  O   UNL     1      -5.776  10.884  70.960  1.00  0.00    -0.267 OA 
ENDBRANCH  11  19
BRANCH  17  24
HETATM   24  C   UNL     1      -6.460   8.033  64.918  1.00  0.00    -0.048 A  
HETATM   25  C   UNL     1      -6.169   7.820  63.567  1.00  0.00    -0.062 A  
HETATM   26  C   UNL     1      -6.338   6.563  62.957  1.00  0.00    -0.038 A  
HETATM   27  C   UNL     1      -6.820   5.457  63.667  1.00  0.00    -0.042 A  
HETATM   28  C   UNL     1      -7.047   5.646  65.028  1.00  0.00    -0.064 A  
HETATM   29  C   UNL     1      -6.871   6.901  65.635  1.00  0.00    -0.052 A  
BRANCH  27  30
HETATM   30  N   UNL     1      -7.168   4.241  62.994  1.00  0.00    -0.044 N  
HETATM   31  C   UNL     1      -6.139   3.301  62.558  1.00  0.00    -0.013 C  
HETATM   32  C   UNL     1      -6.442   1.887  63.028  1.00  0.00    -0.014 C  
HETATM   33  C   UNL     1      -7.804   1.470  62.507  1.00  0.00    -0.050 C  
HETATM   34  C   UNL     1      -8.865   2.468  62.932  1.00  0.00    -0.085 C  
HETATM   35  C   UNL     1      -8.499   3.925  62.697  1.00  0.00    -0.083 C  
HETATM   36  O   UNL     1      -9.378   4.742  62.423  1.00  0.00    -0.128 OA 
ENDBRANCH  27  30
ENDBRANCH  17  24
ENDBRANCH   6   9
ENDBRANCH   2   3
TORSDOF 5
ENDMDL
