MODEL      295
REMARK 921   NORMALIZED FREE ENERGY PREDICTED BY IDOCK:   -3.52 KCAL/MOL
REMARK 922        TOTAL FREE ENERGY PREDICTED BY IDOCK:   -5.76 KCAL/MOL
REMARK 923 INTER-LIGAND FREE ENERGY PREDICTED BY IDOCK:   -4.59 KCAL/MOL
REMARK 924 INTRA-LIGAND FREE ENERGY PREDICTED BY IDOCK:   -1.18 KCAL/MOL
REMARK 927      BINDING AFFINITY PREDICTED BY RF-SCORE:    0.00 PKD
ROOT
HETATM    1  C   UNL     1      -8.190   5.072  64.793  1.00  0.00    -0.130 C  
HETATM    2  C   UNL     1      -8.915   5.993  65.779  1.00  0.00    -0.104 C  
HETATM    3  C   UNL     1      -9.854   5.178  66.678  1.00  0.00    -0.208 C  
ENDROOT
BRANCH   2   4
HETATM    4  N   UNL     1      -7.983   6.765  66.604  1.00  0.00    -0.106 NA 
HETATM    5  N   UNL     1      -7.652   6.258  67.820  1.00  0.00    -0.099 NA 
HETATM    6  C   UNL     1      -7.095   7.283  68.453  1.00  0.00    -0.081 A  
HETATM    7  C   UNL     1      -7.009   8.425  67.642  1.00  0.00    -0.075 A  
HETATM    8  C   UNL     1      -7.500   8.051  66.400  1.00  0.00    -0.087 A  
BRANCH   8   9
HETATM    9  C   UNL     1      -7.437   8.731  65.101  1.00  0.00    -0.090 A  
HETATM   10  C   UNL     1      -8.329   9.696  64.619  1.00  0.00    -0.162 A  
HETATM   11  C   UNL     1      -6.027   9.037  63.270  1.00  0.00    -0.088 A  
HETATM   12  C   UNL     1      -8.017  10.308  63.387  1.00  0.00    -0.147 A  
HETATM   13  N   UNL     1      -6.294   8.410  64.435  1.00  0.00    -0.066 NA 
HETATM   14  C   UNL     1      -6.850   9.988  62.709  1.00  0.00    -0.127 A  
BRANCH  10  15
HETATM   15  C   UNL     1      -9.617  10.117  65.274  1.00  0.00    -0.277 C  
BRANCH  15  16
HETATM   16  O   UNL     1     -10.108  11.271  64.605  1.00  0.00    -0.250 OA 
BRANCH  16  17
HETATM   17  C   UNL     1     -10.420  12.394  65.320  1.00  0.00    -0.286 A  
HETATM   18  C   UNL     1      -9.692  12.843  66.431  1.00  0.00    -0.263 A  
HETATM   19  C   UNL     1     -10.015  14.050  67.060  1.00  0.00    -0.257 A  
HETATM   20  C   UNL     1     -11.087  14.813  66.610  1.00  0.00    -0.333 A  
HETATM   21  C   UNL     1     -11.840  14.365  65.526  1.00  0.00    -0.357 A  
HETATM   22  O   UNL     1     -12.912  15.107  65.110  1.00  0.00     0.178 OA 
HETATM   23  C   UNL     1     -11.511  13.165  64.870  1.00  0.00    -0.337 A  
HETATM   24  C   UNL     1     -12.342  12.762  63.701  1.00  0.00    -0.463 C  
HETATM   25  H   UNL     1     -13.426  14.803  64.371  1.00  0.00     0.000 HD 
HETATM   26  O   UNL     1     -12.252  11.695  63.107  1.00  0.00    -0.369 OA 
ENDBRANCH  16  17
ENDBRANCH  15  16
ENDBRANCH  10  15
ENDBRANCH   8   9
ENDBRANCH   2   4
TORSDOF 5
ENDMDL
