MODEL      414
REMARK 921   NORMALIZED FREE ENERGY PREDICTED BY IDOCK:    7.49 KCAL/MOL
REMARK 922        TOTAL FREE ENERGY PREDICTED BY IDOCK:   11.88 KCAL/MOL
REMARK 923 INTER-LIGAND FREE ENERGY PREDICTED BY IDOCK:   11.91 KCAL/MOL
REMARK 924 INTRA-LIGAND FREE ENERGY PREDICTED BY IDOCK:   -0.04 KCAL/MOL
REMARK 927      BINDING AFFINITY PREDICTED BY RF-SCORE:    0.00 PKD
ROOT
HETATM    1  C   UNL     1     -13.438  20.284  65.997  1.00  0.00     9.584 C  
HETATM    2  C   UNL     1     -12.276  19.323  66.185  1.00  0.00     4.456 C  
ENDROOT
BRANCH   2   3
HETATM    3  C   UNL     1     -10.946  20.067  66.215  1.00  0.00    -0.039 C  
BRANCH   3   4
HETATM    4  C   UNL     1     -10.415  20.194  67.642  1.00  0.00    -0.408 C  
BRANCH   4   5
HETATM    5  C   UNL     1      -9.061  19.510  67.761  1.00  0.00    -0.384 C  
BRANCH   5   6
HETATM    6  C   UNL     1      -8.848  18.882  69.138  1.00  0.00    -0.060 C  
BRANCH   6   7
HETATM    7  C   UNL     1      -9.410  17.464  69.124  1.00  0.00    -0.009 C  
BRANCH   7   8
HETATM    8  C   UNL     1     -10.805  17.396  68.511  1.00  0.00    -0.190 C  
BRANCH   8   9
HETATM    9  N   UNL     1     -11.455  15.989  68.641  1.00  0.00    -0.387 N  
HETATM   10  C   UNL     1     -12.739  16.075  69.467  1.00  0.00     0.762 C  
HETATM   11  C   UNL     1     -11.767  15.422  67.255  1.00  0.00     0.013 C  
BRANCH   9  12
HETATM   12  C   UNL     1     -10.410  15.092  69.364  1.00  0.00    -0.235 C  
BRANCH  12  13
HETATM   13  C   UNL     1      -9.914  13.942  68.492  1.00  0.00    -0.221 C  
BRANCH  13  14
HETATM   14  C   UNL     1      -8.391  13.849  68.461  1.00  0.00    -0.132 C  
BRANCH  14  15
HETATM   15  C   UNL     1      -7.958  13.318  67.095  1.00  0.00    -0.077 C  
BRANCH  15  16
HETATM   16  C   UNL     1      -8.750  12.086  66.679  1.00  0.00    -0.171 C  
BRANCH  16  17
HETATM   17  C   UNL     1      -7.885  10.834  66.808  1.00  0.00    -0.135 C  
BRANCH  17  18
HETATM   18  C   UNL     1      -8.658   9.582  66.408  1.00  0.00    -0.143 C  
HETATM   19  C   UNL     1      -9.165   9.684  64.979  1.00  0.00    -0.310 C  
ENDBRANCH  17  18
ENDBRANCH  16  17
ENDBRANCH  15  16
ENDBRANCH  14  15
ENDBRANCH  13  14
ENDBRANCH  12  13
ENDBRANCH   9  12
ENDBRANCH   8   9
ENDBRANCH   7   8
ENDBRANCH   6   7
ENDBRANCH   5   6
ENDBRANCH   4   5
ENDBRANCH   3   4
ENDBRANCH   2   3
TORSDOF 14
ENDMDL
