MODEL       74
REMARK 921   NORMALIZED FREE ENERGY PREDICTED BY IDOCK:   -5.52 KCAL/MOL
REMARK 922        TOTAL FREE ENERGY PREDICTED BY IDOCK:   -8.72 KCAL/MOL
REMARK 923 INTER-LIGAND FREE ENERGY PREDICTED BY IDOCK:   -7.64 KCAL/MOL
REMARK 924 INTRA-LIGAND FREE ENERGY PREDICTED BY IDOCK:   -1.08 KCAL/MOL
REMARK 927      BINDING AFFINITY PREDICTED BY RF-SCORE:    0.00 PKD
ROOT
HETATM    1  O   HOH     4     -10.328   4.004  73.032  1.00  0.00    -0.154 OA 
HETATM    2  H2  HOH     4     -10.498   4.939  73.012  1.00  0.00     0.000 HD 
HETATM    3 NA   UNL    13     -14.365   9.190  70.435  1.00  0.00    -0.609 Na 
HETATM    4  H1  HOH     4     -10.960   3.625  72.433  1.00  0.00     0.000 HD 
HETATM    5 NA   UNL    14     -10.840   6.691  74.345  1.00  0.00    -0.309 Na 
HETATM    6 FE   UNL    15     -13.224   8.625  73.645  1.00  0.00    -0.608 Fe 
HETATM    7 FE   UNL    16     -11.237   5.355  70.867  1.00  0.00    -0.245 Fe 
HETATM    8 FE   UNL    17      -9.497   8.176  73.118  1.00  0.00    -0.161 Fe 
HETATM    9 FE   UNL    18      -9.195   4.751  70.454  1.00  0.00    -0.103 Fe 
HETATM   10 FE   UNL    19      -7.806   9.523  69.882  1.00  0.00    -0.064 Fe 
HETATM   11  O   UNL    20      -9.682   7.445  70.268  1.00  0.00    -0.172 OA 
HETATM   12  C   UNL    20     -10.166   7.011  69.025  1.00  0.00    -0.187 C  
HETATM   13  H   UNL    20      -9.845   6.859  70.999  1.00  0.00     0.000 HD 
ENDROOT
BRANCH  12  14
HETATM   14  C   UNL    20      -9.902   7.964  67.837  1.00  0.00    -0.165 C  
HETATM   15  O   UNL    20     -10.442   9.238  68.085  1.00  0.00    -0.207 OA 
HETATM   16  C   UNL    20      -9.828  10.136  67.196  1.00  0.00    -0.187 C  
HETATM   17  C   UNL    20      -8.446   8.137  67.351  1.00  0.00    -0.126 C  
HETATM   18  H   UNL    20      -7.290   7.408  65.959  1.00  0.00     0.000 HD 
HETATM   19  C   UNL    20      -8.367   9.628  66.945  1.00  0.00    -0.117 C  
HETATM   20  H   UNL    20      -6.506   9.966  67.565  1.00  0.00     0.000 HD 
HETATM   21  O   UNL    20      -8.185   7.302  66.258  1.00  0.00    -0.112 OA 
HETATM   22  O   UNL    20      -7.391  10.273  67.717  1.00  0.00    -0.086 OA 
BRANCH  16  23
HETATM   23  O   UNL    20     -10.022  11.498  67.631  1.00  0.00    -0.180 OA 
BRANCH  23  24
HETATM   24  C   UNL    20      -9.570  12.619  66.836  1.00  0.00    -0.232 C  
HETATM   25  O   UNL    20     -10.633  13.050  66.006  1.00  0.00    -0.272 OA 
HETATM   26  C   UNL    20     -11.690  13.678  66.724  1.00  0.00    -0.392 C  
HETATM   27  H   UNL    20      -7.437  14.371  68.587  1.00  0.00     0.000 HD 
HETATM   28  C   UNL    20     -11.205  14.931  67.511  1.00  0.00    -0.328 C  
HETATM   29  O   UNL    20     -12.252  15.549  68.218  1.00  0.00    -0.462 OA 
HETATM   30  C   UNL    20     -10.054  14.556  68.433  1.00  0.00    -0.241 C  
HETATM   31  O   UNL    20      -7.789  13.599  68.159  1.00  0.00    -0.121 OA 
HETATM   32  H   UNL    20     -11.956  16.313  68.697  1.00  0.00     0.000 HD 
HETATM   33  O   UNL    20      -9.532  15.712  69.025  1.00  0.00    -0.209 OA 
HETATM   34  C   UNL    20      -8.996  13.878  67.534  1.00  0.00    -0.197 C  
HETATM   35  H   UNL    20      -8.813  15.478  69.601  1.00  0.00     0.000 HD 
BRANCH  26  36
HETATM   36  C   UNL    20     -12.741  14.150  65.688  1.00  0.00    -0.441 C  
HETATM   37  O   UNL    20     -12.443  13.623  64.428  1.00  0.00    -0.588 OA 
HETATM   38  H   UNL    20     -13.088  13.912  63.793  1.00  0.00     0.000 HD 
ENDBRANCH  26  36
ENDBRANCH  23  24
ENDBRANCH  16  23
BRANCH  16  39
HETATM   39  C   UNL    20     -10.574  10.009  65.831  1.00  0.00     0.071 C  
HETATM   40  O   UNL    20      -9.698   9.582  64.823  1.00  0.00    -0.441 OA 
HETATM   41  H   UNL    20     -10.152   9.505  63.993  1.00  0.00     0.000 HD 
ENDBRANCH  16  39
ENDBRANCH  12  14
TORSDOF 5
ENDMDL
