MODEL       12
REMARK 921   NORMALIZED FREE ENERGY PREDICTED BY IDOCK:   -5.60 KCAL/MOL
REMARK 922        TOTAL FREE ENERGY PREDICTED BY IDOCK:   -8.06 KCAL/MOL
REMARK 923 INTER-LIGAND FREE ENERGY PREDICTED BY IDOCK:   -7.40 KCAL/MOL
REMARK 924 INTRA-LIGAND FREE ENERGY PREDICTED BY IDOCK:   -0.65 KCAL/MOL
REMARK 927      BINDING AFFINITY PREDICTED BY RF-SCORE:    0.00 PKD
ROOT
HETATM    1  C   UNL     1     -10.386  18.121  66.875  1.00  0.00    -0.375 C  
HETATM    2  O   UNL     1      -9.910  17.156  65.941  1.00  0.00    -0.486 OA 
ENDROOT
BRANCH   2   3
HETATM    3  C   UNL     1     -10.677  16.039  65.760  1.00  0.00    -0.301 A  
HETATM    4  C   UNL     1     -11.001  15.107  66.743  1.00  0.00    -0.321 A  
HETATM    5  C   UNL     1     -11.792  13.969  66.464  1.00  0.00    -0.439 A  
HETATM    6  C   UNL     1     -12.272  13.801  65.147  1.00  0.00    -0.431 A  
HETATM    7  C   UNL     1     -11.948  14.741  64.161  1.00  0.00    -0.282 A  
HETATM    8  C   UNL     1     -11.155  15.851  64.467  1.00  0.00    -0.285 A  
BRANCH   5   9
HETATM    9  C   UNL     1     -12.119  12.949  67.559  1.00  0.00    -0.192 C  
HETATM   10  O   UNL     1     -11.729  11.626  67.156  1.00  0.00    -0.566 OA 
HETATM   11  H   UNL     1     -11.931  10.993  67.835  1.00  0.00     0.000 HD 
BRANCH   9  12
HETATM   12  C   UNL     1     -11.411  13.215  68.904  1.00  0.00    -0.298 C  
BRANCH  12  13
HETATM   13  N   UNL     1     -12.161  14.018  69.845  1.00  0.00    -0.334 N  
HETATM   14  H   UNL     1     -12.233  15.027  69.718  1.00  0.00     0.000 HD 
HETATM   15  C   UNL     1     -12.780  13.406  70.915  1.00  0.00    -0.272 C  
HETATM   16  O   UNL     1     -12.655  12.209  71.170  1.00  0.00    -0.365 OA 
BRANCH  15  17
HETATM   17  C   UNL     1     -13.663  14.327  71.758  1.00  0.00    -0.412 C  
HETATM   18  N   UNL     1     -14.165  15.460  70.960  1.00  0.00    -0.846 NA 
HETATM   19  H1  UNL     1     -14.754  16.075  71.523  1.00  0.00     0.000 HD 
HETATM   20  H2  UNL     1     -14.648  15.142  70.120  1.00  0.00     0.000 HD 
ENDBRANCH  15  17
ENDBRANCH  12  13
ENDBRANCH   9  12
ENDBRANCH   5   9
BRANCH   6  21
HETATM   21  O   UNL     1     -13.040  12.688  64.922  1.00  0.00    -0.850 OA 
HETATM   22  C   UNL     1     -12.763  11.924  63.753  1.00  0.00    -0.350 C  
ENDBRANCH   6  21
ENDBRANCH   2   3
TORSDOF 6
ENDMDL
