MODEL       14
REMARK 921   NORMALIZED FREE ENERGY PREDICTED BY IDOCK:   -6.56 KCAL/MOL
REMARK 922        TOTAL FREE ENERGY PREDICTED BY IDOCK:   -7.94 KCAL/MOL
REMARK 923 INTER-LIGAND FREE ENERGY PREDICTED BY IDOCK:   -7.54 KCAL/MOL
REMARK 924 INTRA-LIGAND FREE ENERGY PREDICTED BY IDOCK:   -0.40 KCAL/MOL
REMARK 927      BINDING AFFINITY PREDICTED BY RF-SCORE:    0.00 PKD
ROOT
HETATM    1  N   UNL     1      -9.512   9.746  63.109  1.00  0.00    -0.534 N  
HETATM    2  S   UNL     1      -8.390   9.712  64.358  1.00  0.00    -0.184 S  
HETATM    3  H2  UNL     1     -10.126   8.989  62.807  1.00  0.00     0.000 HD 
HETATM    4  H1  UNL     1      -9.446  10.686  62.719  1.00  0.00     0.000 HD 
HETATM    5  O   UNL     1      -8.483   8.378  64.913  1.00  0.00    -0.167 OA 
HETATM    6  O   UNL     1      -7.154  10.234  63.846  1.00  0.00    -0.127 OA 
ENDROOT
BRANCH   2   7
HETATM    7  C   UNL     1      -9.065  10.861  65.517  1.00  0.00    -0.201 A  
HETATM    8  C   UNL     1     -10.113  11.693  65.108  1.00  0.00    -0.304 A  
HETATM    9  C   UNL     1     -10.649  12.612  66.019  1.00  0.00    -0.270 A  
HETATM   10  C   UNL     1     -10.188  12.726  67.333  1.00  0.00    -0.222 A  
HETATM   11  N   UNL     1     -10.789  13.567  68.270  1.00  0.00    -0.251 NA 
HETATM   12  C   UNL     1      -9.155  11.864  67.723  1.00  0.00    -0.180 A  
HETATM   13  H   UNL     1     -10.759  13.348  69.266  1.00  0.00     0.000 HD 
HETATM   14  C   UNL     1     -11.457  14.759  67.788  1.00  0.00    -0.345 C  
HETATM   15  C   UNL     1      -8.586  10.940  66.829  1.00  0.00    -0.137 A  
HETATM   16  N   UNL     1     -12.524  14.313  66.928  1.00  0.00    -0.543 N  
HETATM   17 CL   UNL     1      -7.305   9.958  67.447  1.00  0.00    -0.090 Cl 
HETATM   18  O   UNL     1     -13.035  12.798  65.004  1.00  0.00    -0.811 OA 
HETATM   19  S   UNL     1     -11.975  13.648  65.497  1.00  0.00    -0.411 S  
HETATM   20  O   UNL     1     -11.394  14.705  64.703  1.00  0.00    -0.387 OA 
HETATM   21  H   UNL     1     -13.512  14.396  67.167  1.00  0.00     0.000 HD 
BRANCH  14  22
HETATM   22  C   UNL     1     -12.075  15.535  68.964  1.00  0.00    -0.246 C  
BRANCH  22  23
HETATM   23  C   UNL     1     -11.867  14.868  70.331  1.00  0.00    -0.352 C  
HETATM   24  C   UNL     1     -11.537  15.841  71.461  1.00  0.00    -0.531 C  
HETATM   25  C   UNL     1     -11.830  15.028  72.710  1.00  0.00    -0.391 C  
HETATM   26  C   UNL     1     -13.091  14.248  72.363  1.00  0.00    -0.519 C  
HETATM   27  C   UNL     1     -13.130  14.154  70.837  1.00  0.00    -0.338 C  
ENDBRANCH  22  23
ENDBRANCH  14  22
ENDBRANCH   2   7
TORSDOF 3
ENDMDL
