MODEL      333
REMARK 921   NORMALIZED FREE ENERGY PREDICTED BY IDOCK:   10.47 KCAL/MOL
REMARK 922        TOTAL FREE ENERGY PREDICTED BY IDOCK:   13.22 KCAL/MOL
REMARK 923 INTER-LIGAND FREE ENERGY PREDICTED BY IDOCK:   12.04 KCAL/MOL
REMARK 924 INTRA-LIGAND FREE ENERGY PREDICTED BY IDOCK:    1.19 KCAL/MOL
REMARK 927      BINDING AFFINITY PREDICTED BY RF-SCORE:    0.00 PKD
ROOT
HETATM    1 CL   UNL     1     -11.972  18.544  64.177  1.00  0.00     6.940 Cl 
HETATM    2  C   UNL     1     -11.697  17.202  65.218  1.00  0.00     1.770 A  
HETATM    3  C   UNL     1     -10.489  16.514  65.156  1.00  0.00    -0.169 A  
HETATM    4  C   UNL     1     -10.268  15.418  66.001  1.00  0.00    -0.343 A  
HETATM    5  C   UNL     1     -11.261  14.995  66.903  1.00  0.00    -0.323 A  
HETATM    6  C   UNL     1     -12.464  15.718  66.964  1.00  0.00     1.834 A  
HETATM    7  C   UNL     1     -12.682  16.813  66.123  1.00  0.00     5.452 A  
ENDROOT
BRANCH   5   8
HETATM    8  C   UNL     1     -11.004  13.832  67.846  1.00  0.00    -0.253 C  
BRANCH   8   9
HETATM    9  S   UNL     1      -9.333  13.183  67.548  1.00  0.00    -0.217 SA 
BRANCH   9  10
HETATM   10  C   UNL     1      -9.580  11.570  66.607  1.00  0.00    -0.197 C  
BRANCH  10  11
HETATM   11  C   UNL     1      -8.475  10.535  66.969  1.00  0.00    -0.128 A  
HETATM   12  C   UNL     1      -6.527   8.594  67.713  1.00  0.00    -0.061 A  
HETATM   13  C   UNL     1      -7.221  10.907  67.505  1.00  0.00    -0.095 A  
HETATM   14  C   UNL     1      -8.681   9.145  66.797  1.00  0.00    -0.138 A  
HETATM   15  C   UNL     1      -6.272   9.947  67.899  1.00  0.00    -0.051 A  
HETATM   16 CL   UNL     1      -5.358   7.418  68.170  1.00  0.00    -0.024 Cl 
HETATM   17 CL   UNL     1      -6.736  12.558  67.692  1.00  0.00    -0.120 Cl 
HETATM   18  C   UNL     1      -7.721   8.189  67.146  1.00  0.00    -0.097 A  
ENDBRANCH  10  11
BRANCH  10  19
HETATM   19  C   UNL     1      -9.746  11.796  65.081  1.00  0.00    -0.203 C  
BRANCH  19  20
HETATM   20  N   UNL     1     -11.013  12.375  64.687  1.00  0.00    -0.292 NA 
HETATM   21  C   UNL     1     -12.156  12.412  65.433  1.00  0.00    -0.365 A  
HETATM   22  N   UNL     1     -12.533  13.357  63.416  1.00  0.00    -0.739 NA 
HETATM   23  C   UNL     1     -13.098  12.966  64.605  1.00  0.00     0.054 A  
HETATM   24  C   UNL     1     -11.268  13.012  63.509  1.00  0.00    -0.198 A  
ENDBRANCH  19  20
ENDBRANCH  10  19
ENDBRANCH   9  10
ENDBRANCH   8   9
ENDBRANCH   5   8
TORSDOF 6
ENDMDL
