MODEL      208
REMARK 921   NORMALIZED FREE ENERGY PREDICTED BY IDOCK:   -3.13 KCAL/MOL
REMARK 922        TOTAL FREE ENERGY PREDICTED BY IDOCK:   -4.79 KCAL/MOL
REMARK 923 INTER-LIGAND FREE ENERGY PREDICTED BY IDOCK:   -3.62 KCAL/MOL
REMARK 924 INTRA-LIGAND FREE ENERGY PREDICTED BY IDOCK:   -1.17 KCAL/MOL
REMARK 927      BINDING AFFINITY PREDICTED BY RF-SCORE:    0.00 PKD
ROOT
HETATM    1  C   UNL     1     -12.295  16.377  66.630  1.00  0.00     2.756 C  
HETATM    2  C   UNL     1     -11.284  15.299  66.864  1.00  0.00    -0.256 A  
HETATM    3  N   UNL     1     -11.606  14.059  66.457  1.00  0.00    -0.357 NA 
HETATM    4  C   UNL     1     -10.645  13.132  66.551  1.00  0.00    -0.284 A  
HETATM    5  C   UNL     1      -9.158  14.709  67.510  1.00  0.00    -0.190 A  
HETATM    6  C   UNL     1      -9.390  13.450  66.999  1.00  0.00    -0.243 A  
HETATM    7  N   UNL     1     -10.106  15.656  67.413  1.00  0.00    -0.247 NA 
ENDROOT
BRANCH   4   8
HETATM    8  N   UNL     1     -10.980  11.845  66.143  1.00  0.00    -0.297 NA 
HETATM    9  H   UNL     1     -11.698  11.778  65.422  1.00  0.00     0.000 HD 
BRANCH   8  10
HETATM   10  C   UNL     1     -10.472  10.676  66.583  1.00  0.00    -0.237 A  
HETATM   11  S   UNL     1     -11.219   9.955  67.947  1.00  0.00     0.134 SA 
HETATM   12  N   UNL     1      -9.444  10.000  66.107  1.00  0.00    -0.178 NA 
HETATM   13  C   UNL     1      -9.127   8.950  66.946  1.00  0.00    -0.133 A  
HETATM   14  C   UNL     1      -9.950   8.811  68.042  1.00  0.00    -0.182 A  
BRANCH  14  15
HETATM   15  C   UNL     1      -9.815   7.927  69.175  1.00  0.00    -0.174 C  
HETATM   16  O   UNL     1      -9.787   6.706  69.058  1.00  0.00    -0.142 OA 
HETATM   17  H   UNL     1      -9.933   9.595  70.402  1.00  0.00     0.000 HD 
HETATM   18  N   UNL     1      -9.767   8.588  70.393  1.00  0.00    -0.172 N  
BRANCH  18  19
HETATM   19  C   UNL     1      -9.503   7.947  71.612  1.00  0.00    -0.152 A  
HETATM   20  C   UNL     1     -10.277   7.172  73.767  1.00  0.00    -0.395 A  
HETATM   21  C   UNL     1     -11.928   8.377  72.343  1.00  0.00    -0.451 C  
HETATM   22  C   UNL     1     -10.539   7.837  72.558  1.00  0.00    -0.352 A  
HETATM   23  C   UNL     1      -9.011   6.649  74.039  1.00  0.00    -0.181 A  
HETATM   24  C   UNL     1      -7.975   6.814  73.128  1.00  0.00    -0.104 A  
HETATM   25  C   UNL     1      -8.212   7.469  71.921  1.00  0.00    -0.106 A  
HETATM   26 CL   UNL     1      -6.829   7.830  70.936  1.00  0.00    -0.042 Cl 
ENDBRANCH  18  19
ENDBRANCH  14  15
ENDBRANCH   8  10
ENDBRANCH   4   8
BRANCH   5  27
HETATM   27  N   UNL     1      -7.910  14.990  68.079  1.00  0.00    -0.118 NA 
HETATM   28  C   UNL     1      -6.896  13.924  67.932  1.00  0.00    -0.160 C  
HETATM   29  C   UNL     1      -7.937  15.578  69.427  1.00  0.00    -0.229 C  
HETATM   30  N   UNL     1      -5.414  15.052  69.669  1.00  0.00    -0.094 NA 
HETATM   31  C   UNL     1      -5.506  14.474  68.308  1.00  0.00    -0.114 C  
HETATM   32  C   UNL     1      -6.508  16.061  69.807  1.00  0.00    -0.164 C  
BRANCH  30  33
HETATM   33  C   UNL     1      -5.512  14.034  70.738  1.00  0.00    -0.159 C  
BRANCH  33  34
HETATM   34  C   UNL     1      -5.211  14.585  72.143  1.00  0.00    -0.158 C  
HETATM   35  H   UNL     1      -5.469  14.016  74.015  1.00  0.00     0.000 HD 
HETATM   36  O   UNL     1      -5.655  13.676  73.147  1.00  0.00    -0.436 OA 
ENDBRANCH  33  34
ENDBRANCH  30  33
ENDBRANCH   5  27
TORSDOF 7
ENDMDL
