MODEL       56
REMARK 921   NORMALIZED FREE ENERGY PREDICTED BY IDOCK:   -5.34 KCAL/MOL
REMARK 922        TOTAL FREE ENERGY PREDICTED BY IDOCK:   -9.49 KCAL/MOL
REMARK 923 INTER-LIGAND FREE ENERGY PREDICTED BY IDOCK:   -8.70 KCAL/MOL
REMARK 924 INTRA-LIGAND FREE ENERGY PREDICTED BY IDOCK:   -0.79 KCAL/MOL
REMARK 927      BINDING AFFINITY PREDICTED BY RF-SCORE:    0.00 PKD
ROOT
HETATM    1  C   UNL     1      -9.918  20.153  66.726  1.00  0.00    -0.469 C  
HETATM    2  O   UNL     1     -10.403  19.283  67.739  1.00  0.00    -0.381 OA 
ENDROOT
BRANCH   2   3
HETATM    3  C   UNL     1     -10.588  17.974  67.386  1.00  0.00    -0.365 A  
HETATM    4  C   UNL     1     -10.891  16.925  68.254  1.00  0.00    -0.357 A  
HETATM    5  C   UNL     1     -10.994  15.617  67.770  1.00  0.00    -0.316 A  
HETATM    6  C   UNL     1     -10.811  15.344  66.407  1.00  0.00    -0.303 A  
HETATM    7  C   UNL     1     -10.438  17.710  66.025  1.00  0.00    -0.278 A  
HETATM    8  C   UNL     1     -10.546  16.407  65.537  1.00  0.00    -0.346 A  
BRANCH   6   9
HETATM    9  C   UNL     1     -10.753  13.926  65.893  1.00  0.00    -0.286 C  
BRANCH   9  10
HETATM   10  C   UNL     1     -12.064  13.108  65.960  1.00  0.00    -0.436 C  
HETATM   11  C   UNL     1     -12.518  12.685  64.557  1.00  0.00    -0.525 C  
BRANCH  10  12
HETATM   12  N   UNL     1     -11.919  11.875  66.760  1.00  0.00    -0.583 NA 
HETATM   13  H   UNL     1     -12.390  11.093  66.306  1.00  0.00     0.000 HD 
BRANCH  12  14
HETATM   14  C   UNL     1     -10.519  11.536  67.066  1.00  0.00    -0.228 C  
BRANCH  14  15
HETATM   15  C   UNL     1     -10.102  11.859  68.520  1.00  0.00    -0.206 C  
HETATM   16  H   UNL     1      -8.469  11.713  69.610  1.00  0.00     0.000 HD 
HETATM   17  O   UNL     1      -8.725  11.515  68.717  1.00  0.00    -0.137 OA 
BRANCH  15  18
HETATM   18  C   UNL     1     -10.989  11.237  69.579  1.00  0.00    -0.249 A  
HETATM   19  C   UNL     1     -10.843   9.872  69.885  1.00  0.00    -0.316 A  
HETATM   20  C   UNL     1     -11.658   9.252  70.839  1.00  0.00    -0.301 A  
HETATM   21  H   UNL     1     -14.135  10.020  72.865  1.00  0.00     0.000 HD 
HETATM   22  C   UNL     1     -12.616  10.028  71.504  1.00  0.00    -0.425 A  
HETATM   23  C   UNL     1     -11.944  11.990  70.277  1.00  0.00    -0.398 A  
HETATM   24  C   UNL     1     -12.754  11.387  71.236  1.00  0.00    -0.498 A  
HETATM   25  O   UNL     1     -13.485   9.493  72.414  1.00  0.00    -0.453 OA 
BRANCH  20  26
HETATM   26  N   UNL     1     -11.532   7.888  71.160  1.00  0.00    -0.270 N  
HETATM   27  H   UNL     1     -11.825   7.614  72.097  1.00  0.00     0.000 HD 
HETATM   28  O   UNL     1     -10.982   5.729  70.737  1.00  0.00    -0.283 OA 
HETATM   29  C   UNL     1     -11.061   6.888  70.355  1.00  0.00    -0.296 C  
ENDBRANCH  20  26
ENDBRANCH  15  18
ENDBRANCH  14  15
ENDBRANCH  12  14
ENDBRANCH  10  12
ENDBRANCH   9  10
ENDBRANCH   6   9
ENDBRANCH   2   3
TORSDOF 8
ENDMDL
