MODEL        2
REMARK 921   NORMALIZED FREE ENERGY PREDICTED BY IDOCK:   -8.12 KCAL/MOL
REMARK 922        TOTAL FREE ENERGY PREDICTED BY IDOCK:  -10.60 KCAL/MOL
REMARK 923 INTER-LIGAND FREE ENERGY PREDICTED BY IDOCK:  -10.41 KCAL/MOL
REMARK 924 INTRA-LIGAND FREE ENERGY PREDICTED BY IDOCK:   -0.19 KCAL/MOL
REMARK 927      BINDING AFFINITY PREDICTED BY RF-SCORE:    0.00 PKD
ROOT
HETATM    1  C   UNL     1      -9.487  13.479  67.255  1.00  0.00    -0.230 C  
HETATM    2  C   UNL     1      -8.238  14.112  67.834  1.00  0.00    -0.155 C  
HETATM    3  C   UNL     1      -8.384  15.640  68.097  1.00  0.00    -0.146 C  
HETATM    4  C   UNL     1      -8.912  16.353  66.876  1.00  0.00    -0.240 C  
HETATM    5  C   UNL     1      -8.371  17.721  66.554  1.00  0.00    -0.265 C  
HETATM    6  C   UNL     1      -9.802  15.759  66.051  1.00  0.00    -0.337 C  
HETATM    7  C   UNL     1      -7.503  18.417  67.543  1.00  0.00    -0.221 A  
HETATM    8  O   UNL     1      -8.637  18.280  65.486  1.00  0.00    -0.078 OA 
HETATM    9  O   UNL     1     -10.203  16.347  64.849  1.00  0.00    -0.509 OA 
HETATM   10  C   UNL     1     -10.209  14.275  66.146  1.00  0.00    -0.307 C  
HETATM   11  C   UNL     1     -11.747  13.859  66.469  1.00  0.00    -0.393 C  
HETATM   12  H   UNL     1     -10.828  15.929  64.269  1.00  0.00     0.000 HD 
HETATM   13  O   UNL     1      -9.780  13.802  64.861  1.00  0.00    -0.589 OA 
HETATM   14  C   UNL     1      -7.182  19.780  67.380  1.00  0.00    -0.226 A  
HETATM   15  O   UNL     1     -12.725  14.573  66.261  1.00  0.00    -0.192 OA 
HETATM   16  H   UNL     1     -10.224  14.291  64.179  1.00  0.00     0.000 HD 
HETATM   17  C   UNL     1      -6.431  20.460  68.342  1.00  0.00    -0.340 A  
HETATM   18  O   UNL     1      -7.552  20.521  66.292  1.00  0.00    -0.472 OA 
HETATM   19  C   UNL     1     -11.959  12.413  66.972  1.00  0.00    -0.257 C  
HETATM   20  C   UNL     1      -5.805  15.640  67.958  1.00  0.00    -0.151 C  
HETATM   21  C   UNL     1     -10.995  11.668  66.384  1.00  0.00    -0.295 C  
HETATM   22  C   UNL     1      -5.989  19.788  69.473  1.00  0.00    -0.325 A  
HETATM   23  H   UNL     1      -7.335  21.440  66.181  1.00  0.00     0.000 HD 
HETATM   24  C   UNL     1      -9.517  11.922  66.918  1.00  0.00    -0.199 C  
HETATM   25  O   UNL     1      -7.017  15.765  70.047  1.00  0.00    -0.076 OA 
HETATM   26  C   UNL     1      -7.052  16.198  68.679  1.00  0.00    -0.147 C  
HETATM   27  O   UNL     1     -11.075  11.395  65.013  1.00  0.00    -0.241 OA 
HETATM   28  C   UNL     1      -6.248  18.425  69.614  1.00  0.00    -0.235 A  
HETATM   29  H   UNL     1      -6.204  16.106  70.401  1.00  0.00     0.000 HD 
HETATM   30  H   UNL     1     -10.397  10.873  64.600  1.00  0.00     0.000 HD 
HETATM   31  C   UNL     1      -6.982  17.713  68.640  1.00  0.00    -0.237 A  
ENDROOT
BRANCH  19  32
HETATM   32  C   UNL     1     -12.031  11.962  68.427  1.00  0.00    -0.182 C  
HETATM   33  H   UNL     1     -12.038  13.872  69.298  1.00  0.00     0.000 HD 
HETATM   34  O   UNL     1     -12.085  10.760  68.695  1.00  0.00    -0.480 OA 
HETATM   35  N   UNL     1     -12.073  12.865  69.461  1.00  0.00    -0.258 N  
BRANCH  35  36
HETATM   36  C   UNL     1     -12.172  12.311  70.791  1.00  0.00    -0.260 C  
BRANCH  36  37
HETATM   37  N   UNL     1     -12.306  13.360  71.788  1.00  0.00    -0.006 NA 
HETATM   38  C   UNL     1     -11.870  14.662  71.241  1.00  0.00    -0.319 C  
HETATM   39  C   UNL     1     -12.417  15.643  72.260  1.00  0.00    -0.512 C  
HETATM   40  C   UNL     1     -13.757  15.043  72.649  1.00  0.00    -0.558 C  
HETATM   41  C   UNL     1     -13.688  13.579  72.219  1.00  0.00    -0.602 C  
ENDBRANCH  36  37
ENDBRANCH  35  36
ENDBRANCH  19  32
BRANCH  24  42
HETATM   42  N   UNL     1      -8.556  11.268  66.002  1.00  0.00    -0.162 NA 
HETATM   43  C   UNL     1      -8.958   9.880  65.745  1.00  0.00    -0.156 C  
HETATM   44  C   UNL     1      -7.151  11.327  66.339  1.00  0.00    -0.053 C  
ENDBRANCH  24  42
TORSDOF 4
ENDMDL
