MODEL      154
REMARK 921   NORMALIZED FREE ENERGY PREDICTED BY IDOCK:   27.99 KCAL/MOL
REMARK 922        TOTAL FREE ENERGY PREDICTED BY IDOCK:   30.72 KCAL/MOL
REMARK 923 INTER-LIGAND FREE ENERGY PREDICTED BY IDOCK:   31.18 KCAL/MOL
REMARK 924 INTRA-LIGAND FREE ENERGY PREDICTED BY IDOCK:   -0.46 KCAL/MOL
REMARK 927      BINDING AFFINITY PREDICTED BY RF-SCORE:    0.00 PKD
ROOT
HETATM    1  O   UNL     1     -12.240  12.461  67.982  1.00  0.00    -0.356 OA 
HETATM    2  C   UNL     1     -12.199  13.732  68.666  1.00  0.00    -0.167 C  
HETATM    3  H   UNL     1     -13.004  12.455  67.417  1.00  0.00     0.000 HD 
HETATM    4  C   UNL     1     -10.968  13.742  69.579  1.00  0.00    -0.081 C  
HETATM    5  C   UNL     1      -9.689  14.581  69.036  1.00  0.00    -0.124 C  
HETATM    6  C   UNL     1      -9.893  15.911  68.081  1.00  0.00    -0.214 C  
HETATM    7  O   UNL     1      -9.429  15.503  66.797  1.00  0.00    -0.217 OA 
HETATM    8  C   UNL     1      -9.562  17.537  68.261  1.00  0.00    -0.299 C  
HETATM    9  C   UNL     1      -9.731  18.426  67.028  1.00  0.00    -0.316 C  
HETATM   10  H   UNL     1      -9.546  16.268  66.247  1.00  0.00     0.000 HD 
HETATM   11  C   UNL     1     -11.088  18.049  66.465  1.00  0.00     0.461 A  
HETATM   12  C   UNL     1     -11.524  18.577  65.257  1.00  0.00     2.069 A  
HETATM   13  C   UNL     1     -12.606  17.980  64.581  1.00  0.00     9.653 A  
HETATM   14  C   UNL     1     -13.269  16.869  65.146  1.00  0.00     7.637 A  
HETATM   15  O   UNL     1     -14.090  16.130  64.339  1.00  0.00     2.266 OA 
HETATM   16  C   UNL     1     -12.893  16.439  66.410  1.00  0.00     4.740 A  
HETATM   17  H   UNL     1     -14.537  15.382  64.719  1.00  0.00     0.000 HD 
HETATM   18  C   UNL     1     -11.851  17.034  67.097  1.00  0.00     1.654 A  
HETATM   19  C   UNL     1     -11.380  16.139  68.256  1.00  0.00    -0.316 C  
HETATM   20  C   UNL     1     -11.254  16.669  69.912  1.00  0.00    -0.030 C  
HETATM   21  C   UNL     1     -12.101  14.877  67.697  1.00  0.00    -0.020 C  
HETATM   22  O   UNL     1     -13.326  15.285  67.036  1.00  0.00     2.844 OA 
HETATM   23  C   UNL     1      -9.648  17.251  70.467  1.00  0.00     2.876 C  
HETATM   24  N   UNL     1      -8.783  17.885  69.420  1.00  0.00     0.335 NA 
ENDROOT
BRANCH  24  25
HETATM   25  C   UNL     1      -7.390  17.566  69.116  1.00  0.00    -0.128 C  
BRANCH  25  26
HETATM   26  C   UNL     1      -6.364  18.672  69.342  1.00  0.00    -0.284 C  
HETATM   27  C   UNL     1      -6.455  19.803  68.250  1.00  0.00    -0.291 C  
HETATM   28  C   UNL     1      -5.867  20.754  69.307  1.00  0.00    -0.353 C  
HETATM   29  C   UNL     1      -6.561  19.849  70.360  1.00  0.00    -0.160 C  
ENDBRANCH  25  26
ENDBRANCH  24  25
TORSDOF 2
ENDMDL
