MODEL       24
REMARK 921   NORMALIZED FREE ENERGY PREDICTED BY IDOCK:   -5.65 KCAL/MOL
REMARK 922        TOTAL FREE ENERGY PREDICTED BY IDOCK:   -7.88 KCAL/MOL
REMARK 923 INTER-LIGAND FREE ENERGY PREDICTED BY IDOCK:   -8.47 KCAL/MOL
REMARK 924 INTRA-LIGAND FREE ENERGY PREDICTED BY IDOCK:    0.59 KCAL/MOL
REMARK 927      BINDING AFFINITY PREDICTED BY RF-SCORE:    0.00 PKD
ROOT
HETATM    1  C   UNL     1     -12.796  11.175  71.692  1.00  0.00    -0.419 C  
HETATM    2  O   UNL     1     -13.041  10.477  70.466  1.00  0.00    -0.322 OA 
ENDROOT
BRANCH   2   3
HETATM    3  C   UNL     1     -11.931   9.941  69.853  1.00  0.00     0.058 A  
HETATM    4  C   UNL     1     -11.534   8.636  70.240  1.00  0.00    -0.084 A  
HETATM    5  C   UNL     1     -10.473   8.054  69.508  1.00  0.00    -0.226 A  
HETATM    6  C   UNL     1     -11.154  10.704  68.932  1.00  0.00    -0.314 A  
HETATM    7  C   UNL     1     -10.095  10.045  68.265  1.00  0.00    -0.182 A  
HETATM    8  C   UNL     1      -9.751   8.704  68.496  1.00  0.00    -0.163 A  
BRANCH   4   9
HETATM    9  C   UNL     1     -12.189   7.799  71.380  1.00  0.00    -0.343 C  
HETATM   10  C   UNL     1     -13.724   7.950  71.500  1.00  0.00    -0.384 C  
HETATM   11  C   UNL     1     -11.862   6.309  71.160  1.00  0.00    -0.234 C  
HETATM   12  C   UNL     1     -11.652   8.202  72.786  1.00  0.00    -0.371 C  
ENDBRANCH   4   9
BRANCH   8  13
HETATM   13  N   UNL     1      -8.679   8.047  67.747  1.00  0.00    -0.127 N  
HETATM   14  C   UNL     1      -8.960   7.046  66.816  1.00  0.00    -0.132 C  
HETATM   15  O   UNL     1      -6.878   9.169  68.822  1.00  0.00    -0.059 OA 
HETATM   16  C   UNL     1      -8.026   6.359  66.156  1.00  0.00    -0.112 C  
HETATM   17  H   UNL     1      -5.439   8.102  67.222  1.00  0.00     0.000 HD 
HETATM   18  C   UNL     1      -6.618   6.676  66.383  1.00  0.00    -0.044 C  
HETATM   19  O   UNL     1      -5.725   6.012  65.874  1.00  0.00    -0.018 OA 
HETATM   20  N   UNL     1      -6.393   7.743  67.193  1.00  0.00    -0.053 N  
HETATM   21  C   UNL     1      -7.320   8.390  67.978  1.00  0.00    -0.096 C  
ENDBRANCH   8  13
BRANCH   6  22
HETATM   22  C   UNL     1     -11.397  12.156  68.658  1.00  0.00    -0.330 A  
HETATM   23  C   UNL     1     -10.530  14.537  65.944  1.00  0.00    -0.322 A  
HETATM   24  C   UNL     1     -11.179  12.687  67.374  1.00  0.00    -0.337 A  
HETATM   25  C   UNL     1     -10.310  15.896  65.756  1.00  0.00    -0.396 A  
HETATM   26  C   UNL     1     -11.046  14.066  67.157  1.00  0.00    -0.313 A  
HETATM   27  C   UNL     1     -10.639  16.797  66.762  1.00  0.00    -0.203 A  
HETATM   28  C   UNL     1     -11.763  14.453  69.430  1.00  0.00    -0.362 A  
HETATM   29  C   UNL     1     -11.189  16.348  67.965  1.00  0.00    -0.235 A  
HETATM   30  C   UNL     1     -11.741  13.070  69.671  1.00  0.00    -0.364 A  
HETATM   31  C   UNL     1     -11.353  14.970  68.189  1.00  0.00    -0.343 A  
BRANCH  27  32
HETATM   32  N   UNL     1     -10.446  18.187  66.533  1.00  0.00    -0.364 N  
HETATM   33  H   UNL     1     -11.052  18.709  65.899  1.00  0.00     0.000 HD 
BRANCH  32  34
HETATM   34  S   UNL     1      -9.169  18.947  67.355  1.00  0.00    -0.288 S  
HETATM   35  C   UNL     1     -10.039  19.895  68.584  1.00  0.00    -0.406 C  
HETATM   36  O   UNL     1      -8.608  19.875  66.396  1.00  0.00    -0.335 OA 
HETATM   37  O   UNL     1      -8.352  17.951  68.006  1.00  0.00    -0.244 OA 
ENDBRANCH  32  34
ENDBRANCH  27  32
ENDBRANCH   6  22
ENDBRANCH   2   3
TORSDOF 6
ENDMDL
