MODEL        8
REMARK 921   NORMALIZED FREE ENERGY PREDICTED BY IDOCK:   -5.07 KCAL/MOL
REMARK 922        TOTAL FREE ENERGY PREDICTED BY IDOCK:   -9.45 KCAL/MOL
REMARK 923 INTER-LIGAND FREE ENERGY PREDICTED BY IDOCK:   -8.46 KCAL/MOL
REMARK 924 INTRA-LIGAND FREE ENERGY PREDICTED BY IDOCK:   -0.99 KCAL/MOL
REMARK 927      BINDING AFFINITY PREDICTED BY RF-SCORE:    0.00 PKD
ROOT
HETATM    1  C   UNL     1      -9.651   3.052  64.518  1.00  0.00    -0.150 C  
HETATM    2  O   UNL     1     -10.183   4.297  64.963  1.00  0.00    -0.222 OA 
ENDROOT
BRANCH   2   3
HETATM    3  C   UNL     1      -9.184   5.157  65.495  1.00  0.00    -0.136 C  
BRANCH   3   4
HETATM    4  C   UNL     1      -9.729   6.198  66.488  1.00  0.00    -0.145 C  
HETATM    5  O   UNL     1     -10.881   6.144  66.912  1.00  0.00    -0.319 OA 
HETATM    6  N   UNL     1      -8.801   7.173  66.873  1.00  0.00    -0.124 N  
HETATM    7  H   UNL     1      -7.863   7.202  66.473  1.00  0.00     0.000 HD 
BRANCH   6   8
HETATM    8  C   UNL     1      -9.224   8.124  67.849  1.00  0.00    -0.131 A  
HETATM    9  C   UNL     1      -9.738   9.387  67.462  1.00  0.00    -0.157 A  
HETATM   10  C   UNL     1     -10.427  10.219  68.392  1.00  0.00    -0.228 A  
HETATM   11  I   UNL     1      -9.446   9.936  65.401  1.00  0.00    -0.341 I  
HETATM   12  C   UNL     1      -9.189   7.780  69.220  1.00  0.00    -0.145 A  
HETATM   13  C   UNL     1     -10.566   9.722  69.714  1.00  0.00    -0.257 A  
HETATM   14  I   UNL     1     -12.234  10.355  70.935  1.00  0.00    -0.529 I  
HETATM   15  I   UNL     1      -7.992   6.070  69.781  1.00  0.00    -0.109 I  
HETATM   16  C   UNL     1      -9.823   8.599  70.172  1.00  0.00    -0.191 A  
BRANCH  10  17
HETATM   17  C   UNL     1     -11.086  11.488  67.909  1.00  0.00    -0.256 C  
HETATM   18  O   UNL     1     -12.285  11.418  67.631  1.00  0.00    -0.485 OA 
HETATM   19  C   UNL     1      -9.019  12.994  68.119  1.00  0.00    -0.198 C  
HETATM   20  N   UNL     1     -10.387  12.694  67.713  1.00  0.00    -0.216 N  
BRANCH  20  21
HETATM   21  C   UNL     1     -11.083  13.817  67.026  1.00  0.00    -0.302 C  
BRANCH  21  22
HETATM   22  C   UNL     1     -10.348  14.286  65.743  1.00  0.00    -0.327 C  
HETATM   23  H   UNL     1     -10.693  14.326  63.789  1.00  0.00     0.000 HD 
HETATM   24  O   UNL     1     -11.144  14.039  64.575  1.00  0.00    -0.381 OA 
BRANCH  22  25
HETATM   25  C   UNL     1      -9.999  15.782  65.769  1.00  0.00    -0.358 C  
HETATM   26  H   UNL     1     -10.516  17.419  64.793  1.00  0.00     0.000 HD 
HETATM   27  O   UNL     1     -10.731  16.495  64.777  1.00  0.00    -0.719 OA 
ENDBRANCH  22  25
ENDBRANCH  21  22
ENDBRANCH  20  21
ENDBRANCH  10  17
BRANCH  16  28
HETATM   28  C   UNL     1      -9.675   8.304  71.632  1.00  0.00    -0.197 C  
HETATM   29  H   UNL     1     -11.184   6.848  71.547  1.00  0.00     0.000 HD 
HETATM   30  O   UNL     1      -8.875   8.901  72.333  1.00  0.00    -0.396 OA 
HETATM   31  N   UNL     1     -10.556   7.364  72.163  1.00  0.00    -0.214 N  
BRANCH  31  32
HETATM   32  C   UNL     1     -10.581   7.119  73.600  1.00  0.00    -0.333 C  
BRANCH  32  33
HETATM   33  C   UNL     1     -10.580   5.626  73.940  1.00  0.00    -0.256 C  
HETATM   34  O   UNL     1     -11.853   5.067  73.584  1.00  0.00    -0.365 OA 
HETATM   35  H   UNL     1     -11.853   4.141  73.796  1.00  0.00     0.000 HD 
BRANCH  33  36
HETATM   36  C   UNL     1      -9.442   4.891  73.212  1.00  0.00    -0.123 C  
HETATM   37  O   UNL     1      -9.943   3.919  72.297  1.00  0.00    -0.154 OA 
HETATM   38  H   UNL     1      -9.240   3.465  71.846  1.00  0.00     0.000 HD 
ENDBRANCH  33  36
ENDBRANCH  32  33
ENDBRANCH  31  32
ENDBRANCH  16  28
ENDBRANCH   6   8
ENDBRANCH   3   4
ENDBRANCH   2   3
TORSDOF 11
ENDMDL
