MODEL       42
REMARK 921   NORMALIZED FREE ENERGY PREDICTED BY IDOCK:   -6.64 KCAL/MOL
REMARK 922        TOTAL FREE ENERGY PREDICTED BY IDOCK:   -9.79 KCAL/MOL
REMARK 923 INTER-LIGAND FREE ENERGY PREDICTED BY IDOCK:   -9.02 KCAL/MOL
REMARK 924 INTRA-LIGAND FREE ENERGY PREDICTED BY IDOCK:   -0.77 KCAL/MOL
REMARK 927      BINDING AFFINITY PREDICTED BY RF-SCORE:    0.00 PKD
ROOT
HETATM    1  C   UNL     1     -10.014   3.969  72.050  1.00  0.00    -0.246 C  
HETATM    2  C   UNL     1     -10.813   5.092  72.659  1.00  0.00    -0.226 C  
HETATM    3  O   UNL     1     -11.158   5.038  73.839  1.00  0.00    -0.285 OA 
HETATM    4  N   UNL     1     -11.039   6.199  71.862  1.00  0.00    -0.261 N  
HETATM    5  C   UNL     1     -11.657   7.385  72.467  1.00  0.00    -0.275 C  
HETATM    6  C   UNL     1     -11.075   8.676  71.870  1.00  0.00    -0.346 C  
HETATM    7  N   UNL     1     -11.213   8.642  70.396  1.00  0.00    -0.245 NA 
HETATM    8  C   UNL     1     -11.050   6.188  70.388  1.00  0.00    -0.352 C  
HETATM    9  C   UNL     1     -10.505   7.498  69.788  1.00  0.00    -0.230 C  
ENDROOT
BRANCH   7  10
HETATM   10  C   UNL     1     -11.157   9.843  69.694  1.00  0.00    -0.241 A  
HETATM   11  C   UNL     1     -11.746  11.012  70.167  1.00  0.00    -0.442 A  
HETATM   12  C   UNL     1     -11.785  12.173  69.396  1.00  0.00    -0.391 A  
HETATM   13  C   UNL     1     -11.248  12.205  68.107  1.00  0.00    -0.267 A  
HETATM   14  C   UNL     1     -10.568   9.897  68.417  1.00  0.00    -0.258 A  
HETATM   15  C   UNL     1     -10.616  11.058  67.630  1.00  0.00    -0.255 A  
BRANCH  13  16
HETATM   16  O   UNL     1     -11.309  13.295  67.262  1.00  0.00    -0.288 OA 
BRANCH  16  17
HETATM   17  C   UNL     1     -12.237  14.298  67.689  1.00  0.00    -0.179 C  
BRANCH  17  18
HETATM   18  C   UNL     1     -11.602  15.637  68.034  1.00  0.00    -0.239 C  
HETATM   19  C   UNL     1     -11.745  16.025  69.479  1.00  0.00    -0.272 C  
HETATM   20  O   UNL     1     -10.581  16.803  69.744  1.00  0.00    -0.287 OA 
HETATM   21  C   UNL     1      -9.540  16.310  68.862  1.00  0.00    -0.243 C  
HETATM   22  O   UNL     1     -10.183  15.529  67.835  1.00  0.00    -0.233 OA 
BRANCH  21  23
HETATM   23  C   UNL     1      -8.814  17.478  68.186  1.00  0.00    -0.263 A  
HETATM   24 CL   UNL     1      -8.757  16.179  65.743  1.00  0.00    -0.115 Cl 
HETATM   25  C   UNL     1      -8.436  17.487  66.827  1.00  0.00    -0.250 A  
HETATM   26  C   UNL     1      -8.505  18.627  68.947  1.00  0.00    -0.209 A  
HETATM   27  C   UNL     1      -7.862  19.730  68.383  1.00  0.00    -0.329 A  
HETATM   28  C   UNL     1      -7.780  18.593  66.266  1.00  0.00    -0.290 A  
HETATM   29 CL   UNL     1      -6.726  21.074  66.342  1.00  0.00    -0.278 Cl 
HETATM   30  C   UNL     1      -7.503  19.710  67.043  1.00  0.00    -0.232 A  
ENDBRANCH  21  23
BRANCH  21  31
HETATM   31  C   UNL     1      -8.621  15.359  69.673  1.00  0.00    -0.124 C  
BRANCH  31  32
HETATM   32  N   UNL     1      -7.321  15.076  69.107  1.00  0.00    -0.151 NA 
HETATM   33  N   UNL     1      -5.822  14.337  67.647  1.00  0.00    -0.338 NA 
HETATM   34  C   UNL     1      -6.156  15.749  69.378  1.00  0.00    -0.138 A  
HETATM   35  C   UNL     1      -7.065  14.225  68.066  1.00  0.00    -0.140 A  
HETATM   36  C   UNL     1      -5.254  15.294  68.448  1.00  0.00    -0.107 A  
ENDBRANCH  31  32
ENDBRANCH  21  31
ENDBRANCH  17  18
ENDBRANCH  16  17
ENDBRANCH  13  16
ENDBRANCH   7  10
TORSDOF 7
ENDMDL
