MODEL      269
REMARK 921   NORMALIZED FREE ENERGY PREDICTED BY IDOCK:   -1.20 KCAL/MOL
REMARK 922        TOTAL FREE ENERGY PREDICTED BY IDOCK:   -3.88 KCAL/MOL
REMARK 923 INTER-LIGAND FREE ENERGY PREDICTED BY IDOCK:   -5.41 KCAL/MOL
REMARK 924 INTRA-LIGAND FREE ENERGY PREDICTED BY IDOCK:    1.53 KCAL/MOL
REMARK 927      BINDING AFFINITY PREDICTED BY RF-SCORE:    0.00 PKD
ROOT
HETATM    1  N   UNL     1      -9.690  18.689  68.873  1.00  0.00    -0.351 NA 
HETATM    2  C   UNL     1     -10.103  19.290  67.589  1.00  0.00    -0.387 C  
HETATM    3  H1  UNL     1      -9.191  19.379  69.435  1.00  0.00     0.000 HD 
HETATM    4  H2  UNL     1      -9.146  17.836  68.740  1.00  0.00     0.000 HD 
ENDROOT
BRANCH   2   5
HETATM    5  C   UNL     1     -10.856  18.250  66.743  1.00  0.00    -0.074 C  
HETATM    6  O   UNL     1     -11.240  17.181  67.629  1.00  0.00    -0.132 OA 
HETATM    7  C   UNL     1     -12.120  16.253  66.999  1.00  0.00     1.551 C  
HETATM    8  C   UNL     1     -11.341  15.510  65.875  1.00  0.00    -0.028 C  
HETATM    9  O   UNL     1      -8.752  17.232  66.072  1.00  0.00    -0.497 OA 
HETATM   10  H   UNL     1      -8.236  16.888  65.353  1.00  0.00     0.000 HD 
HETATM   11  N   UNL     1     -10.230  14.694  66.449  1.00  0.00    -0.280 NA 
HETATM   12  C   UNL     1     -10.789  16.549  64.871  1.00  0.00    -0.204 C  
HETATM   13  H2  UNL     1     -10.566  14.050  67.165  1.00  0.00     0.000 HD 
HETATM   14  O   UNL     1     -11.836  17.072  64.042  1.00  0.00    -0.548 OA 
HETATM   15  C   UNL     1     -10.017  17.690  65.575  1.00  0.00     0.327 C  
HETATM   16  H1  UNL     1      -9.719  14.208  65.713  1.00  0.00     0.000 HD 
HETATM   17  H   UNL     1     -11.497  17.710  63.425  1.00  0.00     0.000 HD 
BRANCH   7  18
HETATM   18  O   UNL     1     -12.605  15.286  67.934  1.00  0.00     0.577 OA 
BRANCH  18  19
HETATM   19  C   UNL     1     -11.728  15.062  69.052  1.00  0.00    -0.325 C  
HETATM   20  O   UNL     1     -13.583  13.903  70.210  1.00  0.00     0.107 OA 
HETATM   21  C   UNL     1     -10.420  14.526  68.474  1.00  0.00    -0.250 C  
HETATM   22  C   UNL     1     -11.602  12.695  69.301  1.00  0.00    -0.318 C  
HETATM   23  H   UNL     1     -13.861  13.206  70.793  1.00  0.00     0.000 HD 
HETATM   24  O   UNL     1     -10.509  13.093  68.472  1.00  0.00    -0.249 OA 
HETATM   25  C   UNL     1     -12.172  13.948  69.985  1.00  0.00    -0.344 C  
BRANCH  21  26
HETATM   26  C   UNL     1      -9.178  14.931  69.270  1.00  0.00    -0.098 C  
HETATM   27  H   UNL     1      -7.220  14.726  69.121  1.00  0.00     0.000 HD 
HETATM   28  O   UNL     1      -7.990  14.475  68.627  1.00  0.00    -0.135 OA 
ENDBRANCH  21  26
BRANCH  22  29
HETATM   29  O   UNL     1     -11.167  11.785  70.307  1.00  0.00     0.013 OA 
BRANCH  29  30
HETATM   30  C   UNL     1     -11.409  10.378  70.111  1.00  0.00    -0.323 C  
HETATM   31  C   UNL     1     -12.134   9.785  71.335  1.00  0.00    -0.400 C  
HETATM   32  O   UNL     1     -13.237  10.619  71.714  1.00  0.00    -0.438 OA 
HETATM   33  C   UNL     1     -12.638   8.370  71.028  1.00  0.00    -0.049 C  
HETATM   34  C   UNL     1     -11.444   7.469  70.717  1.00  0.00    -0.305 C  
HETATM   35  N   UNL     1     -13.416   7.827  72.159  1.00  0.00    -0.516 NA 
HETATM   36  H   UNL     1     -13.683  10.253  72.468  1.00  0.00     0.000 HD 
HETATM   37  H1  UNL     1     -13.751   6.886  71.955  1.00  0.00     0.000 HD 
HETATM   38  H2  UNL     1     -14.179   8.449  72.423  1.00  0.00     0.000 HD 
HETATM   39  C   UNL     1     -10.596   8.016  69.556  1.00  0.00    -0.214 C  
HETATM   40  C   UNL     1     -10.173   9.525  69.718  1.00  0.00    -0.228 C  
HETATM   41  N   UNL     1      -9.417   7.141  69.385  1.00  0.00    -0.154 NA 
HETATM   42  H2  UNL     1      -9.671   6.162  69.257  1.00  0.00     0.000 HD 
HETATM   43  H1  UNL     1      -8.855   7.505  68.615  1.00  0.00     0.000 HD 
BRANCH  40  44
HETATM   44  O   UNL     1      -9.554   9.913  68.469  1.00  0.00    -0.149 OA 
BRANCH  44  45
HETATM   45  C   UNL     1      -8.499  10.880  68.575  1.00  0.00    -0.147 C  
HETATM   46  O   UNL     1      -7.522  10.495  69.535  1.00  0.00    -0.127 OA 
HETATM   47  C   UNL     1      -6.744   9.350  69.192  1.00  0.00    -0.050 C  
HETATM   48  C   UNL     1      -5.978   9.612  67.892  1.00  0.00    -0.051 C  
HETATM   49  H1  UNL     1      -8.358  11.749  65.239  1.00  0.00     0.000 HD 
HETATM   50  H2  UNL     1      -9.366  12.345  66.438  1.00  0.00     0.000 HD 
HETATM   51  O   UNL     1      -5.204   8.484  67.480  1.00  0.00    -0.033 OA 
HETATM   52  C   UNL     1      -6.965   9.985  66.778  1.00  0.00    -0.089 C  
HETATM   53  H   UNL     1      -4.728   8.647  66.674  1.00  0.00     0.000 HD 
HETATM   54  O   UNL     1      -6.237  10.323  65.584  1.00  0.00    -0.094 OA 
HETATM   55  N   UNL     1      -8.793  11.555  66.140  1.00  0.00    -0.192 NA 
HETATM   56  C   UNL     1      -7.837  11.175  67.205  1.00  0.00    -0.137 C  
HETATM   57  H   UNL     1      -6.848  10.554  64.894  1.00  0.00     0.000 HD 
BRANCH  47  58
HETATM   58  C   UNL     1      -5.791   9.081  70.365  1.00  0.00    -0.031 C  
HETATM   59  O   UNL     1      -6.330   8.070  71.220  1.00  0.00    -0.034 OA 
HETATM   60  H   UNL     1      -5.741   7.903  71.946  1.00  0.00     0.000 HD 
ENDBRANCH  47  58
ENDBRANCH  44  45
ENDBRANCH  40  44
ENDBRANCH  29  30
ENDBRANCH  22  29
ENDBRANCH  18  19
ENDBRANCH   7  18
ENDBRANCH   2   5
TORSDOF 9
ENDMDL
