MODEL      108
REMARK 921   NORMALIZED FREE ENERGY PREDICTED BY IDOCK:   -1.76 KCAL/MOL
REMARK 922        TOTAL FREE ENERGY PREDICTED BY IDOCK:   -3.56 KCAL/MOL
REMARK 923 INTER-LIGAND FREE ENERGY PREDICTED BY IDOCK:   -5.39 KCAL/MOL
REMARK 924 INTRA-LIGAND FREE ENERGY PREDICTED BY IDOCK:    1.83 KCAL/MOL
REMARK 927      BINDING AFFINITY PREDICTED BY RF-SCORE:    0.00 PKD
ROOT
HETATM    1  C   UNL     1      -8.947  10.896  62.738  1.00  0.00    -0.305 C  
HETATM    2  O   UNL     1      -7.541  10.764  62.920  1.00  0.00    -0.065 OA 
ENDROOT
BRANCH   2   3
HETATM    3  C   UNL     1      -7.066   9.521  63.245  1.00  0.00    -0.103 A  
HETATM    4  C   UNL     1      -6.334   8.744  62.334  1.00  0.00    -0.095 A  
HETATM    5  C   UNL     1      -5.897   7.468  62.678  1.00  0.00    -0.051 A  
HETATM    6  C   UNL     1      -6.201   6.952  63.931  1.00  0.00    -0.036 A  
HETATM    7  C   UNL     1      -6.941   7.713  64.851  1.00  0.00    -0.055 A  
HETATM    8  C   UNL     1      -7.377   8.996  64.519  1.00  0.00    -0.099 A  
HETATM    9  C   UNL     1      -8.132   9.769  65.537  1.00  0.00    -0.125 C  
HETATM   10  O   UNL     1      -8.575  10.892  65.312  1.00  0.00    -0.172 OA 
HETATM   11  C   UNL     1      -8.382   9.200  66.884  1.00  0.00    -0.119 A  
HETATM   12  C   UNL     1      -9.049   9.967  67.865  1.00  0.00    -0.131 A  
HETATM   13  O   UNL     1      -9.444  11.262  67.619  1.00  0.00    -0.164 OA 
HETATM   14  C   UNL     1      -9.379   9.436  69.129  1.00  0.00    -0.159 A  
HETATM   15  H   UNL     1      -9.892  11.777  68.278  1.00  0.00     0.000 HD 
HETATM   16  C   UNL     1      -9.050   8.094  69.403  1.00  0.00    -0.148 A  
HETATM   17  C   UNL     1      -8.325   7.354  68.443  1.00  0.00    -0.125 A  
HETATM   18  C   UNL     1      -9.464   7.444  70.711  1.00  0.00    -0.167 C  
HETATM   19  C   UNL     1     -10.552   8.188  71.506  1.00  0.00    -0.228 C  
HETATM   20  C   UNL     1      -7.993   7.896  67.183  1.00  0.00    -0.117 A  
HETATM   21  O   UNL     1      -7.961   6.063  68.713  1.00  0.00    -0.101 OA 
HETATM   22  C   UNL     1     -10.254  10.250  70.077  1.00  0.00    -0.162 C  
HETATM   23  C   UNL     1      -7.238   7.115  66.168  1.00  0.00    -0.074 C  
HETATM   24  C   UNL     1     -10.256   9.690  71.499  1.00  0.00     0.185 C  
HETATM   25  O   UNL     1     -11.837   7.899  70.955  1.00  0.00    -0.328 OA 
HETATM   26  H   UNL     1      -7.473   5.565  68.068  1.00  0.00     0.000 HD 
HETATM   27  O   UNL     1      -6.824   5.982  66.382  1.00  0.00    -0.058 OA 
HETATM   28  H   UNL     1     -12.509   8.358  71.446  1.00  0.00     0.000 HD 
BRANCH  19  29
HETATM   29  C   UNL     1     -10.597   7.643  72.948  1.00  0.00    -0.354 C  
HETATM   30  O   UNL     1     -11.626   7.658  73.632  1.00  0.00     0.194 OA 
BRANCH  29  31
HETATM   31  C   UNL     1      -9.299   7.098  73.538  1.00  0.00    -0.191 C  
HETATM   32  O   UNL     1      -8.390   8.153  73.827  1.00  0.00    -0.228 OA 
HETATM   33  H   UNL     1      -7.583   7.814  74.194  1.00  0.00     0.000 HD 
ENDBRANCH  29  31
ENDBRANCH  19  29
BRANCH  22  34
HETATM   34  O   UNL     1     -11.520  10.115  69.458  1.00  0.00    -0.229 OA 
BRANCH  34  35
HETATM   35  C   UNL     1     -12.568  11.041  69.660  1.00  0.00    -0.017 C  
HETATM   36  C   UNL     1     -12.353  12.196  70.642  1.00  0.00    -0.385 C  
HETATM   37  C   UNL     1     -11.323  13.224  70.150  1.00  0.00     0.174 C  
HETATM   38  C   UNL     1     -11.520  13.578  68.659  1.00  0.00    -0.308 C  
HETATM   39  N   UNL     1     -11.384  14.446  70.984  1.00  0.00    -0.501 NA 
HETATM   40  C   UNL     1     -11.722  12.293  67.845  1.00  0.00    -0.347 C  
HETATM   41  H2  UNL     1     -11.271  14.237  71.976  1.00  0.00     0.000 HD 
HETATM   42  O   UNL     1     -12.651  14.450  68.517  1.00  0.00    -0.533 OA 
HETATM   43  H1  UNL     1     -10.699  15.128  70.658  1.00  0.00     0.000 HD 
HETATM   44  C   UNL     1     -11.949  12.539  66.364  1.00  0.00    -0.386 C  
HETATM   45  H   UNL     1     -12.773  14.669  67.601  1.00  0.00     0.000 HD 
HETATM   46  O   UNL     1     -12.850  11.561  68.358  1.00  0.00     0.724 OA 
ENDBRANCH  34  35
ENDBRANCH  22  34
ENDBRANCH   2   3
TORSDOF 5
ENDMDL
