MODEL       45
REMARK 921   NORMALIZED FREE ENERGY PREDICTED BY IDOCK:   -6.62 KCAL/MOL
REMARK 922        TOTAL FREE ENERGY PREDICTED BY IDOCK:  -11.08 KCAL/MOL
REMARK 923 INTER-LIGAND FREE ENERGY PREDICTED BY IDOCK:   -9.91 KCAL/MOL
REMARK 924 INTRA-LIGAND FREE ENERGY PREDICTED BY IDOCK:   -1.17 KCAL/MOL
REMARK 927      BINDING AFFINITY PREDICTED BY RF-SCORE:    0.00 PKD
ROOT
HETATM    1  C   UNK A   0      -9.436  10.124  63.901  1.00  0.00    -0.275 C  
HETATM    2  N   UNK A   0      -9.485  10.081  65.360  1.00  0.00    -0.229 NA 
ENDROOT
BRANCH   2   3
HETATM    3  C   UNK A   0      -9.772  11.241  66.068  1.00  0.00    -0.220 A  
HETATM    4  C   UNK A   0     -10.320  13.786  67.186  1.00  0.00    -0.261 A  
HETATM    5  C   UNK A   0      -8.795  11.957  66.783  1.00  0.00    -0.193 A  
HETATM    6  C   UNK A   0     -11.063  11.791  66.038  1.00  0.00    -0.363 A  
HETATM    7  C   UNK A   0     -11.337  13.053  66.573  1.00  0.00    -0.359 A  
HETATM    8  C   UNK A   0      -9.063  13.210  67.351  1.00  0.00    -0.208 A  
BRANCH   4   9
HETATM    9  C   UNK A   0     -10.559  15.176  67.643  1.00  0.00    -0.263 C  
HETATM   10  O   UNK A   0     -11.481  15.441  68.401  1.00  0.00    -0.326 OA 
ATOM     11  N   GLU A   1      -9.643  16.118  67.189  1.00  0.00    -0.227 N  
ATOM     12  H   GLU A   1      -8.935  15.859  66.503  1.00  0.00     0.000 HD 
BRANCH  11  13
ATOM     13  CA  GLU A   1      -9.705  17.496  67.712  1.00  0.00    -0.274 C  
ATOM     14  OXT GLU A   1     -10.969  19.471  67.009  1.00  0.00    -0.477 OA 
ATOM     15  C   GLU A   1     -10.506  18.374  66.732  1.00  0.00    -0.385 C  
ATOM     16  O   GLU A   1     -10.504  17.889  65.464  1.00  0.00    -0.650 OA 
BRANCH  13  17
ATOM     17  CB  GLU A   1      -8.288  18.064  67.884  1.00  0.00    -0.249 C  
BRANCH  17  18
ATOM     18  CG  GLU A   1      -7.369  17.754  66.699  1.00  0.00    -0.262 C  
ATOM     19  OE2 GLU A   1      -7.461  20.105  66.113  1.00  0.00    -0.292 OA 
ATOM     20  OE1 GLU A   1      -6.204  18.705  64.860  1.00  0.00    -0.391 OA 
ATOM     21  CD  GLU A   1      -7.041  18.981  65.887  1.00  0.00    -0.263 C  
ENDBRANCH  17  18
ENDBRANCH  13  17
ENDBRANCH  11  13
ENDBRANCH   4   9
ENDBRANCH   2   3
BRANCH   2  22
HETATM   22  C   UNK A   0      -8.818   8.952  66.035  1.00  0.00    -0.172 C  
BRANCH  22  23
HETATM   23  C   UNK A   0      -9.653   8.291  67.114  1.00  0.00    -0.180 A  
HETATM   24  N   UNK A   0      -9.535   9.634  71.108  1.00  0.00    -0.327 NA 
HETATM   25  C   UNK A   0     -11.196   7.118  69.066  1.00  0.00     0.070 A  
HETATM   26  C   UNK A   0     -10.569   7.290  66.844  1.00  0.00    -0.305 A  
HETATM   27  N   UNK A   0     -11.912   6.498  70.000  1.00  0.00    -0.567 NA 
HETATM   28  C   UNK A   0     -10.277   8.519  70.688  1.00  0.00    -0.197 A  
HETATM   29  C   UNK A   0     -10.308   8.162  69.344  1.00  0.00    -0.218 A  
HETATM   30  N   UNK A   0     -11.336   6.704  67.800  1.00  0.00    -0.663 NA 
HETATM   31  C   UNK A   0     -11.757   6.891  71.258  1.00  0.00    -0.328 A  
HETATM   32  H1  UNK A   0      -8.992  10.098  70.379  1.00  0.00     0.000 HD 
HETATM   33  H1  UNK A   0     -12.335   6.515  73.199  1.00  0.00     0.000 HD 
HETATM   34  N   UNK A   0     -12.455   6.213  72.233  1.00  0.00    -0.479 NA 
HETATM   35  N   UNK A   0     -10.990   7.909  71.645  1.00  0.00    -0.233 NA 
HETATM   36  N   UNK A   0      -9.529   8.752  68.381  1.00  0.00    -0.140 NA 
HETATM   37  H2  UNK A   0      -8.927   9.377  71.886  1.00  0.00     0.000 HD 
HETATM   38  H2  UNK A   0     -13.071   5.435  71.995  1.00  0.00     0.000 HD 
ENDBRANCH  22  23
ENDBRANCH   2  22
TORSDOF 7
ENDMDL
