MODEL        2
REMARK 921   NORMALIZED FREE ENERGY PREDICTED BY IDOCK:   -7.90 KCAL/MOL
REMARK 922        TOTAL FREE ENERGY PREDICTED BY IDOCK:  -11.56 KCAL/MOL
REMARK 923 INTER-LIGAND FREE ENERGY PREDICTED BY IDOCK:  -11.41 KCAL/MOL
REMARK 924 INTRA-LIGAND FREE ENERGY PREDICTED BY IDOCK:   -0.15 KCAL/MOL
REMARK 927      BINDING AFFINITY PREDICTED BY RF-SCORE:    0.00 PKD
ROOT
HETATM    1  C   UNL     1      -9.307   3.352  71.145  1.00  0.00    -0.208 C  
HETATM    2  C   UNL     1     -10.275   4.018  72.088  1.00  0.00    -0.140 C  
HETATM    3  O   UNL     1     -10.517   3.516  73.185  1.00  0.00    -0.155 OA 
HETATM    4  N   UNL     1     -10.782   5.243  71.697  1.00  0.00    -0.196 N  
HETATM    5  C   UNL     1     -11.587   6.008  72.656  1.00  0.00    -0.221 C  
HETATM    6  C   UNL     1     -11.330   7.517  72.515  1.00  0.00    -0.334 C  
HETATM    7  N   UNL     1     -11.562   7.926  71.111  1.00  0.00    -0.278 NA 
HETATM    8  C   UNL     1     -10.896   5.701  70.300  1.00  0.00    -0.266 C  
HETATM    9  C   UNL     1     -10.678   7.220  70.162  1.00  0.00    -0.244 C  
ENDROOT
BRANCH   7  10
HETATM   10  C   UNL     1     -11.807   9.270  70.841  1.00  0.00    -0.282 A  
HETATM   11  C   UNL     1     -11.176   9.950  69.803  1.00  0.00    -0.279 A  
HETATM   12  C   UNL     1     -11.341  11.322  69.624  1.00  0.00    -0.359 A  
HETATM   13  C   UNL     1     -12.136  12.076  70.490  1.00  0.00    -0.311 A  
HETATM   14  C   UNL     1     -12.652  10.023  71.677  1.00  0.00    -0.524 A  
HETATM   15  C   UNL     1     -12.813  11.408  71.510  1.00  0.00    -0.508 A  
BRANCH  13  16
HETATM   16  O   UNL     1     -12.294  13.445  70.415  1.00  0.00    -0.336 OA 
BRANCH  16  17
HETATM   17  C   UNL     1     -12.282  13.949  69.076  1.00  0.00    -0.239 C  
BRANCH  17  18
HETATM   18  C   UNL     1     -10.994  14.656  68.680  1.00  0.00    -0.256 C  
HETATM   19  C   UNL     1     -10.059  13.809  67.862  1.00  0.00    -0.246 C  
HETATM   20  O   UNL     1      -9.376  14.748  67.037  1.00  0.00    -0.214 OA 
HETATM   21  C   UNL     1     -10.286  15.857  66.822  1.00  0.00    -0.298 C  
HETATM   22  O   UNL     1     -11.329  15.752  67.812  1.00  0.00    -0.322 OA 
BRANCH  21  23
HETATM   23  C   UNL     1      -9.564  17.191  67.031  1.00  0.00    -0.262 A  
HETATM   24 CL   UNL     1      -7.971  16.146  69.038  1.00  0.00    -0.227 Cl 
HETATM   25  C   UNL     1      -8.545  17.392  67.985  1.00  0.00    -0.240 A  
HETATM   26  C   UNL     1      -9.915  18.295  66.223  1.00  0.00    -0.361 A  
HETATM   27  C   UNL     1      -9.280  19.531  66.353  1.00  0.00    -0.426 A  
HETATM   28  C   UNL     1      -7.916  18.638  68.121  1.00  0.00    -0.312 A  
HETATM   29 CL   UNL     1      -7.485  21.215  67.452  1.00  0.00    -0.287 Cl 
HETATM   30  C   UNL     1      -8.280  19.698  67.301  1.00  0.00    -0.296 A  
ENDBRANCH  21  23
BRANCH  21  31
HETATM   31  C   UNL     1     -10.942  15.688  65.426  1.00  0.00    -0.333 C  
BRANCH  31  32
HETATM   32  N   UNL     1     -11.489  14.385  65.121  1.00  0.00    -0.347 NA 
HETATM   33  N   UNL     1     -13.025  12.825  64.755  1.00  0.00    -0.844 NA 
HETATM   34  C   UNL     1     -10.868  13.392  64.405  1.00  0.00    -0.406 A  
HETATM   35  C   UNL     1     -12.784  13.990  65.320  1.00  0.00    -0.439 A  
HETATM   36  C   UNL     1     -11.842  12.454  64.170  1.00  0.00    -0.413 A  
ENDBRANCH  31  32
ENDBRANCH  21  31
ENDBRANCH  17  18
ENDBRANCH  16  17
ENDBRANCH  13  16
ENDBRANCH   7  10
TORSDOF 7
ENDMDL
