MODEL       35
REMARK 921   NORMALIZED FREE ENERGY PREDICTED BY IDOCK:   -5.38 KCAL/MOL
REMARK 922        TOTAL FREE ENERGY PREDICTED BY IDOCK:   -9.40 KCAL/MOL
REMARK 923 INTER-LIGAND FREE ENERGY PREDICTED BY IDOCK:   -8.53 KCAL/MOL
REMARK 924 INTRA-LIGAND FREE ENERGY PREDICTED BY IDOCK:   -0.86 KCAL/MOL
REMARK 927      BINDING AFFINITY PREDICTED BY RF-SCORE:    0.00 PKD
ROOT
HETATM    1  C   UNL     1      -6.825  16.600  66.808  1.00  0.00    -0.217 C  
ENDROOT
BRANCH   1   2
HETATM    2  N   UNL     1      -7.443  15.479  66.667  1.00  0.00    -0.254 NA 
HETATM    3  H   UNL     1      -7.751  15.159  65.749  1.00  0.00     0.000 HD 
BRANCH   2   4
HETATM    4  C   UNL     1      -7.688  14.677  67.872  1.00  0.00    -0.141 C  
HETATM    5  C   UNL     1     -10.532  12.858  67.690  1.00  0.00    -0.224 C  
HETATM    6  O   UNL     1      -7.632  12.198  67.156  1.00  0.00    -0.148 OA 
HETATM    7  C   UNL     1      -8.083  13.180  67.702  1.00  0.00    -0.176 C  
HETATM    8  C   UNL     1      -9.157  14.837  68.372  1.00  0.00    -0.188 C  
HETATM    9  C   UNL     1     -10.887  13.835  66.539  1.00  0.00    -0.287 C  
HETATM   10  N   UNL     1      -9.300  13.370  68.305  1.00  0.00    -0.212 N  
HETATM   11  S   UNL     1     -10.410  15.502  67.181  1.00  0.00    -0.276 SA 
HETATM   12  C   UNL     1     -10.091  13.536  65.254  1.00  0.00    -0.277 C  
HETATM   13  C   UNL     1     -12.369  13.884  66.132  1.00  0.00    -0.504 C  
BRANCH   5  14
HETATM   14  C   UNL     1     -11.672  12.713  68.720  1.00  0.00    -0.323 C  
HETATM   15  O   UNL     1     -12.053  13.637  69.433  1.00  0.00    -0.326 OA 
BRANCH  14  16
HETATM   16  O   UNL     1     -12.166  11.450  68.783  1.00  0.00    -0.502 OA 
BRANCH  16  17
HETATM   17  C   UNL     1     -12.657  11.043  70.065  1.00  0.00    -0.175 C  
BRANCH  17  18
HETATM   18  O   UNL     1     -11.646  10.381  70.830  1.00  0.00    -0.340 OA 
BRANCH  18  19
HETATM   19  C   UNL     1     -12.089   9.333  71.575  1.00  0.00    -0.361 C  
HETATM   20  O   UNL     1     -13.146   9.323  72.193  1.00  0.00    -0.386 OA 
BRANCH  19  21
HETATM   21  C   UNL     1     -11.092   8.170  71.544  1.00  0.00    -0.302 C  
HETATM   22  C   UNL     1     -10.894   7.613  72.960  1.00  0.00    -0.457 C  
HETATM   23  C   UNL     1      -9.752   8.652  70.973  1.00  0.00    -0.266 C  
HETATM   24  C   UNL     1     -11.645   7.054  70.642  1.00  0.00    -0.379 C  
ENDBRANCH  19  21
ENDBRANCH  18  19
ENDBRANCH  17  18
ENDBRANCH  16  17
ENDBRANCH  14  16
ENDBRANCH   5  14
ENDBRANCH   2   4
ENDBRANCH   1   2
BRANCH   1  25
HETATM   25  N   UNL     1      -7.454  17.794  67.078  1.00  0.00    -0.192 NA 
HETATM   26  C   UNL     1      -7.393  18.409  68.400  1.00  0.00    -0.276 C  
HETATM   27  C   UNL     1      -8.000  18.609  65.991  1.00  0.00    -0.127 C  
HETATM   28  C   UNL     1      -7.132  19.835  65.695  1.00  0.00    -0.331 C  
HETATM   29  C   UNL     1      -6.167  19.312  68.503  1.00  0.00    -0.262 C  
HETATM   30  C   UNL     1      -7.268  20.920  66.761  1.00  0.00    -0.252 C  
HETATM   31  C   UNL     1      -6.380  20.739  67.993  1.00  0.00    -0.371 C  
ENDBRANCH   1  25
TORSDOF 9
ENDMDL
