MODEL        9
REMARK 921   NORMALIZED FREE ENERGY PREDICTED BY IDOCK:   -5.30 KCAL/MOL
REMARK 922        TOTAL FREE ENERGY PREDICTED BY IDOCK:  -10.22 KCAL/MOL
REMARK 923 INTER-LIGAND FREE ENERGY PREDICTED BY IDOCK:   -8.62 KCAL/MOL
REMARK 924 INTRA-LIGAND FREE ENERGY PREDICTED BY IDOCK:   -1.60 KCAL/MOL
REMARK 927      BINDING AFFINITY PREDICTED BY RF-SCORE:    0.00 PKD
ROOT
HETATM    1  C   UNL     1     -12.351  12.860  64.008  1.00  0.00    -0.457 C  
HETATM    2  C   UNL     1     -10.981  12.977  64.617  1.00  0.00    -0.342 C  
HETATM    3  O   UNL     1      -9.986  13.001  63.887  1.00  0.00    -0.311 OA 
HETATM    4  N   UNL     1     -10.897  13.039  66.011  1.00  0.00    -0.270 N  
ENDROOT
BRANCH   4   5
HETATM    5  C   UNL     1      -9.587  13.218  66.564  1.00  0.00    -0.264 A  
HETATM    6  C   UNL     1      -7.198  13.562  67.998  1.00  0.00    -0.125 A  
HETATM    7  C   UNL     1      -8.813  12.082  66.922  1.00  0.00    -0.197 A  
HETATM    8  C   UNL     1      -9.091  14.524  66.805  1.00  0.00    -0.261 A  
HETATM    9  I   UNL     1     -10.194  16.212  66.002  1.00  0.00    -0.378 I  
HETATM   10  I   UNL     1      -9.520  10.145  66.259  1.00  0.00    -0.279 I  
HETATM   11  C   UNL     1      -7.897  14.711  67.538  1.00  0.00    -0.212 A  
HETATM   12  I   UNL     1      -5.620  13.823  69.473  1.00  0.00    -0.107 I  
HETATM   13  C   UNL     1      -7.611  12.240  67.642  1.00  0.00    -0.144 A  
BRANCH  11  14
HETATM   14  C   UNL     1      -7.486  16.095  67.920  1.00  0.00    -0.128 C  
HETATM   15  O   UNL     1      -8.017  16.662  68.869  1.00  0.00    -0.230 OA 
HETATM   16  N   UNL     1      -6.498  16.684  67.162  1.00  0.00    -0.172 N  
HETATM   17  H   UNL     1      -6.074  16.159  66.397  1.00  0.00     0.000 HD 
BRANCH  16  18
HETATM   18  C   UNL     1      -6.047  18.048  67.435  1.00  0.00    -0.151 C  
BRANCH  18  19
HETATM   19  C   UNL     1      -6.711  19.067  66.503  1.00  0.00    -0.194 C  
HETATM   20  H   UNL     1      -7.568  19.031  64.735  1.00  0.00     0.000 HD 
HETATM   21  O   UNL     1      -7.156  18.399  65.313  1.00  0.00    -0.530 OA 
BRANCH  19  22
HETATM   22  C   UNL     1      -7.883  19.780  67.194  1.00  0.00    -0.273 C  
HETATM   23  O   UNL     1      -7.918  19.493  68.591  1.00  0.00    -0.350 OA 
HETATM   24  H   UNL     1      -8.643  19.934  69.018  1.00  0.00     0.000 HD 
ENDBRANCH  19  22
ENDBRANCH  18  19
ENDBRANCH  16  18
ENDBRANCH  11  14
BRANCH  13  25
HETATM   25  C   UNL     1      -6.721  11.079  67.978  1.00  0.00    -0.063 C  
HETATM   26  O   UNL     1      -5.818  10.770  67.208  1.00  0.00    -0.044 OA 
HETATM   27  H   UNL     1      -7.678  10.692  69.797  1.00  0.00     0.000 HD 
HETATM   28  N   UNL     1      -6.952  10.382  69.150  1.00  0.00    -0.063 N  
BRANCH  28  29
HETATM   29  C   UNL     1      -6.154   9.201  69.458  1.00  0.00    -0.036 C  
BRANCH  29  30
HETATM   30  C   UNL     1      -6.271   8.770  70.927  1.00  0.00    -0.043 C  
HETATM   31  H   UNL     1      -6.155   9.648  72.684  1.00  0.00     0.000 HD 
HETATM   32  O   UNL     1      -6.083   9.915  71.775  1.00  0.00    -0.300 OA 
BRANCH  30  33
HETATM   33  C   UNL     1      -7.640   8.126  71.208  1.00  0.00    -0.083 C  
HETATM   34  O   UNL     1      -8.502   9.018  71.911  1.00  0.00    -0.363 OA 
HETATM   35  H   UNL     1      -9.348   8.620  72.085  1.00  0.00     0.000 HD 
ENDBRANCH  30  33
ENDBRANCH  29  30
ENDBRANCH  28  29
ENDBRANCH  13  25
ENDBRANCH   4   5
BRANCH   4  36
HETATM   36  C   UNL     1     -12.058  12.985  66.942  1.00  0.00    -0.285 C  
BRANCH  36  37
HETATM   37  C   UNL     1     -11.783  13.276  68.442  1.00  0.00    -0.354 C  
HETATM   38  O   UNL     1     -12.634  14.303  68.973  1.00  0.00    -0.527 OA 
HETATM   39  H   UNL     1     -12.466  14.481  69.891  1.00  0.00     0.000 HD 
BRANCH  37  40
HETATM   40  C   UNL     1     -11.961  12.052  69.346  1.00  0.00    -0.275 C  
HETATM   41  O   UNL     1     -12.405  10.939  68.562  1.00  0.00    -0.807 OA 
HETATM   42  H   UNL     1     -12.516  10.181  69.122  1.00  0.00     0.000 HD 
ENDBRANCH  37  40
ENDBRANCH  36  37
ENDBRANCH   4  36
TORSDOF 12
ENDMDL
