MODEL        5
REMARK 921   NORMALIZED FREE ENERGY PREDICTED BY IDOCK:   -7.76 KCAL/MOL
REMARK 922        TOTAL FREE ENERGY PREDICTED BY IDOCK:  -11.71 KCAL/MOL
REMARK 923 INTER-LIGAND FREE ENERGY PREDICTED BY IDOCK:  -10.30 KCAL/MOL
REMARK 924 INTRA-LIGAND FREE ENERGY PREDICTED BY IDOCK:   -1.41 KCAL/MOL
REMARK 927      BINDING AFFINITY PREDICTED BY RF-SCORE:    0.00 PKD
ROOT
HETATM    1  C   UNL     1     -10.655   9.129  70.463  1.00  0.00    -0.235 C  
HETATM    2  C   UNL     1     -10.108   9.801  69.201  1.00  0.00    -0.200 C  
HETATM    3  C   UNL     1     -10.789  11.154  69.227  1.00  0.00    -0.229 C  
HETATM    4  C   UNL     1     -10.359   8.939  67.970  1.00  0.00    -0.271 C  
HETATM    5  O   UNL     1     -13.676   9.592  71.711  1.00  0.00    -0.363 OA 
HETATM    6  C   UNL     1     -11.556  11.284  70.328  1.00  0.00    -0.275 C  
HETATM    7  C   UNL     1     -11.903   8.191  70.506  1.00  0.00    -0.010 C  
HETATM    8  N   UNL     1     -11.500  10.155  71.137  1.00  0.00    -0.350 N  
HETATM    9  C   UNL     1     -12.322  12.495  70.755  1.00  0.00    -0.286 C  
HETATM   10  O   UNL     1     -12.079  13.630  70.378  1.00  0.00    -0.332 OA 
HETATM   11  O   UNL     1     -13.342  12.249  71.607  1.00  0.00    -0.342 OA 
HETATM   12  C   UNL     1     -12.574   9.323  71.287  1.00  0.00    -0.306 C  
ENDROOT
BRANCH   3  13
HETATM   13  S   UNL     1     -10.355  12.327  68.040  1.00  0.00    -0.220 SA 
BRANCH  13  14
HETATM   14  C   UNL     1     -11.595  12.132  66.704  1.00  0.00    -0.350 C  
HETATM   15  C   UNL     1     -11.011  11.913  65.313  1.00  0.00    -0.302 C  
HETATM   16  N   UNL     1     -10.610  13.245  64.895  1.00  0.00    -0.344 NA 
HETATM   17  C   UNL     1     -11.641  14.194  65.373  1.00  0.00    -0.334 C  
HETATM   18  C   UNL     1     -12.330  13.470  66.537  1.00  0.00    -0.382 C  
HETATM   19  H   UNL     1     -10.443  13.314  63.891  1.00  0.00     0.000 HD 
BRANCH  17  20
HETATM   20  C   UNL     1     -10.966  15.567  65.652  1.00  0.00    -0.303 C  
HETATM   21  O   UNL     1     -10.810  16.373  64.733  1.00  0.00    -0.697 OA 
HETATM   22  N   UNL     1     -10.679  15.834  66.984  1.00  0.00    -0.317 N  
HETATM   23  H   UNL     1     -10.943  15.118  67.660  1.00  0.00     0.000 HD 
BRANCH  22  24
HETATM   24  C   UNL     1     -10.059  16.999  67.502  1.00  0.00    -0.294 A  
HETATM   25  C   UNL     1     -10.677  18.253  67.554  1.00  0.00    -0.381 A  
HETATM   26  C   UNL     1     -10.016  19.363  68.091  1.00  0.00    -0.510 A  
HETATM   27  C   UNL     1      -8.717  19.242  68.573  1.00  0.00    -0.405 A  
HETATM   28  C   UNL     1      -8.072  18.003  68.499  1.00  0.00    -0.306 A  
HETATM   29  C   UNL     1      -6.686  17.821  68.995  1.00  0.00    -0.246 C  
HETATM   30  C   UNL     1      -8.750  16.883  67.985  1.00  0.00    -0.215 A  
HETATM   31  O   UNL     1      -5.898  18.906  68.836  1.00  0.00    -0.207 OA 
HETATM   32  O   UNL     1      -6.288  16.770  69.466  1.00  0.00    -0.214 OA 
ENDBRANCH  22  24
ENDBRANCH  17  20
ENDBRANCH  13  14
ENDBRANCH   3  13
BRANCH   7  33
HETATM   33  C   UNL     1     -11.668   6.861  71.195  1.00  0.00    -0.336 C  
HETATM   34  O   UNL     1     -12.555   6.816  72.312  1.00  0.00    -0.527 OA 
HETATM   35  H   UNL     1     -12.408   5.982  72.744  1.00  0.00     0.000 HD 
HETATM   36  C   UNL     1     -10.234   6.737  71.686  1.00  0.00    -0.208 C  
ENDBRANCH   7  33
TORSDOF 5
ENDMDL
