MODEL        6
REMARK 921   NORMALIZED FREE ENERGY PREDICTED BY IDOCK:   -4.24 KCAL/MOL
REMARK 922        TOTAL FREE ENERGY PREDICTED BY IDOCK:  -18.62 KCAL/MOL
REMARK 923 INTER-LIGAND FREE ENERGY PREDICTED BY IDOCK:  -12.96 KCAL/MOL
REMARK 924 INTRA-LIGAND FREE ENERGY PREDICTED BY IDOCK:   -5.66 KCAL/MOL
REMARK 927      BINDING AFFINITY PREDICTED BY RF-SCORE:    0.00 PKD
ROOT
HETATM    1  C   UNL     1     -11.307   6.246  69.298  1.00  0.00    -0.411 C  
HETATM    2  C   UNL     1     -10.305   5.242  69.844  1.00  0.00    -0.374 C  
ENDROOT
BRANCH   2   3
HETATM    3  C   UNL     1      -9.532   5.819  71.029  1.00  0.00    -0.195 C  
BRANCH   3   4
HETATM    4  C   UNL     1      -9.254   7.310  70.842  1.00  0.00    -0.155 C  
BRANCH   4   5
HETATM    5  C   UNL     1      -9.621   8.096  72.100  1.00  0.00    -0.308 C  
BRANCH   5   6
HETATM    6  C   UNL     1     -10.874   7.528  72.764  1.00  0.00    -0.397 C  
BRANCH   6   7
HETATM    7  C   UNL     1     -12.049   8.497  72.635  1.00  0.00    -0.305 C  
BRANCH   7   8
HETATM    8  C   UNL     1     -12.218   8.969  71.193  1.00  0.00    -0.331 C  
BRANCH   8   9
HETATM    9  C   UNL     1     -13.195  10.138  71.105  1.00  0.00    -0.438 C  
BRANCH   9  10
HETATM   10  C   UNL     1     -12.445  11.456  70.916  1.00  0.00    -0.478 C  
BRANCH  10  11
HETATM   11  C   UNL     1     -11.420  11.371  69.788  1.00  0.00    -0.376 C  
BRANCH  11  12
HETATM   12  C   UNL     1     -11.589  12.551  68.830  1.00  0.00    -0.366 C  
BRANCH  12  13
HETATM   13  C   UNL     1     -12.039  13.813  69.556  1.00  0.00    -0.386 C  
BRANCH  13  14
HETATM   14  C   UNL     1     -11.137  14.973  69.202  1.00  0.00    -0.270 C  
HETATM   15  O   UNL     1     -11.300  16.128  69.571  1.00  0.00    -0.328 OA 
BRANCH  14  16
HETATM   16  O   UNL     1     -10.083  14.533  68.458  1.00  0.00    -0.228 OA 
BRANCH  16  17
HETATM   17  C   UNL     1      -8.790  14.842  69.006  1.00  0.00    -0.136 C  
BRANCH  17  18
HETATM   18  C   UNL     1      -7.662  14.329  68.100  1.00  0.00    -0.141 C  
BRANCH  18  19
HETATM   19  O   UNL     1      -6.576  13.865  68.937  1.00  0.00    -0.091 OA 
BRANCH  19  20
HETATM   20  C   UNL     1      -6.659  12.579  69.370  1.00  0.00    -0.073 C  
HETATM   21  O   UNL     1      -6.314  12.163  70.466  1.00  0.00    -0.162 OA 
BRANCH  20  22
HETATM   22  C   UNL     1      -7.271  11.711  68.299  1.00  0.00    -0.085 C  
BRANCH  22  23
HETATM   23  C   UNL     1      -6.244  10.772  67.680  1.00  0.00    -0.052 C  
BRANCH  23  24
HETATM   24  C   UNL     1      -6.760   9.336  67.560  1.00  0.00    -0.069 C  
BRANCH  24  25
HETATM   25  C   UNL     1      -8.180   9.215  68.109  1.00  0.00    -0.116 C  
BRANCH  25  26
HETATM   26  C   UNL     1      -9.058   8.391  67.172  1.00  0.00    -0.162 C  
BRANCH  26  27
HETATM   27  C   UNL     1     -10.410   9.061  66.944  1.00  0.00    -0.324 C  
BRANCH  27  28
HETATM   28  C   UNL     1     -10.244  10.379  66.191  1.00  0.00    -0.288 C  
BRANCH  28  29
HETATM   29  C   UNL     1      -9.809  10.135  64.748  1.00  0.00    -0.382 C  
BRANCH  29  30
HETATM   30  C   UNL     1     -10.327  11.237  63.828  1.00  0.00    -0.453 C  
BRANCH  30  31
HETATM   31  C   UNL     1     -11.678  11.767  64.307  1.00  0.00    -0.333 C  
BRANCH  31  32
HETATM   32  C   UNL     1     -12.156  12.921  63.428  1.00  0.00    -0.610 C  
BRANCH  32  33
HETATM   33  C   UNL     1     -12.345  14.197  64.245  1.00  0.00    -0.398 C  
HETATM   34  C   UNL     1     -12.678  13.880  65.693  1.00  0.00    -0.534 C  
ENDBRANCH  32  33
ENDBRANCH  31  32
ENDBRANCH  30  31
ENDBRANCH  29  30
ENDBRANCH  28  29
ENDBRANCH  27  28
ENDBRANCH  26  27
ENDBRANCH  25  26
ENDBRANCH  24  25
ENDBRANCH  23  24
ENDBRANCH  22  23
ENDBRANCH  20  22
ENDBRANCH  19  20
ENDBRANCH  18  19
BRANCH  18  35
HETATM   35  C   UNL     1      -7.132  15.478  67.246  1.00  0.00    -0.190 C  
BRANCH  35  36
HETATM   36  O   UNL     1      -6.460  16.455  68.053  1.00  0.00    -0.124 OA 
BRANCH  36  37
HETATM   37  P   UNL     1      -7.038  18.067  67.814  1.00  0.00    -0.212 P  
HETATM   38  O   UNL     1      -7.676  17.595  66.389  1.00  0.00    -0.246 OA 
HETATM   39  O   UNL     1      -7.995  17.825  68.963  1.00  0.00    -0.205 OA 
BRANCH  37  40
HETATM   40  O   UNL     1      -7.616  19.680  67.574  1.00  0.00    -0.251 OA 
BRANCH  40  41
HETATM   41  C   UNL     1      -8.435  19.920  66.392  1.00  0.00    -0.341 C  
BRANCH  41  42
HETATM   42  C   UNL     1      -9.919  20.320  66.604  1.00  0.00    -0.426 C  
HETATM   43  H   UNL     1     -11.648  20.051  65.678  1.00  0.00     0.000 HD 
HETATM   44  O   UNL     1     -10.739  19.806  65.548  1.00  0.00    -0.479 OA 
BRANCH  42  45
HETATM   45  C   UNL     1     -10.484  19.876  67.961  1.00  0.00    -0.350 C  
HETATM   46  O   UNL     1     -10.643  18.452  68.010  1.00  0.00    -0.381 OA 
HETATM   47  H   UNL     1     -10.992  18.177  68.849  1.00  0.00     0.000 HD 
ENDBRANCH  42  45
ENDBRANCH  41  42
ENDBRANCH  40  41
ENDBRANCH  37  40
ENDBRANCH  36  37
ENDBRANCH  35  36
ENDBRANCH  18  35
ENDBRANCH  17  18
ENDBRANCH  16  17
ENDBRANCH  14  16
ENDBRANCH  13  14
ENDBRANCH  12  13
ENDBRANCH  11  12
ENDBRANCH  10  11
ENDBRANCH   9  10
ENDBRANCH   8   9
ENDBRANCH   7   8
ENDBRANCH   6   7
ENDBRANCH   5   6
ENDBRANCH   4   5
ENDBRANCH   3   4
ENDBRANCH   2   3
TORSDOF 36
ENDMDL
