MODEL        3
REMARK 921   NORMALIZED FREE ENERGY PREDICTED BY IDOCK:   -7.15 KCAL/MOL
REMARK 922        TOTAL FREE ENERGY PREDICTED BY IDOCK:  -12.41 KCAL/MOL
REMARK 923 INTER-LIGAND FREE ENERGY PREDICTED BY IDOCK:  -11.40 KCAL/MOL
REMARK 924 INTRA-LIGAND FREE ENERGY PREDICTED BY IDOCK:   -1.02 KCAL/MOL
REMARK 927      BINDING AFFINITY PREDICTED BY RF-SCORE:    0.00 PKD
ROOT
HETATM    1  C   UNL     1     -11.584  16.111  64.393  1.00  0.00    -0.146 C  
HETATM    2  O   UNL     1     -12.446  15.053  63.961  1.00  0.00    -0.796 OA 
ENDROOT
BRANCH   2   3
HETATM    3  C   UNL     1     -12.645  14.101  64.912  1.00  0.00    -0.342 C  
HETATM    4  O   UNL     1     -13.602  14.079  65.671  1.00  0.00    -0.499 OA 
BRANCH   3   5
HETATM    5  C   UNL     1     -11.546  13.098  64.896  1.00  0.00    -0.356 C  
HETATM    6  C   UNL     1     -11.532  12.088  63.992  1.00  0.00    -0.404 C  
HETATM    7  N   UNL     1     -10.462  11.212  63.963  1.00  0.00    -0.362 NA 
HETATM    8  C   UNL     1     -12.589  11.756  62.965  1.00  0.00    -0.049 C  
HETATM    9  C   UNL     1      -9.460  11.146  64.908  1.00  0.00    -0.219 C  
HETATM   10  C   UNL     1      -8.474  10.014  64.722  1.00  0.00    -0.180 C  
HETATM   11  C   UNL     1      -9.414  12.067  65.901  1.00  0.00    -0.207 C  
HETATM   12  C   UNL     1     -10.419  13.227  65.945  1.00  0.00    -0.289 C  
BRANCH  11  13
HETATM   13  C   UNL     1      -8.406  11.878  66.977  1.00  0.00    -0.178 C  
HETATM   14  O   UNL     1      -7.638  12.764  67.321  1.00  0.00    -0.156 OA 
BRANCH  13  15
HETATM   15  O   UNL     1      -8.513  10.665  67.568  1.00  0.00    -0.121 OA 
HETATM   16  C   UNL     1      -7.691   8.687  68.797  1.00  0.00    -0.097 C  
HETATM   17  C   UNL     1      -7.109  11.050  69.521  1.00  0.00    -0.113 C  
HETATM   18  C   UNL     1      -7.366  10.142  68.307  1.00  0.00    -0.081 C  
HETATM   19  C   UNL     1      -6.097  10.007  67.433  1.00  0.00    -0.058 C  
BRANCH  16  20
HETATM   20  N   UNL     1      -8.830   8.474  69.727  1.00  0.00    -0.135 NA 
HETATM   21  C   UNL     1      -9.797   7.531  69.157  1.00  0.00    -0.170 C  
BRANCH  20  22
HETATM   22  C   UNL     1      -8.361   7.890  71.003  1.00  0.00    -0.111 C  
BRANCH  22  23
HETATM   23  C   UNL     1      -8.815   6.459  71.298  1.00  0.00    -0.138 C  
HETATM   24  C   UNL     1      -9.771   6.252  72.502  1.00  0.00    -0.163 C  
HETATM   25  C   UNL     1      -9.811   4.742  72.792  1.00  0.00    -0.184 A  
HETATM   26  C   UNL     1     -11.116   6.955  72.298  1.00  0.00    -0.284 A  
HETATM   27  C   UNL     1      -9.426   4.255  74.051  1.00  0.00    -0.119 A  
HETATM   28  C   UNL     1     -12.217   6.365  71.659  1.00  0.00    -0.271 A  
HETATM   29  C   UNL     1      -9.240   2.884  74.256  1.00  0.00    -0.098 A  
HETATM   30  C   UNL     1     -13.377   7.096  71.389  1.00  0.00    -0.380 A  
HETATM   31  C   UNL     1     -13.465   8.433  71.755  1.00  0.00    -0.388 A  
HETATM   32  C   UNL     1      -9.451   1.980  73.216  1.00  0.00    -0.100 A  
HETATM   33  C   UNL     1      -9.878   2.440  71.977  1.00  0.00    -0.223 A  
HETATM   34  C   UNL     1     -12.399   9.038  72.411  1.00  0.00    -0.350 A  
HETATM   35  C   UNL     1     -11.241   8.302  72.686  1.00  0.00    -0.410 A  
HETATM   36  C   UNL     1     -10.056   3.806  71.768  1.00  0.00    -0.174 A  
ENDBRANCH  22  23
ENDBRANCH  20  22
ENDBRANCH  16  20
ENDBRANCH  13  15
ENDBRANCH  11  13
BRANCH  12  37
HETATM   37  C   UNL     1     -10.979  13.415  67.358  1.00  0.00    -0.287 A  
HETATM   38  O   UNL     1     -10.612  17.041  69.332  1.00  0.00    -0.335 OA 
HETATM   39  C   UNL     1     -10.909  14.676  67.981  1.00  0.00    -0.260 A  
HETATM   40  O   UNL     1     -11.557  16.239  71.142  1.00  0.00    -0.427 OA 
HETATM   41  C   UNL     1     -11.994  12.516  69.377  1.00  0.00    -0.315 A  
HETATM   42  C   UNL     1     -11.326  14.833  69.308  1.00  0.00    -0.294 A  
HETATM   43  N   UNL     1     -11.156  16.132  69.973  1.00  0.00    -0.347 N  
HETATM   44  C   UNL     1     -11.873  13.755  70.009  1.00  0.00    -0.377 A  
HETATM   45  C   UNL     1     -11.546  12.346  68.064  1.00  0.00    -0.403 A  
ENDBRANCH  12  37
ENDBRANCH   3   5
ENDBRANCH   2   3
TORSDOF 8
ENDMDL
