MODEL       25
REMARK 921   NORMALIZED FREE ENERGY PREDICTED BY IDOCK:   -7.08 KCAL/MOL
REMARK 922        TOTAL FREE ENERGY PREDICTED BY IDOCK:  -12.50 KCAL/MOL
REMARK 923 INTER-LIGAND FREE ENERGY PREDICTED BY IDOCK:  -10.78 KCAL/MOL
REMARK 924 INTRA-LIGAND FREE ENERGY PREDICTED BY IDOCK:   -1.73 KCAL/MOL
REMARK 927      BINDING AFFINITY PREDICTED BY RF-SCORE:    0.00 PKD
ROOT
HETATM    1  C   UNL     1     -11.151   4.455  73.763  1.00  0.00    -0.244 C  
HETATM    2  N   UNL     1     -10.057   5.383  73.486  1.00  0.00    -0.175 NA 
HETATM    3  C   UNL     1      -9.556   5.220  72.103  1.00  0.00    -0.151 C  
HETATM    4  C   UNL     1     -10.504   5.757  71.010  1.00  0.00    -0.244 C  
HETATM    5  N   UNL     1     -10.788   7.183  71.274  1.00  0.00    -0.231 NA 
HETATM    6  C   UNL     1     -11.393   7.403  72.595  1.00  0.00    -0.313 C  
HETATM    7  C   UNL     1     -10.475   6.794  73.689  1.00  0.00    -0.347 C  
ENDROOT
BRANCH   5   8
HETATM    8  C   UNL     1     -10.853   8.093  70.236  1.00  0.00    -0.244 A  
HETATM    9  C   UNL     1     -10.259   7.901  68.992  1.00  0.00    -0.216 A  
HETATM   10  C   UNL     1     -10.312   8.894  68.005  1.00  0.00    -0.271 A  
HETATM   11  C   UNL     1     -10.959  10.120  68.242  1.00  0.00    -0.299 A  
HETATM   12  C   UNL     1     -11.656  10.322  69.445  1.00  0.00    -0.146 A  
HETATM   13  C   UNL     1     -11.584   9.285  70.390  1.00  0.00    -0.215 A  
BRANCH  11  14
HETATM   14  C   UNL     1     -10.827  11.157  67.173  1.00  0.00    -0.273 C  
HETATM   15  H   UNL     1     -12.776  11.744  67.517  1.00  0.00     0.000 HD 
HETATM   16  O   UNL     1      -9.734  11.270  66.619  1.00  0.00    -0.190 OA 
HETATM   17  N   UNL     1     -11.955  11.920  66.937  1.00  0.00    -0.094 N  
BRANCH  17  18
HETATM   18  C   UNL     1     -12.052  12.907  65.972  1.00  0.00    -0.422 A  
HETATM   19  C   UNL     1     -11.251  14.096  65.908  1.00  0.00    -0.313 A  
HETATM   20  C   UNL     1     -10.193  14.675  66.632  1.00  0.00    -0.275 A  
HETATM   21  N   UNL     1     -12.934  12.880  64.973  1.00  0.00    -0.815 NA 
HETATM   22  N   UNL     1     -12.736  14.016  64.304  1.00  0.00    -0.638 NA 
HETATM   23  H   UNL     1     -13.614  12.148  64.765  1.00  0.00     0.000 HD 
HETATM   24  C   UNL     1      -9.715  15.960  66.301  1.00  0.00    -0.332 A  
HETATM   25  C   UNL     1     -10.293  16.652  65.229  1.00  0.00    -0.118 A  
HETATM   26  C   UNL     1     -11.769  14.820  64.839  1.00  0.00    -0.390 A  
HETATM   27  C   UNL     1     -11.325  16.091  64.470  1.00  0.00    -0.303 A  
BRANCH  24  28
HETATM   28  C   UNL     1      -8.550  16.561  67.060  1.00  0.00    -0.219 C  
BRANCH  28  29
HETATM   29  C   UNL     1      -8.624  18.049  67.340  1.00  0.00    -0.244 A  
HETATM   30  C   UNL     1      -7.699  18.978  66.838  1.00  0.00    -0.253 A  
HETATM   31  C   UNL     1      -7.866  20.342  67.072  1.00  0.00    -0.329 A  
HETATM   32  F   UNL     1      -6.979  21.207  66.563  1.00  0.00    -0.305 F  
HETATM   33  C   UNL     1      -8.938  20.820  67.809  1.00  0.00    -0.093 A  
HETATM   34  C   UNL     1      -9.840  19.906  68.330  1.00  0.00    -0.399 A  
HETATM   35  C   UNL     1      -9.695  18.538  68.106  1.00  0.00    -0.367 A  
HETATM   36  F   UNL     1     -10.879  20.345  69.053  1.00  0.00    -0.316 F  
ENDBRANCH  28  29
ENDBRANCH  24  28
ENDBRANCH  17  18
ENDBRANCH  11  14
BRANCH  12  37
HETATM   37  N   UNL     1     -12.320  11.521  69.736  1.00  0.00    -0.203 NA 
HETATM   38  H   UNL     1     -13.211  11.709  69.276  1.00  0.00     0.000 HD 
BRANCH  37  39
HETATM   39  C   UNL     1     -11.788  12.521  70.678  1.00  0.00     0.076 C  
HETATM   40  C   UNL     1     -12.742  12.923  71.806  1.00  0.00    -0.250 C  
HETATM   41  O   UNL     1     -13.331  14.967  70.622  1.00  0.00    -0.333 OA 
HETATM   42  C   UNL     1     -12.595  14.572  69.465  1.00  0.00    -0.002 C  
HETATM   43  C   UNL     1     -11.379  13.762  69.887  1.00  0.00    -0.150 C  
HETATM   44  C   UNL     1     -13.854  13.846  71.331  1.00  0.00    -0.131 C  
ENDBRANCH  37  39
ENDBRANCH  12  37
ENDBRANCH   5   8
TORSDOF 7
ENDMDL
