MODEL      246
REMARK 921   NORMALIZED FREE ENERGY PREDICTED BY IDOCK:    2.52 KCAL/MOL
REMARK 922        TOTAL FREE ENERGY PREDICTED BY IDOCK:    2.28 KCAL/MOL
REMARK 923 INTER-LIGAND FREE ENERGY PREDICTED BY IDOCK:   -2.94 KCAL/MOL
REMARK 924 INTRA-LIGAND FREE ENERGY PREDICTED BY IDOCK:    5.23 KCAL/MOL
REMARK 927      BINDING AFFINITY PREDICTED BY RF-SCORE:    0.00 PKD
ROOT
HETATM    1  C   UNK A   0      -9.055  19.795  66.971  1.00  0.00    -0.340 C  
HETATM    2  N   UNK A   0      -9.247  18.437  67.181  1.00  0.00    -0.260 N  
HETATM    3  O   UNK A   0      -8.335  20.542  67.627  1.00  0.00    -0.277 OA 
HETATM    4  C   UNK A   0      -8.549  17.706  68.301  1.00  0.00    -0.268 C  
HETATM    5  C   UNK A   0      -8.028  16.352  67.765  1.00  0.00    -0.149 C  
HETATM    6  C   UNK A   0     -11.740  16.057  64.819  1.00  0.00     0.012 C  
HETATM    7  H   UNK A   0     -12.408  17.780  63.929  1.00  0.00     0.000 HD 
HETATM    8  N   UNK A   0      -9.146  15.638  67.172  1.00  0.00    -0.203 NA 
HETATM    9  H   UNK A   0      -9.245  14.636  67.338  1.00  0.00     0.000 HD 
HETATM   10  H2  UNK A   0     -13.255  15.736  63.432  1.00  0.00     0.000 HD 
HETATM   11  C   UNK A   0     -10.079  16.294  66.386  1.00  0.00    -0.305 C  
HETATM   12  O   UNK A   0     -11.502  19.438  65.540  1.00  0.00     0.212 OA 
HETATM   13  C   UNK A   0     -10.124  17.655  66.387  1.00  0.00    -0.356 C  
HETATM   14  H1  UNK A   0     -12.515  14.297  64.176  1.00  0.00     0.000 HD 
HETATM   15  C   UNK A   0     -11.175  18.255  65.508  1.00  0.00     0.932 C  
HETATM   16  N   UNK A   0     -10.901  15.501  65.625  1.00  0.00    -0.346 NA 
HETATM   17  N   UNK A   0     -12.584  15.309  64.071  1.00  0.00    -0.831 NA 
HETATM   18  N   UNK A   0     -11.831  17.399  64.679  1.00  0.00     2.034 N  
ENDROOT
BRANCH   4  19
HETATM   19  C   UNK A   0      -7.410  18.460  69.022  1.00  0.00    -0.208 C  
BRANCH  19  20
HETATM   20  N   UNK A   0      -6.091  17.876  68.728  1.00  0.00    -0.190 NA 
HETATM   21  H   UNK A   0      -5.307  18.457  68.430  1.00  0.00     0.000 HD 
BRANCH  20  22
HETATM   22  C   UNK A   0      -5.959  16.491  68.874  1.00  0.00    -0.143 A  
HETATM   23  C   UNK A   0      -5.948  14.574  70.380  1.00  0.00    -0.165 A  
HETATM   24  C   UNK A   0      -5.986  13.709  69.281  1.00  0.00    -0.090 A  
HETATM   25  C   UNK A   0      -5.871  15.606  67.792  1.00  0.00    -0.163 A  
HETATM   26  C   UNK A   0      -5.924  15.959  70.169  1.00  0.00    -0.134 A  
HETATM   27  C   UNK A   0      -5.892  14.227  67.988  1.00  0.00    -0.138 A  
BRANCH  24  28
HETATM   28  C   UNK A   0      -6.127  12.249  69.493  1.00  0.00    -0.118 C  
ATOM     29  H   GLU A   1      -8.097  12.298  68.777  1.00  0.00     0.000 HD 
ATOM     30  N   GLU A   1      -7.375  11.715  69.201  1.00  0.00    -0.075 N  
HETATM   31  O   UNK A   0      -5.198  11.584  69.931  1.00  0.00    -0.057 OA 
BRANCH  30  32
ATOM     32  CA  GLU A   1      -7.650  10.298  69.508  1.00  0.00    -0.150 C  
ATOM     33  C   GLU A   1      -6.537   9.420  68.906  1.00  0.00    -0.047 C  
ATOM     34  O   GLU A   1      -5.910  10.002  67.854  1.00  0.00    -0.039 OA 
ATOM     35  OXT GLU A   1      -6.331   8.256  69.223  1.00  0.00    -0.037 OA 
BRANCH  32  36
ATOM     36  CB  GLU A   1      -9.013   9.885  68.932  1.00  0.00    -0.153 C  
BRANCH  36  37
ATOM     37  CG  GLU A   1      -9.451   8.485  69.376  1.00  0.00    -0.161 C  
ATOM     38  CD  GLU A   1     -10.533   8.523  70.425  1.00  0.00    -0.207 C  
ATOM     39  OE2 GLU A   1     -11.017   9.539  70.898  1.00  0.00    -0.281 OA 
ATOM     40  OE1 GLU A   1     -10.933   7.284  70.790  1.00  0.00    -0.240 OA 
ENDBRANCH  36  37
ENDBRANCH  32  36
ENDBRANCH  30  32
ENDBRANCH  24  28
ENDBRANCH  20  22
ENDBRANCH  19  20
ENDBRANCH   4  19
TORSDOF 7
ENDMDL
