MODEL       26
REMARK 921   NORMALIZED FREE ENERGY PREDICTED BY IDOCK:   -6.36 KCAL/MOL
REMARK 922        TOTAL FREE ENERGY PREDICTED BY IDOCK:  -10.44 KCAL/MOL
REMARK 923 INTER-LIGAND FREE ENERGY PREDICTED BY IDOCK:   -8.94 KCAL/MOL
REMARK 924 INTRA-LIGAND FREE ENERGY PREDICTED BY IDOCK:   -1.50 KCAL/MOL
REMARK 927      BINDING AFFINITY PREDICTED BY RF-SCORE:    0.00 PKD
ROOT
HETATM    1  C   UNL     1      -9.836   4.560  70.160  1.00  0.00    -0.296 C  
HETATM    2  C   UNL     1      -9.412   5.328  68.910  1.00  0.00    -0.128 C  
HETATM    3  C   UNL     1      -8.729   4.355  67.025  1.00  0.00    -0.108 A  
HETATM    4  C   UNL     1     -10.566   5.450  67.879  1.00  0.00    -0.090 C  
HETATM    5  N   UNL     1      -9.964   4.813  66.739  1.00  0.00    -0.209 NA 
HETATM    6  O   UNL     1      -9.824   3.474  62.874  1.00  0.00    -0.112 OA 
HETATM    7  C   UNL     1     -10.271   4.532  65.463  1.00  0.00    -0.231 A  
HETATM    8  O   UNL     1      -8.327   4.575  68.264  1.00  0.00    -0.090 OA 
HETATM    9  O   UNL     1      -7.821   2.772  63.470  1.00  0.00    -0.070 OA 
HETATM   10  C   UNL     1      -9.126   3.877  65.013  1.00  0.00    -0.142 A  
HETATM   11  N   UNL     1      -8.155   3.774  66.012  1.00  0.00    -0.100 NA 
HETATM   12  N   UNL     1      -8.902   3.333  63.692  1.00  0.00    -0.092 N  
ENDROOT
BRANCH   2  13
HETATM   13  C   UNL     1      -8.851   6.702  69.270  1.00  0.00    -0.133 C  
BRANCH  13  14
HETATM   14  O   UNL     1      -9.723   7.389  70.172  1.00  0.00    -0.175 OA 
BRANCH  14  15
HETATM   15  C   UNL     1      -9.931   8.700  69.841  1.00  0.00    -0.186 A  
HETATM   16  C   UNL     1     -10.308  11.371  68.901  1.00  0.00    -0.184 A  
HETATM   17  C   UNL     1     -11.046   9.437  70.212  1.00  0.00    -0.299 A  
HETATM   18  C   UNL     1      -8.950   9.320  69.081  1.00  0.00    -0.144 A  
HETATM   19  C   UNL     1     -11.225  10.739  69.747  1.00  0.00    -0.365 A  
HETATM   20  C   UNL     1      -9.139  10.636  68.628  1.00  0.00    -0.170 A  
BRANCH  16  21
HETATM   21  N   UNL     1     -10.532  12.653  68.426  1.00  0.00    -0.234 NA 
HETATM   22  C   UNL     1      -9.466  13.669  68.346  1.00  0.00    -0.190 C  
HETATM   23  C   UNL     1      -9.595  14.419  67.021  1.00  0.00    -0.251 C  
HETATM   24  C   UNL     1     -10.992  15.024  66.860  1.00  0.00    -0.324 C  
HETATM   25  C   UNL     1     -11.870  13.251  68.415  1.00  0.00    -0.360 C  
HETATM   26  C   UNL     1     -12.052  13.937  67.069  1.00  0.00    -0.451 C  
BRANCH  24  27
HETATM   27  O   UNL     1     -11.115  16.077  67.832  1.00  0.00    -0.338 OA 
BRANCH  27  28
HETATM   28  C   UNL     1     -10.403  17.220  67.600  1.00  0.00    -0.350 A  
HETATM   29  C   UNL     1     -10.236  17.814  66.354  1.00  0.00    -0.365 A  
HETATM   30  C   UNL     1      -9.499  18.990  66.233  1.00  0.00    -0.341 A  
HETATM   31  C   UNL     1      -8.912  19.588  67.343  1.00  0.00    -0.307 A  
HETATM   32  C   UNL     1      -9.063  18.988  68.592  1.00  0.00    -0.401 A  
HETATM   33  C   UNL     1      -9.829  17.819  68.722  1.00  0.00    -0.343 A  
BRANCH  31  34
HETATM   34  O   UNL     1      -8.157  20.674  67.050  1.00  0.00    -0.301 OA 
HETATM   35  C   UNL     1      -6.774  20.524  66.783  1.00  0.00    -0.259 C  
HETATM   36  F   UNL     1      -6.505  21.050  65.567  1.00  0.00    -0.280 F  
HETATM   37  F   UNL     1      -6.328  19.254  66.813  1.00  0.00    -0.184 F  
HETATM   38  F   UNL     1      -6.081  21.233  67.706  1.00  0.00    -0.334 F  
ENDBRANCH  31  34
ENDBRANCH  27  28
ENDBRANCH  24  27
ENDBRANCH  16  21
ENDBRANCH  14  15
ENDBRANCH  13  14
ENDBRANCH   2  13
TORSDOF 7
ENDMDL
