MODEL        6
REMARK 921   NORMALIZED FREE ENERGY PREDICTED BY IDOCK:   -6.56 KCAL/MOL
REMARK 922        TOTAL FREE ENERGY PREDICTED BY IDOCK:  -11.93 KCAL/MOL
REMARK 923 INTER-LIGAND FREE ENERGY PREDICTED BY IDOCK:  -11.03 KCAL/MOL
REMARK 924 INTRA-LIGAND FREE ENERGY PREDICTED BY IDOCK:   -0.90 KCAL/MOL
REMARK 927      BINDING AFFINITY PREDICTED BY RF-SCORE:    0.00 PKD
ROOT
HETATM    1  C   UNL     1     -12.273  13.973  69.153  1.00  0.00    -0.262 C  
HETATM    2  O   UNL     1     -11.685  13.295  70.261  1.00  0.00    -0.257 OA 
ENDROOT
BRANCH   2   3
HETATM    3  C   UNL     1     -11.859  11.927  70.322  1.00  0.00    -0.281 A  
HETATM    4  C   UNL     1     -11.083  10.997  69.560  1.00  0.00    -0.322 A  
HETATM    5  C   UNL     1     -11.298   9.618  69.793  1.00  0.00    -0.120 A  
HETATM    6  C   UNL     1     -12.913  10.130  71.527  1.00  0.00    -0.547 A  
HETATM    7  O   UNL     1     -10.714   8.629  69.064  1.00  0.00    -0.348 OA 
HETATM    8  C   UNL     1     -12.778  11.497  71.312  1.00  0.00    -0.469 A  
HETATM    9  C   UNL     1     -12.185   9.222  70.785  1.00  0.00    -0.192 A  
HETATM   10  C   UNL     1     -12.511   7.870  71.248  1.00  0.00    -0.264 C  
HETATM   11  C   UNL     1     -13.591  12.487  72.098  1.00  0.00    -0.458 C  
HETATM   12  H   UNL     1     -10.858   7.703  69.220  1.00  0.00     0.000 HD 
HETATM   13  O   UNL     1     -13.447   8.015  72.245  1.00  0.00    -0.205 OA 
HETATM   14  C   UNL     1     -13.782   9.393  72.473  1.00  0.00    -0.350 C  
HETATM   15  O   UNL     1     -12.050   6.805  70.888  1.00  0.00    -0.377 OA 
BRANCH   4  16
HETATM   16  C   UNL     1     -10.153  11.535  68.490  1.00  0.00    -0.211 C  
BRANCH  16  17
HETATM   17  C   UNL     1     -10.691  11.874  67.138  1.00  0.00    -0.280 C  
HETATM   18  C   UNL     1     -10.502  11.183  65.998  1.00  0.00    -0.312 C  
HETATM   19  C   UNL     1      -9.750   9.883  65.885  1.00  0.00    -0.326 C  
BRANCH  18  20
HETATM   20  C   UNL     1     -11.057  11.735  64.707  1.00  0.00    -0.356 C  
BRANCH  20  21
HETATM   21  C   UNL     1     -12.363  12.475  64.961  1.00  0.00    -0.522 C  
BRANCH  21  22
HETATM   22  C   UNL     1     -12.299  13.870  64.406  1.00  0.00    -0.361 C  
HETATM   23  O   UNL     1     -12.467  14.184  63.238  1.00  0.00    -0.758 OA 
BRANCH  22  24
HETATM   24  O   UNL     1     -11.870  14.707  65.389  1.00  0.00    -0.350 OA 
BRANCH  24  25
HETATM   25  C   UNL     1     -10.686  15.437  65.029  1.00  0.00    -0.438 C  
BRANCH  25  26
HETATM   26  C   UNL     1     -10.394  16.392  66.200  1.00  0.00    -0.344 C  
BRANCH  26  27
HETATM   27  N   UNL     1      -9.661  17.619  65.875  1.00  0.00    -0.542 NA 
HETATM   28  C   UNL     1     -10.472  18.846  66.014  1.00  0.00    -0.446 C  
HETATM   29  C   UNL     1     -10.783  19.223  67.472  1.00  0.00    -0.463 C  
HETATM   30  O   UNL     1      -9.582  19.366  68.239  1.00  0.00    -0.336 OA 
HETATM   31  C   UNL     1      -8.798  18.168  68.197  1.00  0.00    -0.280 C  
HETATM   32  C   UNL     1      -8.470  17.758  66.749  1.00  0.00    -0.248 C  
ENDBRANCH  26  27
ENDBRANCH  25  26
ENDBRANCH  24  25
ENDBRANCH  22  24
ENDBRANCH  21  22
ENDBRANCH  20  21
ENDBRANCH  18  20
ENDBRANCH  16  17
ENDBRANCH   4  16
ENDBRANCH   2   3
TORSDOF 10
ENDMDL
