MODEL      337
REMARK 921   NORMALIZED FREE ENERGY PREDICTED BY IDOCK:    4.78 KCAL/MOL
REMARK 922        TOTAL FREE ENERGY PREDICTED BY IDOCK:    5.43 KCAL/MOL
REMARK 923 INTER-LIGAND FREE ENERGY PREDICTED BY IDOCK:    4.37 KCAL/MOL
REMARK 924 INTRA-LIGAND FREE ENERGY PREDICTED BY IDOCK:    1.06 KCAL/MOL
REMARK 927      BINDING AFFINITY PREDICTED BY RF-SCORE:    0.00 PKD
ROOT
HETATM    1  O   UNL     1     -13.408  16.947  64.989  1.00  0.00     5.445 OA 
HETATM    2  C   UNL     1     -13.003  15.790  64.983  1.00  0.00     1.655 C  
HETATM    3  N   UNL     1     -12.644  15.132  66.126  1.00  0.00     0.408 N  
HETATM    4  C   UNL     1     -12.149  13.821  66.140  1.00  0.00    -0.441 A  
HETATM    5  H   UNL     1     -12.742  15.620  67.016  1.00  0.00     0.000 HD 
HETATM    6  C   UNL     1     -11.786  13.223  67.346  1.00  0.00    -0.419 A  
HETATM    7  C   UNL     1     -11.269  11.926  67.350  1.00  0.00    -0.305 A  
HETATM    8  C   UNL     1     -12.883  15.037  63.710  1.00  0.00     1.070 C  
HETATM    9  C   UNL     1     -11.122  11.240  66.137  1.00  0.00    -0.207 A  
HETATM   10  C   UNL     1     -12.418  13.782  63.683  1.00  0.00    -0.150 C  
HETATM   11  C   UNL     1     -11.495  11.837  64.930  1.00  0.00    -0.269 A  
HETATM   12  C   UNL     1     -12.015  13.130  64.927  1.00  0.00    -0.431 A  
ENDROOT
BRANCH   7  13
HETATM   13  O   UNL     1     -10.946  11.435  68.590  1.00  0.00    -0.190 OA 
BRANCH  13  14
HETATM   14  C   UNL     1      -9.548  11.298  68.845  1.00  0.00    -0.105 C  
BRANCH  14  15
HETATM   15  C   UNL     1      -9.250   9.901  69.380  1.00  0.00    -0.225 C  
BRANCH  15  16
HETATM   16  C   UNL     1      -7.887   9.389  68.905  1.00  0.00    -0.083 C  
BRANCH  16  17
HETATM   17  C   UNL     1      -6.718   9.641  69.874  1.00  0.00    -0.069 C  
BRANCH  17  18
HETATM   18  N   UNL     1      -7.067   9.515  71.295  1.00  0.00    -0.329 NA 
HETATM   19  C   UNL     1      -8.332   8.775  71.527  1.00  0.00    -0.152 C  
HETATM   20  C   UNL     1      -8.280   7.255  71.236  1.00  0.00    -0.106 C  
HETATM   21  N   UNL     1      -7.160   6.635  71.953  1.00  0.00    -0.079 NA 
HETATM   22  C   UNL     1      -5.991   8.814  72.049  1.00  0.00    -0.071 C  
HETATM   23  C   UNL     1      -5.859   7.294  71.763  1.00  0.00    -0.037 C  
BRANCH  21  24
HETATM   24  C   UNL     1      -7.209   5.289  72.332  1.00  0.00    -0.092 A  
HETATM   25  C   UNL     1      -7.592   4.192  71.487  1.00  0.00    -0.064 A  
HETATM   26  C   UNL     1      -7.816   4.107  70.060  1.00  0.00    -0.052 A  
HETATM   27  C   UNL     1      -8.238   2.872  69.630  1.00  0.00    -0.047 A  
HETATM   28  S   UNL     1      -8.319   1.757  70.906  1.00  0.00    -0.050 SA 
HETATM   29  C   UNL     1      -7.777   2.924  72.057  1.00  0.00    -0.053 A  
HETATM   30  C   UNL     1      -7.551   2.673  73.422  1.00  0.00    -0.046 A  
HETATM   31  C   UNL     1      -7.117   3.715  74.227  1.00  0.00    -0.052 A  
HETATM   32  C   UNL     1      -6.956   4.986  73.692  1.00  0.00    -0.080 A  
ENDBRANCH  21  24
ENDBRANCH  17  18
ENDBRANCH  16  17
ENDBRANCH  15  16
ENDBRANCH  14  15
ENDBRANCH  13  14
ENDBRANCH   7  13
TORSDOF 7
ENDMDL
