MODEL        2
REMARK 921   NORMALIZED FREE ENERGY PREDICTED BY IDOCK:   -6.79 KCAL/MOL
REMARK 922        TOTAL FREE ENERGY PREDICTED BY IDOCK:   -9.92 KCAL/MOL
REMARK 923 INTER-LIGAND FREE ENERGY PREDICTED BY IDOCK:   -8.96 KCAL/MOL
REMARK 924 INTRA-LIGAND FREE ENERGY PREDICTED BY IDOCK:   -0.96 KCAL/MOL
REMARK 927      BINDING AFFINITY PREDICTED BY RF-SCORE:    0.00 PKD
ROOT
HETATM    1  C   UNL     1      -6.867  18.040  68.250  1.00  0.00    -0.217 C  
HETATM    2  O   UNL     1      -7.929  17.118  68.489  1.00  0.00    -0.238 OA 
ENDROOT
BRANCH   2   3
HETATM    3  C   UNL     1      -8.801  16.954  67.441  1.00  0.00    -0.204 A  
HETATM    4  C   UNL     1      -8.945  15.791  66.654  1.00  0.00    -0.280 A  
HETATM    5  C   UNL     1     -10.473  18.003  66.117  1.00  0.00    -0.331 A  
HETATM    6  C   UNL     1      -9.971  15.767  65.702  1.00  0.00    -0.345 A  
HETATM    7  C   UNL     1      -9.558  18.079  67.146  1.00  0.00    -0.281 A  
HETATM    8  N   UNL     1     -10.698  16.881  65.402  1.00  0.00    -0.539 NA 
BRANCH   4   9
HETATM    9  O   UNL     1      -8.129  14.724  66.939  1.00  0.00    -0.182 OA 
HETATM   10  C   UNL     1      -8.390  14.047  68.170  1.00  0.00    -0.164 C  
ENDBRANCH   4   9
BRANCH   6  11
HETATM   11  C   UNL     1     -10.413  14.516  64.987  1.00  0.00    -0.429 C  
BRANCH  11  12
HETATM   12  S   UNL     1     -12.170  14.168  65.281  1.00  0.00    -0.443 S  
HETATM   13  O   UNL     1     -12.647  13.042  64.411  1.00  0.00    -0.607 OA 
BRANCH  12  14
HETATM   14  C   UNL     1     -12.046  13.509  66.877  1.00  0.00    -0.368 A  
HETATM   15  N   UNL     1     -12.183  14.179  68.002  1.00  0.00    -0.561 NA 
HETATM   16  C   UNL     1     -12.134  13.222  68.992  1.00  0.00    -0.226 A  
HETATM   17  H   UNL     1     -12.301  15.186  68.115  1.00  0.00     0.000 HD 
HETATM   18  C   UNL     1     -11.931  11.956  68.456  1.00  0.00    -0.212 A  
HETATM   19  N   UNL     1     -11.858  12.172  67.106  1.00  0.00    -0.591 NA 
HETATM   20  C   UNL     1     -11.854  10.797  69.233  1.00  0.00    -0.359 A  
HETATM   21  C   UNL     1     -11.983  10.944  70.623  1.00  0.00    -0.368 A  
HETATM   22  C   UNL     1     -12.214  12.203  71.187  1.00  0.00    -0.119 A  
HETATM   23  C   UNL     1     -12.281  13.353  70.382  1.00  0.00    -0.415 A  
BRANCH  21  24
HETATM   24  O   UNL     1     -11.892   9.771  71.325  1.00  0.00    -0.340 OA 
HETATM   25  C   UNL     1     -13.055   9.391  72.041  1.00  0.00    -0.433 C  
HETATM   26  F   UNL     1     -13.897   8.741  71.199  1.00  0.00    -0.350 F  
HETATM   27  F   UNL     1     -12.673   8.489  72.981  1.00  0.00    -0.362 F  
ENDBRANCH  21  24
ENDBRANCH  12  14
ENDBRANCH  11  12
ENDBRANCH   6  11
ENDBRANCH   2   3
TORSDOF 6
ENDMDL
