MODEL      293
REMARK 921   NORMALIZED FREE ENERGY PREDICTED BY IDOCK:   -2.09 KCAL/MOL
REMARK 922        TOTAL FREE ENERGY PREDICTED BY IDOCK:   -3.53 KCAL/MOL
REMARK 923 INTER-LIGAND FREE ENERGY PREDICTED BY IDOCK:   -3.24 KCAL/MOL
REMARK 924 INTRA-LIGAND FREE ENERGY PREDICTED BY IDOCK:   -0.29 KCAL/MOL
REMARK 927      BINDING AFFINITY PREDICTED BY RF-SCORE:    0.00 PKD
ROOT
HETATM    1  C   UNL     1      -7.242   6.023  69.357  1.00  0.00    -0.074 C  
HETATM    2  C   UNL     1      -7.370   6.250  67.858  1.00  0.00    -0.088 C  
ENDROOT
BRANCH   2   3
HETATM    3  C   UNL     1      -7.925   7.632  67.520  1.00  0.00    -0.120 C  
BRANCH   3   4
HETATM    4  N   UNL     1      -8.832   8.142  68.528  1.00  0.00    -0.134 N  
HETATM    5  H   UNL     1      -9.557   7.533  68.908  1.00  0.00     0.000 HD 
BRANCH   4   6
HETATM    6  C   UNL     1      -8.730   9.426  68.977  1.00  0.00    -0.136 C  
HETATM    7  O   UNL     1      -8.217   9.730  70.040  1.00  0.00    -0.168 OA 
BRANCH   6   8
HETATM    8  N   UNL     1      -9.232  10.358  68.088  1.00  0.00    -0.143 N  
HETATM    9  H   UNL     1     -10.214  10.289  67.821  1.00  0.00     0.000 HD 
BRANCH   8  10
HETATM   10  S   UNL     1      -8.323  11.587  67.429  1.00  0.00    -0.155 S  
HETATM   11  O   UNL     1      -7.419  11.021  66.453  1.00  0.00    -0.143 OA 
HETATM   12  O   UNL     1      -7.819  12.347  68.555  1.00  0.00    -0.137 OA 
BRANCH  10  13
HETATM   13  C   UNL     1      -9.510  12.623  66.603  1.00  0.00    -0.244 A  
HETATM   14  C   UNL     1      -9.325  14.010  66.592  1.00  0.00    -0.292 A  
HETATM   15  C   UNL     1     -10.272  14.823  65.963  1.00  0.00    -0.320 A  
HETATM   16  C   UNL     1     -11.381  14.246  65.340  1.00  0.00    -0.329 A  
HETATM   17  C   UNL     1     -11.555  12.863  65.339  1.00  0.00    -0.386 A  
HETATM   18 CL   UNL     1     -12.546  15.253  64.572  1.00  0.00    -0.070 Cl 
HETATM   19  C   UNL     1     -10.617  12.044  65.972  1.00  0.00    -0.303 A  
ENDBRANCH  10  13
ENDBRANCH   8  10
ENDBRANCH   6   8
ENDBRANCH   4   6
ENDBRANCH   3   4
ENDBRANCH   2   3
TORSDOF 6
ENDMDL
