MODEL       22
REMARK 921   NORMALIZED FREE ENERGY PREDICTED BY IDOCK:   -5.75 KCAL/MOL
REMARK 922        TOTAL FREE ENERGY PREDICTED BY IDOCK:  -14.33 KCAL/MOL
REMARK 923 INTER-LIGAND FREE ENERGY PREDICTED BY IDOCK:  -11.73 KCAL/MOL
REMARK 924 INTRA-LIGAND FREE ENERGY PREDICTED BY IDOCK:   -2.61 KCAL/MOL
REMARK 927      BINDING AFFINITY PREDICTED BY RF-SCORE:    0.00 PKD
ROOT
HETATM    1 HG   UNL     2     -11.790   5.218  66.408  1.00  0.00    -0.436 Hg 
HETATM    2  C   UNL     3     -10.653  18.066  65.710  1.00  0.00    -0.174 C  
HETATM    3  C   UNL     3     -10.638  17.016  66.829  1.00  0.00    -0.191 C  
HETATM    4  C   UNL     4      -7.875   5.783  65.865  1.00  0.00    -0.101 C  
HETATM    5  C   UNL     4      -8.913   6.844  66.256  1.00  0.00    -0.151 C  
ENDROOT
BRANCH   3   6
HETATM    6  N   UNL     3     -10.056  17.499  68.111  1.00  0.00    -0.321 NA 
BRANCH   6   7
HETATM    7  C   UNL     3     -10.080  18.979  68.272  1.00  0.00    -0.396 C  
HETATM    8  C   UNL     3      -8.695  19.631  68.432  1.00  0.00    -0.357 C  
ENDBRANCH   6   7
BRANCH   6   9
HETATM    9  C   UNL     3     -10.688  16.855  69.291  1.00  0.00    -0.288 C  
BRANCH   9  10
HETATM   10  C   UNL     3      -9.994  15.578  69.757  1.00  0.00    -0.274 C  
BRANCH  10  11
HETATM   11  O   UNL     3     -10.713  14.457  69.412  1.00  0.00    -0.232 OA 
BRANCH  11  12
HETATM   12  C   UNL     3     -10.313  13.562  68.476  1.00  0.00    -0.240 C  
HETATM   13  O   UNL     3      -9.591  12.621  68.782  1.00  0.00    -0.067 OA 
BRANCH  12  14
HETATM   14  C   UNL     3     -10.851  13.694  67.110  1.00  0.00    -0.292 A  
HETATM   15  C   UNL     3     -11.941  13.857  64.524  1.00  0.00    -0.437 A  
HETATM   16  C   UNL     3     -10.552  13.906  64.707  1.00  0.00    -0.444 A  
HETATM   17  C   UNL     3     -10.006  13.824  65.993  1.00  0.00    -0.319 A  
HETATM   18  N   UNL     3     -12.502  13.941  63.220  1.00  0.00    -1.112 NA 
HETATM   19  C   UNL     3     -12.782  13.720  65.635  1.00  0.00    -0.523 A  
HETATM   20  C   UNL     3     -12.242  13.642  66.915  1.00  0.00    -0.398 A  
HETATM   21  H1  UNL     3     -13.512  13.905  63.087  1.00  0.00     0.000 HD 
HETATM   22  H2  UNL     3     -12.078  13.213  62.644  1.00  0.00     0.000 HD 
ENDBRANCH  12  14
ENDBRANCH  11  12
ENDBRANCH  10  11
ENDBRANCH   9  10
ENDBRANCH   6   9
ENDBRANCH   3   6
BRANCH   5  23
HETATM   23  C   UNL     4      -9.019   6.993  67.816  1.00  0.00    -0.121 C  
BRANCH  23  24
HETATM   24  N   UNL     4     -10.256   6.521  68.475  1.00  0.00    -0.160 NA 
HETATM   25  H   UNL     4     -11.153   6.793  68.074  1.00  0.00     0.000 HD 
BRANCH  24  26
HETATM   26  C   UNL     4     -10.254   5.768  69.555  1.00  0.00    -0.239 C  
HETATM   27  H   UNL     4     -10.121   3.875  70.219  1.00  0.00     0.000 HD 
HETATM   28  O   UNL     4     -10.123   4.419  69.440  1.00  0.00    -0.162 OA 
BRANCH  26  29
HETATM   29  C   UNL     4     -10.354   6.292  70.988  1.00  0.00    -0.258 A  
HETATM   30  C   UNL     4     -10.918   7.534  71.434  1.00  0.00    -0.231 A  
HETATM   31  C   UNL     4      -9.804   5.442  71.997  1.00  0.00    -0.212 A  
HETATM   32  C   UNL     4      -9.796   5.802  73.349  1.00  0.00    -0.167 A  
HETATM   33  C   UNL     4     -10.316   7.020  73.747  1.00  0.00    -0.408 A  
HETATM   34  C   UNL     4     -10.879   7.877  72.805  1.00  0.00    -0.451 A  
BRANCH  30  35
HETATM   35  O   UNL     4     -11.538   8.421  70.616  1.00  0.00    -0.270 OA 
BRANCH  35  36
HETATM   36  C   UNL     4     -12.491   9.334  71.023  1.00  0.00    -0.211 C  
HETATM   37  C   UNL     4     -12.274  10.665  70.375  1.00  0.00    -0.345 C  
HETATM   38  O   UNL     4     -12.281  10.765  69.033  1.00  0.00    -0.421 OA 
HETATM   39  O   UNL     4     -12.144  11.671  71.056  1.00  0.00    -0.295 OA 
ENDBRANCH  35  36
ENDBRANCH  30  35
ENDBRANCH  26  29
ENDBRANCH  24  26
ENDBRANCH  23  24
ENDBRANCH   5  23
BRANCH   5  40
HETATM   40  O   UNL     4      -8.547   8.109  65.680  1.00  0.00    -0.151 OA 
BRANCH  40  41
HETATM   41  C   UNL     4      -9.449   9.156  66.060  1.00  0.00    -0.255 C  
BRANCH  41  42
HETATM   42  C   UNL     4      -8.898  10.566  65.761  1.00  0.00    -0.175 C  
BRANCH  42  43
HETATM   43  O   UNL     4      -8.369  10.646  64.451  1.00  0.00    -0.136 OA 
HETATM   44  C   UNL     4      -9.431  10.630  63.512  1.00  0.00    -0.308 C  
ENDBRANCH  42  43
ENDBRANCH  41  42
ENDBRANCH  40  41
ENDBRANCH   5  40
TORSDOF 17
ENDMDL
