MODEL       13
REMARK 921   NORMALIZED FREE ENERGY PREDICTED BY IDOCK:   -4.78 KCAL/MOL
REMARK 922        TOTAL FREE ENERGY PREDICTED BY IDOCK:   -9.62 KCAL/MOL
REMARK 923 INTER-LIGAND FREE ENERGY PREDICTED BY IDOCK:   -8.71 KCAL/MOL
REMARK 924 INTRA-LIGAND FREE ENERGY PREDICTED BY IDOCK:   -0.91 KCAL/MOL
REMARK 927      BINDING AFFINITY PREDICTED BY RF-SCORE:    0.00 PKD
ROOT
HETATM    1  C   UNK     1     -10.013  16.841  66.129  1.00  0.00    -0.327 C  
HETATM    2  O   UNK     1     -10.122  15.863  65.105  1.00  0.00    -0.451 OA 
ENDROOT
BRANCH   2   3
HETATM    3  C   UNK     1     -11.344  16.003  64.378  1.00  0.00    -0.245 C  
BRANCH   3   4
HETATM    4  C   UNK     1     -11.923  14.620  64.106  1.00  0.00    -0.292 C  
BRANCH   4   5
HETATM    5  O   UNK     1     -13.035  14.394  64.970  1.00  0.00    -0.643 OA 
BRANCH   5   6
HETATM    6  C   UNK     1     -12.635  13.766  66.185  1.00  0.00    -0.371 C  
BRANCH   6   7
HETATM    7  C   UNK     1     -11.906  12.469  65.861  1.00  0.00    -0.489 C  
BRANCH   7   8
HETATM    8  C   UNK     1     -11.597  11.645  67.115  1.00  0.00    -0.291 C  
BRANCH   8   9
HETATM    9  C   UNK     1     -10.633  10.508  66.787  1.00  0.00    -0.284 C  
BRANCH   9  10
HETATM   10  C   UNK     1     -10.843   9.291  67.684  1.00  0.00    -0.188 C  
BRANCH  10  11
HETATM   11  C   UNK     1     -10.716   9.667  69.149  1.00  0.00    -0.217 C  
HETATM   12  O   UNK     1      -9.707  10.168  69.636  1.00  0.00    -0.228 OA 
HETATM   13  N   UNK     1     -11.846   9.389  69.884  1.00  0.00    -0.439 N  
HETATM   14  H   UNK     1     -12.639   8.933  69.432  1.00  0.00     0.000 HD 
BRANCH  13  15
HETATM   15  C   UNK     1     -11.927   9.732  71.290  1.00  0.00    -0.386 C  
BRANCH  15  16
HETATM   16  C   UNK     1     -13.086  10.683  71.600  1.00  0.00    -0.555 C  
BRANCH  16  17
HETATM   17  C   UNK     1     -12.746  12.123  71.216  1.00  0.00    -0.363 C  
BRANCH  17  18
HETATM   18  C   UNK     1     -13.580  13.151  71.994  1.00  0.00    -0.554 C  
BRANCH  18  19
HETATM   19  C   UNK     1     -13.607  14.540  71.337  1.00  0.00    -0.381 C  
HETATM   20  N   UNK     1     -12.686  14.600  70.164  1.00  0.00    -0.544 NA 
HETATM   21  C   UNK     1     -13.181  15.619  72.345  1.00  0.00    -0.474 C  
HETATM   22  O   UNK     1     -13.891  16.093  73.212  1.00  0.00    -0.559 OA 
HETATM   23  O   UNK     1     -11.871  15.952  72.177  1.00  0.00    -0.430 OA 
HETATM   24  H1  UNK     1     -12.705  15.521  69.727  1.00  0.00     0.000 HD 
HETATM   25  H2  UNK     1     -12.890  13.862  69.489  1.00  0.00     0.000 HD 
ENDBRANCH  18  19
ENDBRANCH  17  18
ENDBRANCH  16  17
ENDBRANCH  15  16
ENDBRANCH  13  15
ENDBRANCH  10  11
ENDBRANCH   9  10
ENDBRANCH   8   9
ENDBRANCH   7   8
ENDBRANCH   6   7
ENDBRANCH   5   6
ENDBRANCH   4   5
ENDBRANCH   3   4
ENDBRANCH   2   3
TORSDOF 14
ENDMDL
