MODEL       38
REMARK 921   NORMALIZED FREE ENERGY PREDICTED BY IDOCK:   -6.49 KCAL/MOL
REMARK 922        TOTAL FREE ENERGY PREDICTED BY IDOCK:  -11.77 KCAL/MOL
REMARK 923 INTER-LIGAND FREE ENERGY PREDICTED BY IDOCK:   -9.64 KCAL/MOL
REMARK 924 INTRA-LIGAND FREE ENERGY PREDICTED BY IDOCK:   -2.13 KCAL/MOL
REMARK 927      BINDING AFFINITY PREDICTED BY RF-SCORE:    0.00 PKD
ROOT
HETATM    1 MG   UNL     3     -10.382  10.988  66.439  1.00  0.00    -0.196 Mg 
HETATM    2  O   UNL     4      -9.291  17.056  65.725  1.00  0.00    -0.524 OA 
HETATM    3  C   UNL     4      -8.979  15.848  66.391  1.00  0.00    -0.326 C  
HETATM    4  H   UNL     4      -8.640  17.301  65.077  1.00  0.00     0.000 HD 
HETATM    5  O   UNL     5     -13.942   6.827  71.844  1.00  0.00    -0.447 OA 
HETATM    6  H   UNL     5     -14.870   6.737  71.663  1.00  0.00     0.000 HD 
HETATM    7  C   UNL     5     -13.513   8.184  71.747  1.00  0.00    -0.350 C  
ENDROOT
BRANCH   3   8
HETATM    8  C   UNL     4     -10.032  15.452  67.437  1.00  0.00    -0.229 C  
HETATM    9  O   UNL     4     -10.805  16.609  67.807  1.00  0.00    -0.340 OA 
HETATM   10  H   UNL     4     -11.457  16.365  68.454  1.00  0.00     0.000 HD 
BRANCH   8  11
HETATM   11  C   UNL     4     -11.054  14.332  67.086  1.00  0.00    -0.311 C  
HETATM   12  O   UNL     4     -12.294  14.467  67.772  1.00  0.00    -0.620 OA 
HETATM   13  H   UNL     4     -12.918  13.783  67.557  1.00  0.00     0.000 HD 
BRANCH  11  14
HETATM   14  C   UNL     4     -11.269  13.985  65.588  1.00  0.00    -0.310 C  
HETATM   15  H   UNL     4     -11.667  15.026  63.983  1.00  0.00     0.000 HD 
HETATM   16  O   UNL     4     -11.535  15.238  64.900  1.00  0.00    -0.378 OA 
BRANCH  14  17
HETATM   17  C   UNL     4     -12.311  12.905  65.179  1.00  0.00    -0.493 C  
HETATM   18  C   UNL     4     -12.073  12.352  63.713  1.00  0.00    -0.529 C  
HETATM   19  H   UNL     4     -14.295  12.663  65.201  1.00  0.00     0.000 HD 
HETATM   20  O   UNL     4     -13.658  13.323  65.450  1.00  0.00    -0.299 OA 
HETATM   21  O   UNL     4     -10.816  12.219  63.401  1.00  0.00    -0.449 OA 
HETATM   22  O   UNL     4     -13.069  12.176  62.958  1.00  0.00    -0.496 OA 
ENDBRANCH  14  17
ENDBRANCH  11  14
ENDBRANCH   8  11
ENDBRANCH   3   8
BRANCH   7  23
HETATM   23  C   UNL     5     -12.006   8.330  72.042  1.00  0.00    -0.348 C  
HETATM   24  O   UNL     5     -11.736   7.722  73.307  1.00  0.00    -0.659 OA 
HETATM   25  H   UNL     5     -10.808   7.812  73.488  1.00  0.00     0.000 HD 
BRANCH  23  26
HETATM   26  C   UNL     5     -11.143   7.701  70.927  1.00  0.00    -0.263 C  
HETATM   27  O   UNL     5     -12.005   7.112  69.927  1.00  0.00    -0.558 OA 
HETATM   28  H   UNL     5     -11.474   6.725  69.241  1.00  0.00     0.000 HD 
BRANCH  26  29
HETATM   29  C   UNL     5     -10.066   8.594  70.250  1.00  0.00    -0.187 C  
HETATM   30  O   UNL     5     -10.164   9.966  70.629  1.00  0.00    -0.334 OA 
HETATM   31  H   UNL     5      -9.505  10.513  70.215  1.00  0.00     0.000 HD 
BRANCH  29  32
HETATM   32  C   UNL     5      -9.857   8.445  68.734  1.00  0.00    -0.173 C  
HETATM   33  C   UNL     5      -8.520   8.979  68.179  1.00  0.00    -0.129 C  
HETATM   34  O   UNL     5     -10.986   9.040  67.999  1.00  0.00    -0.480 OA 
HETATM   35  O   UNL     5      -7.501   8.868  68.923  1.00  0.00    -0.079 OA 
HETATM   36  O   UNL     5      -8.632   9.542  67.033  1.00  0.00    -0.126 OA 
HETATM   37  H   UNL     5     -10.857   8.948  67.063  1.00  0.00     0.000 HD 
ENDBRANCH  29  32
ENDBRANCH  26  29
ENDBRANCH  23  26
ENDBRANCH   7  23
TORSDOF 8
ENDMDL
