MODEL       37
REMARK 921   NORMALIZED FREE ENERGY PREDICTED BY IDOCK:   -6.00 KCAL/MOL
REMARK 922        TOTAL FREE ENERGY PREDICTED BY IDOCK:  -13.02 KCAL/MOL
REMARK 923 INTER-LIGAND FREE ENERGY PREDICTED BY IDOCK:  -10.67 KCAL/MOL
REMARK 924 INTRA-LIGAND FREE ENERGY PREDICTED BY IDOCK:   -2.35 KCAL/MOL
REMARK 927      BINDING AFFINITY PREDICTED BY RF-SCORE:    0.00 PKD
ROOT
HETATM    1  C   UNL     1     -11.575  12.161  63.200  1.00  0.00    -0.275 C  
HETATM    2  C   UNL     1     -11.386  12.320  64.697  1.00  0.00    -0.375 C  
ENDROOT
BRANCH   2   3
HETATM    3  C   UNL     1     -10.031  11.940  65.290  1.00  0.00    -0.251 C  
HETATM    4  O   UNL     1      -9.299  11.102  64.774  1.00  0.00    -0.216 OA 
BRANCH   3   5
HETATM    5  O   UNL     1      -9.694  12.704  66.358  1.00  0.00    -0.249 OA 
BRANCH   5   6
HETATM    6  C   UNL     1      -9.102  12.046  67.522  1.00  0.00    -0.177 C  
HETATM    7  C   UNL     1      -7.552  12.308  67.468  1.00  0.00    -0.155 C  
HETATM    8  C   UNL     1      -6.772  11.663  68.612  1.00  0.00    -0.074 C  
HETATM    9  C   UNL     1      -7.198  13.795  67.403  1.00  0.00    -0.107 C  
BRANCH   6  10
HETATM   10  O   UNL     1      -9.393  10.622  67.661  1.00  0.00    -0.145 OA 
BRANCH  10  11
HETATM   11  P   UNL     1     -10.107  10.118  69.080  1.00  0.00    -0.241 P  
HETATM   12  O   UNL     1      -8.889   9.229  69.432  1.00  0.00    -0.137 OA 
BRANCH  11  13
HETATM   13  C   UNL     1     -11.145   8.532  68.560  1.00  0.00     0.353 C  
BRANCH  13  14
HETATM   14  C   UNL     1     -10.355   7.233  68.745  1.00  0.00    -0.209 C  
BRANCH  14  15
HETATM   15  C   UNL     1     -11.131   6.127  69.438  1.00  0.00    -0.479 C  
BRANCH  15  16
HETATM   16  C   UNL     1     -10.974   6.276  70.960  1.00  0.00    -0.340 C  
BRANCH  16  17
HETATM   17  C   UNL     1     -12.054   7.160  71.517  1.00  0.00    -0.377 A  
HETATM   18  C   UNL     1     -11.730   8.362  72.160  1.00  0.00    -0.442 A  
HETATM   19  C   UNL     1     -13.399   6.814  71.341  1.00  0.00    -0.150 A  
HETATM   20  C   UNL     1     -14.080   8.856  72.442  1.00  0.00    -0.493 A  
HETATM   21  C   UNL     1     -12.747   9.204  72.628  1.00  0.00    -0.254 A  
HETATM   22  C   UNL     1     -14.405   7.664  71.800  1.00  0.00    -0.586 A  
ENDBRANCH  16  17
ENDBRANCH  15  16
ENDBRANCH  14  15
ENDBRANCH  13  14
ENDBRANCH  11  13
BRANCH  11  23
HETATM   23  C   UNL     1     -11.546  11.169  68.664  1.00  0.00    -0.315 C  
BRANCH  23  24
HETATM   24  C   UNL     1     -11.892  12.222  69.734  1.00  0.00    -0.318 C  
HETATM   25  C   UNL     1     -12.033  14.578  70.578  1.00  0.00    -0.318 C  
HETATM   26  O   UNL     1     -12.217  11.854  70.871  1.00  0.00    -0.357 OA 
HETATM   27  N   UNL     1     -11.911  13.577  69.487  1.00  0.00    -0.330 N  
HETATM   28  C   UNL     1     -13.403  14.750  71.290  1.00  0.00    -0.399 C  
HETATM   29  O   UNL     1     -13.785  15.802  71.792  1.00  0.00    -0.435 OA 
HETATM   30  C   UNL     1     -12.082  14.250  68.215  1.00  0.00    -0.243 C  
HETATM   31  C   UNL     1     -11.512  15.667  68.405  1.00  0.00    -0.374 C  
HETATM   32  O   UNL     1     -14.111  13.610  71.443  1.00  0.00    -0.060 OA 
HETATM   33  C   UNL     1     -11.635  15.915  69.924  1.00  0.00    -0.337 C  
BRANCH  31  34
HETATM   34  C   UNL     1     -10.053  15.894  67.900  1.00  0.00    -0.235 C  
HETATM   35  C   UNL     1     -10.627  17.366  65.912  1.00  0.00    -0.201 C  
HETATM   36  C   UNL     1      -9.999  18.592  66.565  1.00  0.00    -0.408 C  
HETATM   37  C   UNL     1      -9.897  18.472  68.085  1.00  0.00    -0.376 C  
HETATM   38  C   UNL     1      -9.932  16.092  66.379  1.00  0.00    -0.315 C  
HETATM   39  C   UNL     1      -9.370  17.115  68.568  1.00  0.00    -0.274 C  
ENDBRANCH  31  34
ENDBRANCH  23  24
ENDBRANCH  11  23
ENDBRANCH  10  11
ENDBRANCH   6  10
ENDBRANCH   5   6
ENDBRANCH   3   5
ENDBRANCH   2   3
TORSDOF 13
ENDMDL
