MODEL       54
REMARK 921   NORMALIZED FREE ENERGY PREDICTED BY IDOCK:    0.92 KCAL/MOL
REMARK 922        TOTAL FREE ENERGY PREDICTED BY IDOCK:   -0.44 KCAL/MOL
REMARK 923 INTER-LIGAND FREE ENERGY PREDICTED BY IDOCK:   -9.94 KCAL/MOL
REMARK 924 INTRA-LIGAND FREE ENERGY PREDICTED BY IDOCK:    9.50 KCAL/MOL
REMARK 927      BINDING AFFINITY PREDICTED BY RF-SCORE:    0.00 PKD
ROOT
HETATM    1  C   UNL     1      -5.749   9.546  68.060  1.00  0.00    -0.041 C  
HETATM    2  C   UNL     1      -5.578  11.058  68.395  1.00  0.00    -0.043 C  
HETATM    3  H1  UNL     1      -8.796   8.029  69.453  1.00  0.00     0.000 HD 
HETATM    4  H   UNL     1      -5.952   8.094  69.677  1.00  0.00     0.000 HD 
HETATM    5  C   UNL     1      -6.862  11.625  68.994  1.00  0.00    -0.105 C  
HETATM    6  H2  UNL     1      -9.431   9.583  69.962  1.00  0.00     0.000 HD 
HETATM    7  N   UNL     1      -7.241  10.804  70.111  1.00  0.00    -0.451 NA 
HETATM    8  O   UNL     1      -6.668  12.946  69.445  1.00  0.00    -0.218 OA 
HETATM    9  N   UNL     1      -6.352   8.931  69.251  1.00  0.00    -0.041 NA 
HETATM   10  N   UNL     1      -8.630   9.000  69.719  1.00  0.00    -0.130 NA 
HETATM   11  H   UNL     1      -7.333  11.154  71.065  1.00  0.00     0.000 HD 
HETATM   12  C   UNL     1      -7.461   9.519  69.760  1.00  0.00    -0.098 C  
HETATM   13  H   UNL     1      -7.468  13.299  69.817  1.00  0.00     0.000 HD 
ENDROOT
BRANCH   1  14
HETATM   14  C   UNL     1      -6.567   9.248  66.758  1.00  0.00    -0.068 C  
HETATM   15  N   UNL     1     -10.040  12.530  67.448  1.00  0.00    -0.209 N  
HETATM   16  O   UNL     1      -7.221  12.230  67.181  1.00  0.00    -0.144 OA 
HETATM   17  C   UNL     1      -7.977  11.437  66.636  1.00  0.00    -0.148 C  
HETATM   18  C   UNL     1      -9.777  11.986  65.082  1.00  0.00    -0.144 C  
HETATM   19  N   UNL     1     -10.642   7.466  70.387  1.00  0.00    -0.223 N  
HETATM   20  H   UNL     1      -8.547   9.600  66.020  1.00  0.00     0.000 HD 
HETATM   21  N   UNL     1      -7.765  10.101  66.445  1.00  0.00    -0.107 N  
HETATM   22  H   UNL     1      -9.666  13.366  67.899  1.00  0.00     0.000 HD 
HETATM   23  C   UNL     1      -9.368  11.946  66.356  1.00  0.00    -0.226 C  
HETATM   24  C   UNL     1     -11.232  11.947  67.908  1.00  0.00    -0.263 C  
HETATM   25  O   UNL     1      -7.621   7.318  65.708  1.00  0.00    -0.084 OA 
HETATM   26  O   UNL     1     -12.270  11.913  67.252  1.00  0.00    -0.495 OA 
HETATM   27  N   UNL     1      -7.443   7.226  67.979  1.00  0.00    -0.099 N  
HETATM   28  CA  UNL     1     -11.076  11.201  69.276  1.00  0.00    -0.259 C  
HETATM   29  N   UNL     1     -12.216  10.360  69.705  1.00  0.00    -0.529 N  
HETATM   30  C   UNL     1      -8.264   6.025  68.162  1.00  0.00    -0.113 C  
HETATM   31  CA  UNL     1      -8.806   5.961  69.618  1.00  0.00    -0.131 C  
HETATM   32  H   UNL     1      -7.035   7.658  68.808  1.00  0.00     0.000 HD 
HETATM   33  H   UNL     1     -13.122  10.393  69.237  1.00  0.00     0.000 HD 
HETATM   34  O   UNL     1     -11.178   5.592  69.217  1.00  0.00    -0.206 OA 
HETATM   35  C   UNL     1     -11.970   9.517  70.798  1.00  0.00    -0.252 C  
HETATM   36  C   UNL     1     -10.306   6.328  69.680  1.00  0.00    -0.215 C  
HETATM   37  H   UNL     1      -9.894   7.979  70.854  1.00  0.00     0.000 HD 
HETATM   38  C   UNL     1      -7.190   7.807  66.753  1.00  0.00    -0.088 C  
HETATM   39  O   UNL     1     -11.429   9.956  71.816  1.00  0.00    -0.265 OA 
HETATM   40  CA  UNL     1     -12.034   7.990  70.509  1.00  0.00     0.062 C  
BRANCH  18  41
HETATM   41  N   UNL     1     -10.899  12.663  64.673  1.00  0.00    -0.302 N  
HETATM   42  H   UNL     1     -11.059  13.603  65.034  1.00  0.00     0.000 HD 
BRANCH  41  43
HETATM   43  C   UNL     1     -11.810  12.135  63.806  1.00  0.00    -0.500 C  
HETATM   44  H2  UNL     1     -10.366  10.752  63.166  1.00  0.00     0.000 HD 
HETATM   45  N   UNL     1     -11.321  11.101  63.076  1.00  0.00    -0.754 N  
HETATM   46  H1  UNL     1     -12.002  10.706  62.427  1.00  0.00     0.000 HD 
HETATM   47  O   UNL     1     -12.969  12.509  63.669  1.00  0.00    -0.730 OA 
ENDBRANCH  41  43
ENDBRANCH  18  41
BRANCH  28  48
HETATM   48  C   UNL     1      -9.873  10.254  69.098  1.00  0.00    -0.216 C  
HETATM   49  O   UNL     1     -10.129   9.272  68.082  1.00  0.00    -0.171 OA 
HETATM   50  H   UNL     1      -9.388   8.688  67.972  1.00  0.00     0.000 HD 
ENDBRANCH  28  48
BRANCH  40  51
HETATM   51  CB  UNL     1     -12.770   7.285  71.653  1.00  0.00    -0.375 C  
HETATM   52  O   UNL     1     -12.190   7.540  72.934  1.00  0.00    -0.542 OA 
HETATM   53  H   UNL     1     -12.648   7.103  73.643  1.00  0.00     0.000 HD 
ENDBRANCH  40  51
BRANCH  31  54
HETATM   54  N   UNL     1      -8.607   4.640  70.226  1.00  0.00    -0.081 N  
HETATM   55  H   UNL     1      -9.334   3.931  70.131  1.00  0.00     0.000 HD 
HETATM   56  O   UNL     1      -6.540   5.151  71.039  1.00  0.00    -0.036 OA 
HETATM   57  C   UNL     1      -7.455   4.339  70.923  1.00  0.00    -0.051 C  
BRANCH  57  58
HETATM   58  C   UNL     1      -7.427   2.928  71.503  1.00  0.00    -0.040 C  
BRANCH  58  59
HETATM   59  C   UNL     1      -7.750   2.859  73.011  1.00  0.00    -0.051 C  
HETATM   60  H1  UNL     1      -7.715   4.115  74.644  1.00  0.00     0.000 HD 
HETATM   61  N   UNL     1      -7.502   4.161  73.647  1.00  0.00    -0.074 NA 
HETATM   62  H2  UNL     1      -8.010   4.914  73.183  1.00  0.00     0.000 HD 
BRANCH  59  63
HETATM   63  C   UNL     1      -9.223   2.484  73.300  1.00  0.00    -0.098 C  
BRANCH  63  64
HETATM   64  C   UNL     1      -9.850   3.295  74.439  1.00  0.00    -0.164 C  
BRANCH  64  65
HETATM   65  C   UNL     1     -10.913   4.269  73.929  1.00  0.00    -0.229 C  
HETATM   66  N   UNL     1     -10.461   4.873  72.680  1.00  0.00    -0.200 NA 
HETATM   67  H2  UNL     1     -10.213   4.172  71.981  1.00  0.00     0.000 HD 
HETATM   68  H1  UNL     1     -11.170   5.522  72.339  1.00  0.00     0.000 HD 
ENDBRANCH  64  65
ENDBRANCH  63  64
ENDBRANCH  59  63
ENDBRANCH  58  59
ENDBRANCH  57  58
ENDBRANCH  31  54
ENDBRANCH   1  14
TORSDOF 11
ENDMDL
