MODEL       32
REMARK 921   NORMALIZED FREE ENERGY PREDICTED BY IDOCK:   -6.34 KCAL/MOL
REMARK 922        TOTAL FREE ENERGY PREDICTED BY IDOCK:   -8.83 KCAL/MOL
REMARK 923 INTER-LIGAND FREE ENERGY PREDICTED BY IDOCK:   -8.13 KCAL/MOL
REMARK 924 INTRA-LIGAND FREE ENERGY PREDICTED BY IDOCK:   -0.69 KCAL/MOL
REMARK 927      BINDING AFFINITY PREDICTED BY RF-SCORE:    0.00 PKD
ROOT
HETATM    1 CL   UNL     1     -10.252  20.265  65.499  1.00  0.00    -0.283 Cl 
HETATM    2  C   UNL     1     -10.298  18.999  66.667  1.00  0.00    -0.428 A  
HETATM    3  C   UNL     1     -10.126  19.298  68.012  1.00  0.00    -0.496 A  
HETATM    4  C   UNL     1     -10.159  18.269  68.946  1.00  0.00    -0.358 A  
HETATM    5  C   UNL     1     -10.346  16.948  68.522  1.00  0.00    -0.336 A  
HETATM    6  C   UNL     1     -10.496  16.618  67.166  1.00  0.00    -0.300 A  
HETATM    7  C   UNL     1     -10.488  17.680  66.248  1.00  0.00    -0.292 A  
ENDROOT
BRANCH   6   8
HETATM    8  N   UNL     1     -10.557  15.296  66.763  1.00  0.00    -0.299 NA 
HETATM    9  C   UNL     1     -11.169  14.273  67.624  1.00  0.00    -0.304 C  
HETATM   10  C   UNL     1     -11.869  13.208  66.749  1.00  0.00    -0.385 C  
HETATM   11  N   UNL     1     -11.006  12.576  65.720  1.00  0.00    -0.283 NA 
HETATM   12  C   UNL     1      -9.693  14.779  65.688  1.00  0.00    -0.278 C  
HETATM   13  C   UNL     1     -10.432  13.672  64.893  1.00  0.00    -0.409 C  
BRANCH  11  14
HETATM   14  C   UNL     1      -9.938  11.743  66.295  1.00  0.00    -0.218 C  
BRANCH  14  15
HETATM   15  C   UNL     1     -10.464  10.662  67.241  1.00  0.00    -0.293 C  
BRANCH  15  16
HETATM   16  C   UNL     1      -9.924  10.864  68.653  1.00  0.00    -0.189 C  
BRANCH  16  17
HETATM   17  N   UNL     1     -10.780  10.239  69.631  1.00  0.00    -0.246 N  
HETATM   18  N   UNL     1     -10.916   8.867  69.730  1.00  0.00    -0.202 NA 
HETATM   19  C   UNL     1     -11.883   8.721  70.582  1.00  0.00    -0.112 A  
HETATM   20  C   UNL     1     -12.453   7.453  71.086  1.00  0.00    -0.343 A  
HETATM   21  C   UNL     1     -13.466   7.529  71.967  1.00  0.00    -0.206 A  
HETATM   22  C   UNL     1     -13.993   8.809  72.403  1.00  0.00    -0.482 A  
HETATM   23  C   UNL     1     -13.463   9.949  71.931  1.00  0.00    -0.372 A  
HETATM   24  N   UNL     1     -12.425   9.877  71.047  1.00  0.00    -0.332 N  
HETATM   25  C   UNL     1     -11.743  10.894  70.421  1.00  0.00    -0.350 C  
HETATM   26  O   UNL     1     -11.942  12.100  70.499  1.00  0.00    -0.337 OA 
ENDBRANCH  16  17
ENDBRANCH  15  16
ENDBRANCH  14  15
ENDBRANCH  11  14
ENDBRANCH   6   8
TORSDOF 5
ENDMDL
