MODEL       29
REMARK 921   NORMALIZED FREE ENERGY PREDICTED BY IDOCK:   -5.92 KCAL/MOL
REMARK 922        TOTAL FREE ENERGY PREDICTED BY IDOCK:  -15.24 KCAL/MOL
REMARK 923 INTER-LIGAND FREE ENERGY PREDICTED BY IDOCK:  -12.23 KCAL/MOL
REMARK 924 INTRA-LIGAND FREE ENERGY PREDICTED BY IDOCK:   -3.01 KCAL/MOL
REMARK 927      BINDING AFFINITY PREDICTED BY RF-SCORE:    0.00 PKD
ROOT
HETATM    1  O   UNL     1      -8.280   8.470  73.527  1.00  0.00    -0.381 OA 
HETATM    2  C   UNL     1      -8.423   7.084  73.373  1.00  0.00    -0.128 C  
HETATM    3  H   UNL     1      -7.781   8.655  74.314  1.00  0.00     0.000 HD 
ENDROOT
BRANCH   2   4
HETATM    4  C   UNL     1      -9.230   6.785  72.099  1.00  0.00    -0.136 C  
HETATM    5  O   UNL     1      -8.790   5.570  71.545  1.00  0.00    -0.134 OA 
HETATM    6  H   UNL     1      -9.289   5.385  70.758  1.00  0.00     0.000 HD 
BRANCH   4   7
HETATM    7  C   UNL     1     -10.750   6.698  72.394  1.00  0.00    -0.223 C  
HETATM    8  H   UNL     1     -11.938   7.109  73.878  1.00  0.00     0.000 HD 
HETATM    9  O   UNL     1     -11.007   7.163  73.697  1.00  0.00    -0.287 OA 
BRANCH   7  10
HETATM   10  C   UNL     1     -11.585   7.533  71.387  1.00  0.00    -0.275 C  
HETATM   11  H   UNL     1     -11.519   7.911  69.494  1.00  0.00     0.000 HD 
HETATM   12  O   UNL     1     -11.008   7.399  70.111  1.00  0.00    -0.253 OA 
BRANCH  10  13
HETATM   13  C   UNL     1     -11.662   9.042  71.749  1.00  0.00    -0.369 C  
HETATM   14  H   UNL     1     -10.863  10.698  71.121  1.00  0.00     0.000 HD 
HETATM   15  O   UNL     1     -10.816   9.775  70.900  1.00  0.00    -0.310 OA 
BRANCH  13  16
HETATM   16  C   UNL     1     -13.053   9.618  71.627  1.00  0.00    -0.412 C  
HETATM   17  O   UNL     1     -13.993   9.050  72.161  1.00  0.00    -0.431 OA 
BRANCH  16  18
HETATM   18  O   UNL     1     -13.281  10.748  70.927  1.00  0.00    -0.278 OA 
BRANCH  18  19
HETATM   19 CA   UNL     1     -12.197  12.800  71.615  1.00  0.00    -0.283 Ca 
BRANCH  19  20
HETATM   20  O   UNL     1     -11.115  14.851  72.303  1.00  0.00    -0.047 OA 
BRANCH  20  21
HETATM   21  C   UNL     1     -11.722  15.885  71.695  1.00  0.00    -0.485 C  
HETATM   22  O   UNL     1     -12.217  16.750  72.397  1.00  0.00    -0.115 OA 
BRANCH  21  23
HETATM   23  C   UNL     1     -11.950  15.907  70.200  1.00  0.00    -0.288 C  
HETATM   24  H   UNL     1     -12.388  14.613  68.837  1.00  0.00     0.000 HD 
HETATM   25  O   UNL     1     -12.245  14.599  69.775  1.00  0.00    -0.313 OA 
BRANCH  23  26
HETATM   26  C   UNL     1     -10.751  16.454  69.367  1.00  0.00    -0.324 C  
HETATM   27  H   UNL     1      -8.938  15.899  68.963  1.00  0.00     0.000 HD 
HETATM   28  O   UNL     1      -9.668  15.566  69.471  1.00  0.00    -0.258 OA 
BRANCH  26  29
HETATM   29  C   UNL     1     -11.016  16.788  67.858  1.00  0.00    -0.260 C  
BRANCH  29  30
HETATM   30  O   UNL     1     -10.373  15.771  67.104  1.00  0.00    -0.278 OA 
BRANCH  30  31
HETATM   31  C   UNL     1     -11.208  14.730  66.637  1.00  0.00    -0.346 C  
HETATM   32  O   UNL     1     -10.714  13.475  67.074  1.00  0.00    -0.273 OA 
HETATM   33  C   UNL     1     -11.552  12.421  66.625  1.00  0.00    -0.385 C  
HETATM   34  H   UNL     1     -11.646  16.082  63.678  1.00  0.00     0.000 HD 
HETATM   35  C   UNL     1     -11.493  12.315  65.079  1.00  0.00    -0.336 C  
HETATM   36  O   UNL     1     -10.174  12.075  64.651  1.00  0.00    -0.267 OA 
HETATM   37  C   UNL     1     -12.001  13.644  64.482  1.00  0.00    -0.418 C  
HETATM   38  O   UNL     1     -11.659  16.041  64.626  1.00  0.00    -0.312 OA 
HETATM   39  H   UNL     1     -10.138  12.010  63.704  1.00  0.00     0.000 HD 
HETATM   40  O   UNL     1     -11.871  13.668  63.082  1.00  0.00    -0.692 OA 
HETATM   41  C   UNL     1     -11.186  14.799  65.089  1.00  0.00    -0.382 C  
HETATM   42  H   UNL     1     -12.184  14.486  62.715  1.00  0.00     0.000 HD 
BRANCH  33  43
HETATM   43  C   UNL     1     -11.095  11.126  67.314  1.00  0.00    -0.302 C  
HETATM   44  O   UNL     1     -11.998  10.733  68.311  1.00  0.00    -0.768 OA 
HETATM   45  H   UNL     1     -11.716   9.932  68.736  1.00  0.00     0.000 HD 
ENDBRANCH  33  43
ENDBRANCH  30  31
ENDBRANCH  29  30
BRANCH  29  46
HETATM   46  C   UNL     1     -10.595  18.225  67.389  1.00  0.00    -0.401 C  
HETATM   47  O   UNL     1     -10.451  18.277  65.988  1.00  0.00    -0.450 OA 
HETATM   48  H   UNL     1     -10.197  19.146  65.704  1.00  0.00     0.000 HD 
BRANCH  46  49
HETATM   49  C   UNL     1      -9.374  18.823  68.125  1.00  0.00    -0.316 C  
HETATM   50  H   UNL     1      -8.106  20.289  67.874  1.00  0.00     0.000 HD 
HETATM   51  O   UNL     1      -8.857  19.922  67.422  1.00  0.00    -0.313 OA 
ENDBRANCH  46  49
ENDBRANCH  29  46
ENDBRANCH  26  29
ENDBRANCH  23  26
ENDBRANCH  21  23
ENDBRANCH  20  21
ENDBRANCH  19  20
ENDBRANCH  18  19
ENDBRANCH  16  18
ENDBRANCH  13  16
ENDBRANCH  10  13
ENDBRANCH   7  10
ENDBRANCH   4   7
ENDBRANCH   2   4
TORSDOF 17
ENDMDL
