MODEL      248
REMARK 921   NORMALIZED FREE ENERGY PREDICTED BY IDOCK:    0.67 KCAL/MOL
REMARK 922        TOTAL FREE ENERGY PREDICTED BY IDOCK:    0.09 KCAL/MOL
REMARK 923 INTER-LIGAND FREE ENERGY PREDICTED BY IDOCK:   -2.75 KCAL/MOL
REMARK 924 INTRA-LIGAND FREE ENERGY PREDICTED BY IDOCK:    2.84 KCAL/MOL
REMARK 927      BINDING AFFINITY PREDICTED BY RF-SCORE:    0.00 PKD
ROOT
HETATM    1  N   UNK A   0     -12.850  15.654  65.388  1.00  0.00     1.339 NA 
HETATM    2  C   UNK A   0     -11.598  15.264  65.728  1.00  0.00    -0.015 C  
HETATM    3  H2  UNK A   0     -13.112  16.635  65.486  1.00  0.00     0.000 HD 
HETATM    4  H1  UNK A   0     -13.536  14.986  65.037  1.00  0.00     0.000 HD 
HETATM    5  N   UNK A   0     -10.732  16.107  66.172  1.00  0.00    -0.266 N  
HETATM    6  C   UNK A   0      -9.491  15.639  66.562  1.00  0.00    -0.274 C  
HETATM    7  H   UNK A   0     -10.958  17.099  66.235  1.00  0.00     0.000 HD 
HETATM    8  C   UNK A   0      -9.178  14.153  66.399  1.00  0.00    -0.183 C  
HETATM    9  O   UNK A   0      -8.670  16.395  67.078  1.00  0.00    -0.181 OA 
HETATM   10  C   UNK A   0     -10.170  13.377  65.891  1.00  0.00    -0.299 C  
HETATM   11  N   UNK A   0     -11.372  13.943  65.583  1.00  0.00    -0.305 NA 
HETATM   12  N   UNK A   0      -9.998  12.017  65.689  1.00  0.00    -0.242 NA 
HETATM   13  H   UNK A   0     -10.765  11.466  65.305  1.00  0.00     0.000 HD 
HETATM   14  C   UNK A   0      -8.734  11.359  66.017  1.00  0.00    -0.131 C  
HETATM   15  C   UNK A   0      -8.018  12.099  67.158  1.00  0.00    -0.170 C  
HETATM   16  N   UNK A   0      -7.978  13.564  66.857  1.00  0.00    -0.390 N  
HETATM   17  O   UNK A   0      -5.815  13.742  67.648  1.00  0.00    -0.271 OA 
HETATM   18  C   UNK A   0      -6.813  14.252  67.147  1.00  0.00     0.447 C  
ENDROOT
BRANCH  15  19
HETATM   19  C   UNK A   0      -8.694  11.846  68.533  1.00  0.00    -0.108 C  
BRANCH  19  20
HETATM   20  N   UNK A   0      -7.909  10.956  69.413  1.00  0.00    -0.336 NA 
HETATM   21  H   UNK A   0      -7.538  11.277  70.307  1.00  0.00     0.000 HD 
BRANCH  20  22
HETATM   22  C   UNK A   0      -7.700   9.638  68.953  1.00  0.00    -0.077 A  
HETATM   23  C   UNK A   0      -7.951   8.505  69.733  1.00  0.00    -0.103 A  
HETATM   24  C   UNK A   0      -7.703   7.213  69.252  1.00  0.00    -0.108 A  
HETATM   25  C   UNK A   0      -7.227   7.024  67.952  1.00  0.00    -0.091 A  
HETATM   26  C   UNK A   0      -7.100   8.132  67.112  1.00  0.00    -0.079 A  
HETATM   27  C   UNK A   0      -7.347   9.425  67.610  1.00  0.00    -0.084 A  
BRANCH  25  28
HETATM   28  C   UNK A   0      -6.848   5.662  67.473  1.00  0.00    -0.060 C  
HETATM   29  O   UNK A   0      -5.879   5.056  67.917  1.00  0.00    -0.020 OA 
ATOM     30  N   GLU A   1      -7.677   5.116  66.513  1.00  0.00    -0.092 N  
ATOM     31  H   GLU A   1      -8.479   5.651  66.180  1.00  0.00     0.000 HD 
BRANCH  30  32
ATOM     32  CA  GLU A   1      -7.429   3.787  65.964  1.00  0.00    -0.080 C  
ATOM     33  O   GLU A   1      -5.405   2.960  66.996  1.00  0.00    -0.011 OA 
ATOM     34  C   GLU A   1      -5.911   3.553  65.889  1.00  0.00    -0.023 C  
ATOM     35  OXT GLU A   1      -5.211   3.881  64.938  1.00  0.00    -0.008 OA 
BRANCH  32  36
ATOM     36  CB  GLU A   1      -8.055   3.631  64.570  1.00  0.00    -0.086 C  
BRANCH  36  37
ATOM     37  CG  GLU A   1      -9.577   3.762  64.612  1.00  0.00    -0.173 C  
ATOM     38  CD  GLU A   1     -10.231   2.876  63.585  1.00  0.00    -0.180 C  
ATOM     39  OE2 GLU A   1     -10.425   3.216  62.428  1.00  0.00    -0.124 OA 
ATOM     40  OE1 GLU A   1     -10.556   1.652  64.052  1.00  0.00     0.035 OA 
ENDBRANCH  36  37
ENDBRANCH  32  36
ENDBRANCH  30  32
ENDBRANCH  25  28
ENDBRANCH  20  22
ENDBRANCH  19  20
ENDBRANCH  15  19
TORSDOF 7
ENDMDL
