MODEL       97
REMARK 921   NORMALIZED FREE ENERGY PREDICTED BY IDOCK:   -4.53 KCAL/MOL
REMARK 922        TOTAL FREE ENERGY PREDICTED BY IDOCK:   -7.62 KCAL/MOL
REMARK 923 INTER-LIGAND FREE ENERGY PREDICTED BY IDOCK:   -6.58 KCAL/MOL
REMARK 924 INTRA-LIGAND FREE ENERGY PREDICTED BY IDOCK:   -1.04 KCAL/MOL
REMARK 927      BINDING AFFINITY PREDICTED BY RF-SCORE:    0.00 PKD
ROOT
HETATM    1  C   UNL     1     -12.377  14.901  64.103  1.00  0.00    -0.185 C  
HETATM    2  S   UNL     1     -12.015  13.188  64.392  1.00  0.00    -0.422 S  
HETATM    3  O   UNL     1     -10.802  13.350  65.482  1.00  0.00    -0.283 OA 
HETATM    4  O   UNL     1     -13.148  12.586  65.061  1.00  0.00    -0.765 OA 
HETATM    5  O   UNL     1     -11.453  12.626  63.180  1.00  0.00    -0.424 OA 
ENDROOT
BRANCH   3   6
HETATM    6  C   UNL     1     -10.274  12.107  65.957  1.00  0.00    -0.237 C  
BRANCH   6   7
HETATM    7  C   UNL     1     -10.088  12.104  67.477  1.00  0.00    -0.196 C  
HETATM    8  O   UNL     1      -8.983  12.959  67.829  1.00  0.00    -0.172 OA 
HETATM    9  H   UNL     1      -8.868  12.957  68.772  1.00  0.00     0.000 HD 
BRANCH   7  10
HETATM   10  C   UNL     1     -11.328  12.654  68.215  1.00  0.00    -0.295 C  
HETATM   11  H   UNL     1     -12.988  11.896  68.964  1.00  0.00     0.000 HD 
HETATM   12  O   UNL     1     -12.225  11.557  68.510  1.00  0.00    -0.524 OA 
BRANCH  10  13
HETATM   13  C   UNL     1     -11.061  13.375  69.550  1.00  0.00    -0.040 C  
HETATM   14  O   UNL     1     -11.847  12.697  70.553  1.00  0.00    -0.525 OA 
HETATM   15  H   UNL     1     -11.683  13.142  71.376  1.00  0.00     0.000 HD 
BRANCH  13  16
HETATM   16  C   UNL     1     -11.389  14.879  69.572  1.00  0.00    -0.281 C  
HETATM   17  H   UNL     1     -12.892  15.983  70.174  1.00  0.00     0.000 HD 
HETATM   18  O   UNL     1     -12.691  15.055  70.160  1.00  0.00    -0.303 OA 
BRANCH  16  19
HETATM   19  C   UNL     1     -11.354  15.524  68.182  1.00  0.00    -0.345 C  
BRANCH  19  20
HETATM   20  O   UNL     1      -9.997  15.891  67.895  1.00  0.00    -0.219 OA 
HETATM   21  S   UNL     1      -9.780  17.219  66.982  1.00  0.00    -0.278 S  
HETATM   22  C   UNL     1      -8.003  17.200  66.965  1.00  0.00    -0.201 C  
HETATM   23  O   UNL     1     -10.230  18.373  67.734  1.00  0.00    -0.347 OA 
HETATM   24  O   UNL     1     -10.259  16.935  65.645  1.00  0.00    -0.542 OA 
ENDBRANCH  19  20
ENDBRANCH  16  19
ENDBRANCH  13  16
ENDBRANCH  10  13
ENDBRANCH   7  10
ENDBRANCH   6   7
ENDBRANCH   3   6
TORSDOF 7
ENDMDL
