MODEL        4
REMARK 921   NORMALIZED FREE ENERGY PREDICTED BY IDOCK:   -7.55 KCAL/MOL
REMARK 922        TOTAL FREE ENERGY PREDICTED BY IDOCK:  -13.86 KCAL/MOL
REMARK 923 INTER-LIGAND FREE ENERGY PREDICTED BY IDOCK:  -12.67 KCAL/MOL
REMARK 924 INTRA-LIGAND FREE ENERGY PREDICTED BY IDOCK:   -1.19 KCAL/MOL
REMARK 927      BINDING AFFINITY PREDICTED BY RF-SCORE:    0.00 PKD
ROOT
HETATM    1  C   UNL     1      -6.760  20.887  66.978  1.00  0.00    -0.330 C  
HETATM    2  S   UNL     1      -8.008  19.670  66.503  1.00  0.00    -0.319 SA 
ENDROOT
BRANCH   2   3
HETATM    3  C   UNL     1      -9.452  20.346  67.407  1.00  0.00    -0.424 C  
BRANCH   3   4
HETATM    4  C   UNL     1     -10.471  19.247  67.775  1.00  0.00    -0.435 C  
BRANCH   4   5
HETATM    5  N   UNL     1      -9.800  17.981  68.015  1.00  0.00    -0.307 NA 
HETATM    6  H   UNL     1      -8.794  17.970  68.186  1.00  0.00     0.000 HD 
BRANCH   5   7
HETATM    7  C   UNL     1     -10.506  16.791  68.016  1.00  0.00    -0.333 A  
HETATM    8  C   UNL     1     -10.838  16.162  66.806  1.00  0.00    -0.162 A  
HETATM    9  N   UNL     1     -10.555  16.482  65.492  1.00  0.00    -0.497 NA 
HETATM   10  C   UNL     1     -11.050  15.479  64.784  1.00  0.00    -0.407 A  
HETATM   11  N   UNL     1     -11.667  14.540  65.584  1.00  0.00    -0.347 NA 
HETATM   12  C   UNL     1     -11.535  14.965  66.875  1.00  0.00    -0.313 A  
HETATM   13  N   UNL     1     -10.908  16.192  69.175  1.00  0.00    -0.276 NA 
HETATM   14  C   UNL     1     -11.620  15.049  69.099  1.00  0.00    -0.310 A  
HETATM   15  N   UNL     1     -11.962  14.360  67.985  1.00  0.00    -0.322 NA 
BRANCH  11  16
HETATM   16  C   UNL     1     -12.150  13.263  65.106  1.00  0.00    -0.413 C  
HETATM   17  O   UNL     1     -11.671  12.255  66.004  1.00  0.00    -0.399 OA 
HETATM   18  C   UNL     1     -10.584  11.541  65.394  1.00  0.00    -0.282 C  
HETATM   19  H   UNL     1     -12.567  11.535  62.336  1.00  0.00     0.000 HD 
HETATM   20  O   UNL     1     -12.797  11.850  63.202  1.00  0.00    -0.636 OA 
HETATM   21  C   UNL     1     -10.514  11.950  63.927  1.00  0.00    -0.397 C  
HETATM   22  H   UNL     1     -10.426  11.032  62.189  1.00  0.00     0.000 HD 
HETATM   23  C   UNL     1     -11.779  12.753  63.705  1.00  0.00    -0.519 C  
HETATM   24  O   UNL     1     -10.470  10.777  63.103  1.00  0.00    -0.189 OA 
BRANCH  18  25
HETATM   25  C   UNL     1      -9.257  11.799  66.111  1.00  0.00    -0.210 C  
BRANCH  25  26
HETATM   26  O   UNL     1      -8.749  10.519  66.488  1.00  0.00    -0.134 OA 
BRANCH  26  27
HETATM   27  P   UNL     1      -7.500  10.549  67.495  1.00  0.00    -0.094 P  
HETATM   28  O   UNL     1      -6.409  11.164  66.473  1.00  0.00    -0.118 OA 
HETATM   29  O   UNL     1      -7.667  11.367  68.741  1.00  0.00    -0.132 OA 
BRANCH  27  30
HETATM   30  O   UNL     1      -7.179   8.972  67.777  1.00  0.00    -0.081 OA 
HETATM   31  P   UNL     1      -7.955   8.258  69.148  1.00  0.00    -0.114 P  
HETATM   32  C   UNL     1      -8.777   7.503  70.599  1.00  0.00    -0.141 C  
HETATM   33  O   UNL     1      -6.800   8.969  70.090  1.00  0.00    -0.039 OA 
HETATM   34  O   UNL     1      -9.150   9.243  69.050  1.00  0.00    -0.142 OA 
HETATM   35 CL   UNL     1      -9.130   8.715  71.922  1.00  0.00    -0.318 Cl 
HETATM   36  P   UNL     1     -10.444   6.919  70.120  1.00  0.00    -0.227 P  
HETATM   37 CL   UNL     1      -7.655   6.308  71.331  1.00  0.00    -0.097 Cl 
HETATM   38  O   UNL     1      -9.865   5.370  70.017  1.00  0.00    -0.175 OA 
HETATM   39  O   UNL     1     -10.095   7.121  68.509  1.00  0.00    -0.158 OA 
HETATM   40  O   UNL     1     -11.854   6.424  69.715  1.00  0.00    -0.357 OA 
ENDBRANCH  27  30
ENDBRANCH  26  27
ENDBRANCH  25  26
ENDBRANCH  18  25
ENDBRANCH  11  16
BRANCH  14  41
HETATM   41  S   UNL     1     -12.213  14.325  70.613  1.00  0.00    -0.379 SA 
BRANCH  41  42
HETATM   42  C   UNL     1     -12.159  12.555  70.174  1.00  0.00    -0.292 C  
BRANCH  42  43
HETATM   43  C   UNL     1     -12.814  11.760  71.296  1.00  0.00    -0.409 C  
HETATM   44  C   UNL     1     -12.726  10.267  71.062  1.00  0.00    -0.396 C  
HETATM   45  F   UNL     1     -12.137   9.656  72.117  1.00  0.00    -0.426 F  
HETATM   46  F   UNL     1     -12.021   9.946  69.960  1.00  0.00    -0.257 F  
HETATM   47  F   UNL     1     -13.959   9.729  70.932  1.00  0.00    -0.360 F  
ENDBRANCH  42  43
ENDBRANCH  41  42
ENDBRANCH  14  41
ENDBRANCH   5   7
ENDBRANCH   4   5
ENDBRANCH   3   4
ENDBRANCH   2   3
TORSDOF 12
ENDMDL
