MODEL       16
REMARK 921   NORMALIZED FREE ENERGY PREDICTED BY IDOCK:   -8.18 KCAL/MOL
REMARK 922        TOTAL FREE ENERGY PREDICTED BY IDOCK:  -11.87 KCAL/MOL
REMARK 923 INTER-LIGAND FREE ENERGY PREDICTED BY IDOCK:  -10.85 KCAL/MOL
REMARK 924 INTRA-LIGAND FREE ENERGY PREDICTED BY IDOCK:   -1.03 KCAL/MOL
REMARK 927      BINDING AFFINITY PREDICTED BY RF-SCORE:    0.00 PKD
ROOT
HETATM    1  C   UNL     1     -11.955  13.990  63.846  1.00  0.00    -0.322 C  
HETATM    2  C   UNL     1     -11.295  14.751  64.935  1.00  0.00    -0.410 C  
HETATM    3  N   UNL     1     -10.608  15.852  64.831  1.00  0.00    -0.580 NA 
HETATM    4  N   UNL     1     -10.198  16.209  66.131  1.00  0.00    -0.318 N  
HETATM    5  O   UNL     1     -10.494  15.291  68.335  1.00  0.00    -0.229 OA 
HETATM    6  C   UNL     1     -10.622  15.343  67.127  1.00  0.00    -0.305 C  
HETATM    7  C   UNL     1     -11.352  14.306  66.349  1.00  0.00    -0.343 C  
ENDROOT
BRANCH   4   8
HETATM    8  C   UNL     1      -9.382  17.351  66.308  1.00  0.00    -0.217 A  
HETATM    9  C   UNL     1      -8.018  17.309  66.011  1.00  0.00    -0.196 A  
HETATM   10  C   UNL     1      -7.211  18.437  66.159  1.00  0.00    -0.298 A  
HETATM   11  C   UNL     1      -9.918  18.560  66.773  1.00  0.00    -0.381 A  
HETATM   12  C   UNL     1      -9.785  20.967  67.424  1.00  0.00    -0.367 C  
HETATM   13  C   UNL     1      -9.119  19.711  66.931  1.00  0.00    -0.415 A  
HETATM   14  C   UNL     1      -7.749  19.648  66.615  1.00  0.00    -0.295 A  
HETATM   15  C   UNL     1      -6.830  20.827  66.758  1.00  0.00    -0.352 C  
ENDBRANCH   4   8
BRANCH   7  16
HETATM   16  N   UNL     1     -11.917  13.213  66.756  1.00  0.00    -0.388 NA 
HETATM   17  H   UNL     1     -12.850  12.943  66.442  1.00  0.00     0.000 HD 
BRANCH  16  18
HETATM   18  N   UNL     1     -11.201  12.442  67.625  1.00  0.00    -0.269 NA 
HETATM   19  H   UNL     1     -10.287  12.083  67.350  1.00  0.00     0.000 HD 
BRANCH  18  20
HETATM   20  C   UNL     1     -11.719  12.138  68.903  1.00  0.00    -0.327 A  
HETATM   21  C   UNL     1     -11.739  10.821  69.403  1.00  0.00    -0.306 A  
HETATM   22  C   UNL     1     -12.167  10.499  70.707  1.00  0.00    -0.468 A  
HETATM   23  O   UNL     1     -11.314   9.808  68.568  1.00  0.00    -0.498 OA 
HETATM   24  C   UNL     1     -12.232  13.151  69.715  1.00  0.00    -0.266 A  
HETATM   25  C   UNL     1     -12.705  11.543  71.474  1.00  0.00    -0.439 A  
HETATM   26  H   UNL     1     -11.328   8.920  68.905  1.00  0.00     0.000 HD 
HETATM   27  C   UNL     1     -12.743  12.853  70.982  1.00  0.00    -0.338 A  
BRANCH  22  28
HETATM   28  C   UNL     1     -11.934   9.159  71.285  1.00  0.00    -0.394 A  
HETATM   29  C   UNL     1     -12.801   8.073  71.094  1.00  0.00    -0.126 A  
HETATM   30  C   UNL     1     -12.558   6.843  71.719  1.00  0.00    -0.386 A  
HETATM   31  C   UNL     1     -11.424   6.665  72.514  1.00  0.00    -0.269 A  
HETATM   32  C   UNL     1     -10.533   7.722  72.687  1.00  0.00    -0.363 A  
HETATM   33  C   UNL     1     -10.818   8.961  72.118  1.00  0.00    -0.339 A  
HETATM   34  C   UNL     1      -9.311   7.530  73.505  1.00  0.00    -0.263 C  
HETATM   35  O   UNL     1      -8.245   8.234  73.055  1.00  0.00    -0.185 OA 
HETATM   36  O   UNL     1      -9.266   6.787  74.462  1.00  0.00    -0.196 OA 
ENDBRANCH  22  28
ENDBRANCH  18  20
ENDBRANCH  16  18
ENDBRANCH   7  16
TORSDOF 5
ENDMDL
