MODEL      185
REMARK 921   NORMALIZED FREE ENERGY PREDICTED BY IDOCK:   -0.01 KCAL/MOL
REMARK 922        TOTAL FREE ENERGY PREDICTED BY IDOCK:   -0.38 KCAL/MOL
REMARK 923 INTER-LIGAND FREE ENERGY PREDICTED BY IDOCK:   -1.57 KCAL/MOL
REMARK 924 INTRA-LIGAND FREE ENERGY PREDICTED BY IDOCK:    1.20 KCAL/MOL
REMARK 927      BINDING AFFINITY PREDICTED BY RF-SCORE:    0.00 PKD
ROOT
HETATM    1  C   UNL     1     -11.088  14.565  70.472  1.00  0.00     0.006 C  
HETATM    2  C   UNL     1     -10.425  14.667  69.084  1.00  0.00    -0.233 C  
ENDROOT
BRANCH   2   3
HETATM    3  N   UNL     1     -10.617  13.367  68.349  1.00  0.00    -0.243 NA 
HETATM    4  C   UNL     1     -11.727  12.569  68.882  1.00  0.00    -0.322 C  
HETATM    5  C   UNL     1      -9.407  12.526  68.387  1.00  0.00    -0.149 C  
ENDBRANCH   2   3
BRANCH   2   6
HETATM    6  C   UNL     1      -8.916  15.094  69.264  1.00  0.00    -0.202 C  
BRANCH   6   7
HETATM    7  N   UNL     1      -8.603  16.450  68.699  1.00  0.00    -0.225 NA 
HETATM    8  C   UNL     1      -7.440  17.112  69.224  1.00  0.00    -0.061 A  
HETATM    9  C   UNL     1      -6.599  16.525  70.197  1.00  0.00     0.342 A  
HETATM   10  C   UNL     1      -5.477  17.174  70.733  1.00  0.00    -0.108 A  
HETATM   11  C   UNL     1      -5.140  18.446  70.305  1.00  0.00    -0.227 A  
HETATM   12  C   UNL     1      -5.931  19.056  69.343  1.00  0.00    -0.275 A  
HETATM   13  C   UNL     1      -7.064  18.406  68.807  1.00  0.00    -0.283 A  
HETATM   14  S   UNL     1      -7.936  19.357  67.595  1.00  0.00    -0.290 SA 
HETATM   15  C   UNL     1      -9.285  18.291  67.173  1.00  0.00    -0.264 A  
HETATM   16  C   UNL     1     -10.154  18.827  66.196  1.00  0.00    -0.421 A  
HETATM   17  C   UNL     1     -11.252  18.115  65.740  1.00  0.00     0.834 A  
HETATM   18  C   UNL     1     -11.497  16.863  66.272  1.00  0.00     1.092 A  
HETATM   19  C   UNL     1     -10.643  16.333  67.258  1.00  0.00    -0.298 A  
HETATM   20  C   UNL     1      -9.498  17.013  67.735  1.00  0.00    -0.245 A  
ENDBRANCH   6   7
ENDBRANCH   2   6
TORSDOF 3
ENDMDL
