MODEL       44
REMARK 921   NORMALIZED FREE ENERGY PREDICTED BY IDOCK:   -5.79 KCAL/MOL
REMARK 922        TOTAL FREE ENERGY PREDICTED BY IDOCK:   -9.24 KCAL/MOL
REMARK 923 INTER-LIGAND FREE ENERGY PREDICTED BY IDOCK:   -8.31 KCAL/MOL
REMARK 924 INTRA-LIGAND FREE ENERGY PREDICTED BY IDOCK:   -0.93 KCAL/MOL
REMARK 927      BINDING AFFINITY PREDICTED BY RF-SCORE:    0.00 PKD
ROOT
HETATM    1  C   UNL     1     -10.911   6.014  69.775  1.00  0.00    -0.471 C  
HETATM    2  C   UNL     1     -10.479   7.413  70.203  1.00  0.00    -0.220 C  
ENDROOT
BRANCH   2   3
HETATM    3  N   UNL     1     -10.539   7.667  71.652  1.00  0.00    -0.202 NA 
BRANCH   3   4
HETATM    4  C   UNL     1      -9.281   7.361  72.363  1.00  0.00    -0.139 C  
HETATM    5  C   UNL     1      -7.994   7.901  71.739  1.00  0.00    -0.118 C  
ENDBRANCH   3   4
BRANCH   3   6
HETATM    6  C   UNL     1     -10.979   9.053  71.942  1.00  0.00    -0.353 C  
BRANCH   6   7
HETATM    7  C   UNL     1     -11.850   9.722  70.863  1.00  0.00    -0.336 C  
BRANCH   7   8
HETATM    8  N   UNL     1     -11.687  11.157  70.836  1.00  0.00    -0.328 N  
HETATM    9  C   UNL     1     -11.902  11.873  69.685  1.00  0.00    -0.337 C  
HETATM   10  H   UNL     1     -11.408  11.647  71.686  1.00  0.00     0.000 HD 
HETATM   11  O   UNL     1     -12.257  11.335  68.638  1.00  0.00    -0.562 OA 
BRANCH   9  12
HETATM   12  C   UNL     1     -11.717  13.322  69.795  1.00  0.00    -0.354 A  
HETATM   13  C   UNL     1     -12.449  14.240  70.541  1.00  0.00    -0.361 A  
HETATM   14  C   UNL     1     -13.606  14.106  71.469  1.00  0.00    -0.405 C  
HETATM   15  N   UNL     1     -11.880  15.483  70.354  1.00  0.00    -0.321 NA 
HETATM   16  H   UNL     1     -12.233  16.348  70.762  1.00  0.00     0.000 HD 
HETATM   17  C   UNL     1     -10.779  15.399  69.547  1.00  0.00    -0.267 A  
HETATM   18  C   UNL     1     -10.646  14.066  69.177  1.00  0.00    -0.149 A  
HETATM   19  C   UNL     1      -9.586  13.475  68.301  1.00  0.00    -0.218 C  
BRANCH  17  20
HETATM   20  C   UNL     1      -9.975  16.519  69.213  1.00  0.00    -0.244 C  
HETATM   21  C   UNL     1      -9.784  17.138  68.040  1.00  0.00    -0.274 C  
HETATM   22  C   UNL     1     -10.332  16.876  66.661  1.00  0.00    -0.299 C  
HETATM   23  N   UNL     1      -9.761  17.853  65.853  1.00  0.00    -0.098 N  
HETATM   24  O   UNL     1     -11.103  16.003  66.315  1.00  0.00    -0.144 OA 
HETATM   25  C   UNL     1      -8.921  18.691  66.579  1.00  0.00    -0.304 A  
HETATM   26  H   UNL     1      -9.937  17.944  64.852  1.00  0.00     0.000 HD 
HETATM   27  C   UNL     1      -8.895  18.307  67.922  1.00  0.00    -0.278 A  
HETATM   28  C   UNL     1      -8.127  19.004  68.840  1.00  0.00    -0.310 A  
HETATM   29  C   UNL     1      -7.386  20.085  68.373  1.00  0.00    -0.250 A  
HETATM   30  F   UNL     1      -6.630  20.776  69.235  1.00  0.00    -0.254 F  
HETATM   31  C   UNL     1      -7.408  20.466  67.024  1.00  0.00    -0.348 A  
HETATM   32  C   UNL     1      -8.189  19.763  66.102  1.00  0.00    -0.363 A  
ENDBRANCH  17  20
ENDBRANCH   9  12
ENDBRANCH   7   8
ENDBRANCH   6   7
ENDBRANCH   3   6
ENDBRANCH   2   3
TORSDOF 7
ENDMDL
