MODEL      267
REMARK 921   NORMALIZED FREE ENERGY PREDICTED BY IDOCK:   38.25 KCAL/MOL
REMARK 922        TOTAL FREE ENERGY PREDICTED BY IDOCK:   53.05 KCAL/MOL
REMARK 923 INTER-LIGAND FREE ENERGY PREDICTED BY IDOCK:   10.39 KCAL/MOL
REMARK 924 INTRA-LIGAND FREE ENERGY PREDICTED BY IDOCK:   42.66 KCAL/MOL
REMARK 927      BINDING AFFINITY PREDICTED BY RF-SCORE:    0.00 PKD
ROOT
HETATM    1  N   UNK A   0     -13.792  16.818  64.227  1.00  0.00     5.316 NA 
HETATM    2  C   UNK A   0     -12.993  16.120  65.070  1.00  0.00     2.797 C  
HETATM    3  H2  UNK A   0     -13.826  16.560  63.241  1.00  0.00     0.000 HD 
HETATM    4  H1  UNK A   0     -14.361  17.596  64.560  1.00  0.00     0.000 HD 
HETATM    5  N   UNK A   0     -12.275  15.137  64.650  1.00  0.00    -0.281 N  
HETATM    6  C   UNK A   0     -11.432  14.503  65.543  1.00  0.00    -0.343 C  
HETATM    7  H   UNK A   0     -12.327  14.834  63.678  1.00  0.00     0.000 HD 
HETATM    8  C   UNK A   0     -11.427  14.956  67.002  1.00  0.00    -0.326 C  
HETATM    9  O   UNK A   0     -10.663  13.624  65.162  1.00  0.00    -0.316 OA 
HETATM   10  C   UNK A   0     -12.254  15.986  67.319  1.00  0.00     1.400 C  
HETATM   11  N   UNK A   0     -13.009  16.564  66.342  1.00  0.00     4.659 NA 
HETATM   12  N   UNK A   0     -12.343  16.475  68.613  1.00  0.00     0.290 NA 
HETATM   13  H   UNK A   0     -12.975  17.249  68.814  1.00  0.00     0.000 HD 
HETATM   14  C   UNK A   0     -11.544  15.900  69.694  1.00  0.00    -0.336 C  
HETATM   15  C   UNK A   0     -10.235  15.309  69.145  1.00  0.00    -0.242 C  
HETATM   16  N   UNK A   0     -10.535  14.438  67.967  1.00  0.00    -0.235 N  
HETATM   17  O   UNK A   0      -8.987  12.862  68.645  1.00  0.00    -0.093 OA 
HETATM   18  C   UNK A   0      -9.841  13.246  67.851  1.00  0.00    -0.234 C  
ENDROOT
BRANCH  15  19
HETATM   19  C   UNK A   0      -9.213  16.413  68.758  1.00  0.00    -0.239 C  
BRANCH  19  20
HETATM   20  N   UNK A   0      -8.174  15.941  67.820  1.00  0.00    -0.144 NA 
HETATM   21  H   UNK A   0      -7.613  16.591  67.270  1.00  0.00     0.000 HD 
BRANCH  20  22
HETATM   22  C   UNK A   0      -7.996  14.543  67.726  1.00  0.00    -0.159 A  
HETATM   23  C   UNK A   0      -6.848  13.951  67.190  1.00  0.00     0.420 A  
HETATM   24  C   UNK A   0      -6.721  12.560  67.085  1.00  0.00    -0.060 A  
HETATM   25  C   UNK A   0      -7.736  11.722  67.553  1.00  0.00    -0.143 A  
HETATM   26  C   UNK A   0      -8.829  12.289  68.214  1.00  0.00    -0.178 A  
HETATM   27  C   UNK A   0      -8.946  13.688  68.307  1.00  0.00    -0.187 A  
BRANCH  25  28
HETATM   28  C   UNK A   0      -7.662  10.246  67.339  1.00  0.00    -0.095 C  
HETATM   29  O   UNK A   0      -8.591   9.496  67.617  1.00  0.00    -0.122 OA 
ATOM     30  N   GLU A   1      -6.487   9.783  66.781  1.00  0.00    -0.066 N  
ATOM     31  H   GLU A   1      -5.745  10.445  66.556  1.00  0.00     0.000 HD 
BRANCH  30  32
ATOM     32  CA  GLU A   1      -6.285   8.364  66.508  1.00  0.00    -0.054 C  
ATOM     33  O   GLU A   1      -7.241   7.916  64.334  1.00  0.00    -0.074 OA 
ATOM     34  C   GLU A   1      -7.463   7.845  65.668  1.00  0.00    -0.081 C  
ATOM     35  OXT GLU A   1      -8.511   7.421  66.140  1.00  0.00    -0.130 OA 
BRANCH  32  36
ATOM     36  CB  GLU A   1      -6.170   7.555  67.809  1.00  0.00    -0.048 C  
BRANCH  36  37
ATOM     37  CG  GLU A   1      -7.330   7.841  68.762  1.00  0.00    -0.087 C  
ATOM     38  CD  GLU A   1      -7.342   6.873  69.915  1.00  0.00    -0.088 C  
ATOM     39  OE2 GLU A   1      -7.896   5.785  69.875  1.00  0.00    -0.085 OA 
ATOM     40  OE1 GLU A   1      -6.654   7.303  70.993  1.00  0.00    -0.043 OA 
ENDBRANCH  36  37
ENDBRANCH  32  36
ENDBRANCH  30  32
ENDBRANCH  25  28
ENDBRANCH  20  22
ENDBRANCH  19  20
ENDBRANCH  15  19
TORSDOF 7
ENDMDL
