MODEL        9
REMARK 921   NORMALIZED FREE ENERGY PREDICTED BY IDOCK:   -4.93 KCAL/MOL
REMARK 922        TOTAL FREE ENERGY PREDICTED BY IDOCK:   -6.13 KCAL/MOL
REMARK 923 INTER-LIGAND FREE ENERGY PREDICTED BY IDOCK:   -5.95 KCAL/MOL
REMARK 924 INTRA-LIGAND FREE ENERGY PREDICTED BY IDOCK:   -0.18 KCAL/MOL
REMARK 927      BINDING AFFINITY PREDICTED BY RF-SCORE:    0.00 PKD
ROOT
HETATM    1  N   UNL     1     -11.767  10.232  67.992  1.00  0.00    -0.680 NA 
HETATM    2  H2  UNL     1     -11.229  10.332  67.132  1.00  0.00     0.000 HD 
HETATM    3  H1  UNL     1     -11.614   9.318  68.419  1.00  0.00     0.000 HD 
HETATM    4  C   UNL     1     -11.494  11.326  68.913  1.00  0.00    -0.297 C  
ENDROOT
BRANCH   4   5
HETATM    5  C   UNL     1     -11.724  12.697  68.274  1.00  0.00    -0.389 C  
BRANCH   5   6
HETATM    6  C   UNL     1     -10.871  12.948  67.023  1.00  0.00    -0.282 C  
BRANCH   6   7
HETATM    7  C   UNL     1     -11.371  14.055  66.040  1.00  0.00    -0.328 C  
HETATM    8  O   UNL     1     -12.503  14.733  66.702  1.00  0.00    -0.323 OA 
HETATM    9  P   UNL     1     -10.039  15.301  65.891  1.00  0.00    -0.390 P  
HETATM   10  P   UNL     1     -11.943  13.570  64.371  1.00  0.00    -0.430 P  
HETATM   11  H   UNL     1     -12.807  15.406  66.104  1.00  0.00     0.000 HD 
HETATM   12  O   UNL     1     -12.426  13.160  62.957  1.00  0.00    -0.598 OA 
HETATM   13  O   UNL     1     -13.131  12.642  65.022  1.00  0.00    -0.808 OA 
HETATM   14  O   UNL     1     -10.775  12.412  64.324  1.00  0.00    -0.307 OA 
HETATM   15  O   UNL     1      -8.912  16.355  65.766  1.00  0.00    -0.455 OA 
HETATM   16  O   UNL     1     -11.113  16.218  65.034  1.00  0.00    -0.371 OA 
HETATM   17  O   UNL     1     -10.485  15.949  67.353  1.00  0.00    -0.293 OA 
ENDBRANCH   6   7
ENDBRANCH   5   6
ENDBRANCH   4   5
TORSDOF 3
ENDMDL
