MODEL      152
REMARK 921   NORMALIZED FREE ENERGY PREDICTED BY IDOCK:   -2.95 KCAL/MOL
REMARK 922        TOTAL FREE ENERGY PREDICTED BY IDOCK:   -3.64 KCAL/MOL
REMARK 923 INTER-LIGAND FREE ENERGY PREDICTED BY IDOCK:   -4.09 KCAL/MOL
REMARK 924 INTRA-LIGAND FREE ENERGY PREDICTED BY IDOCK:    0.45 KCAL/MOL
REMARK 927      BINDING AFFINITY PREDICTED BY RF-SCORE:    0.00 PKD
ROOT
HETATM    1  C   UNL     1      -7.077  14.424  68.965  1.00  0.00    -0.120 C  
HETATM    2  C   UNL     1      -8.141  15.015  68.098  1.00  0.00    -0.131 C  
HETATM    3  C   UNL     1      -9.315  14.428  67.839  1.00  0.00    -0.203 C  
HETATM    4  N   UNL     1     -10.281  14.983  67.016  1.00  0.00    -0.254 N  
HETATM    5  O   UNL     1      -6.850  16.962  67.707  1.00  0.00    -0.134 OA 
HETATM    6  C   UNL     1     -10.102  16.250  66.472  1.00  0.00    -0.291 C  
HETATM    7  O   UNL     1     -10.941  16.846  65.797  1.00  0.00    -0.116 OA 
HETATM    8  H   UNL     1      -8.737  17.764  66.316  1.00  0.00     0.000 HD 
HETATM    9  N   UNL     1      -8.897  16.849  66.737  1.00  0.00    -0.222 N  
HETATM   10  C   UNL     1      -7.891  16.344  67.507  1.00  0.00    -0.146 C  
ENDROOT
BRANCH   4  11
HETATM   11  C   UNL     1     -11.597  14.365  66.861  1.00  0.00    -0.388 C  
HETATM   12  O   UNL     1     -11.515  12.923  66.957  1.00  0.00    -0.302 OA 
HETATM   13  C   UNL     1     -12.314  13.452  64.844  1.00  0.00    -0.457 C  
HETATM   14  C   UNL     1     -11.690  12.362  65.635  1.00  0.00    -0.414 C  
HETATM   15  C   UNL     1     -12.211  14.596  65.521  1.00  0.00    -0.200 C  
BRANCH  14  16
HETATM   16  C   UNL     1     -10.336  11.939  65.034  1.00  0.00    -0.289 C  
HETATM   17  O   UNL     1     -10.185  12.356  63.677  1.00  0.00    -0.419 OA 
HETATM   18  H   UNL     1      -9.350  12.095  63.307  1.00  0.00     0.000 HD 
ENDBRANCH  14  16
ENDBRANCH   4  11
TORSDOF 2
ENDMDL
