MODEL        5
REMARK 921   NORMALIZED FREE ENERGY PREDICTED BY IDOCK:   -5.37 KCAL/MOL
REMARK 922        TOTAL FREE ENERGY PREDICTED BY IDOCK:  -15.50 KCAL/MOL
REMARK 923 INTER-LIGAND FREE ENERGY PREDICTED BY IDOCK:  -11.83 KCAL/MOL
REMARK 924 INTRA-LIGAND FREE ENERGY PREDICTED BY IDOCK:   -3.67 KCAL/MOL
REMARK 927      BINDING AFFINITY PREDICTED BY RF-SCORE:    0.00 PKD
ROOT
HETATM    1  C   UNL     1      -9.935   6.154  74.563  1.00  0.00    -0.343 C  
HETATM    2  C   UNL     1     -10.022   5.126  73.435  1.00  0.00    -0.185 C  
HETATM    3  C   UNL     1      -9.476   5.687  72.141  1.00  0.00    -0.149 A  
HETATM    4  C   UNL     1     -11.459   4.631  73.267  1.00  0.00    -0.346 C  
HETATM    5  N   UNL     1      -9.895   6.785  71.538  1.00  0.00    -0.171 NA 
HETATM    6  C   UNL     1      -9.169   7.006  70.362  1.00  0.00    -0.156 A  
HETATM    7  C   UNL     1      -8.206   6.048  70.106  1.00  0.00    -0.119 A  
HETATM    8  S   UNL     1      -8.194   4.863  71.338  1.00  0.00    -0.114 SA 
ENDROOT
BRANCH   6   9
HETATM    9  C   UNL     1      -9.520   8.161  69.458  1.00  0.00    -0.156 C  
BRANCH   9  10
HETATM   10  N   UNL     1     -10.453   7.780  68.390  1.00  0.00    -0.192 N  
HETATM   11  C   UNL     1     -11.024   6.441  68.461  1.00  0.00    -0.319 C  
BRANCH  10  12
HETATM   12  C   UNL     1     -10.398   8.487  67.190  1.00  0.00    -0.307 C  
HETATM   13  O   UNL     1     -11.008   9.535  66.992  1.00  0.00    -0.138 OA 
BRANCH  12  14
HETATM   14  N   UNL     1      -9.538   7.972  66.264  1.00  0.00    -0.380 N  
HETATM   15  H   UNL     1      -9.933   7.356  65.554  1.00  0.00     0.000 HD 
BRANCH  14  16
HETATM   16  C   UNL     1      -8.089   8.230  66.200  1.00  0.00    -0.111 C  
BRANCH  16  17
HETATM   17  C   UNL     1      -7.945   9.566  65.437  1.00  0.00    -0.113 C  
HETATM   18  H   UNL     1      -7.367  11.508  65.468  1.00  0.00     0.000 HD 
HETATM   19  N   UNL     1      -7.599  10.721  66.075  1.00  0.00    -0.148 N  
HETATM   20  O   UNL     1      -8.093   9.605  64.209  1.00  0.00    -0.129 OA 
BRANCH  19  21
HETATM   21  C   UNL     1      -7.515  10.985  67.508  1.00  0.00    -0.102 C  
BRANCH  21  22
HETATM   22  C   UNL     1      -6.100  11.423  67.930  1.00  0.00    -0.050 C  
BRANCH  22  23
HETATM   23  C   UNL     1      -6.026  12.808  68.525  1.00  0.00    -0.062 A  
HETATM   24  C   UNL     1      -6.073  14.247  70.478  1.00  0.00    -0.180 A  
HETATM   25  C   UNL     1      -5.901  15.219  68.276  1.00  0.00    -0.121 A  
HETATM   26  C   UNL     1      -5.939  13.946  67.708  1.00  0.00    -0.117 A  
HETATM   27  C   UNL     1      -6.100  12.973  69.914  1.00  0.00    -0.125 A  
HETATM   28  C   UNL     1      -5.975  15.373  69.656  1.00  0.00    -0.130 A  
ENDBRANCH  22  23
ENDBRANCH  21  22
BRANCH  21  29
HETATM   29  C   UNL     1      -8.595  11.997  67.932  1.00  0.00    -0.165 C  
BRANCH  29  30
HETATM   30  C   UNL     1      -9.310  12.762  66.802  1.00  0.00    -0.241 C  
BRANCH  30  31
HETATM   31  C   UNL     1     -10.139  13.960  67.321  1.00  0.00    -0.242 C  
BRANCH  31  32
HETATM   32  C   UNL     1     -11.628  13.560  67.473  1.00  0.00    -0.385 C  
BRANCH  32  33
HETATM   33  C   UNL     1     -11.967  13.082  68.867  1.00  0.00    -0.303 A  
HETATM   34  C   UNL     1     -11.972  11.715  69.174  1.00  0.00    -0.378 A  
HETATM   35  C   UNL     1     -12.341  11.272  70.445  1.00  0.00    -0.415 A  
HETATM   36  C   UNL     1     -12.304  14.000  69.874  1.00  0.00    -0.367 A  
HETATM   37  C   UNL     1     -12.682  13.559  71.139  1.00  0.00    -0.425 A  
HETATM   38  C   UNL     1     -12.709  12.196  71.423  1.00  0.00    -0.368 A  
ENDBRANCH  32  33
ENDBRANCH  31  32
BRANCH  31  39
HETATM   39  N   UNL     1      -9.995  15.128  66.455  1.00  0.00    -0.258 N  
HETATM   40  C   UNL     1     -10.363  16.379  66.859  1.00  0.00    -0.300 C  
HETATM   41  H   UNL     1      -9.607  15.005  65.519  1.00  0.00     0.000 HD 
HETATM   42  O   UNL     1     -10.890  16.631  67.933  1.00  0.00    -0.347 OA 
BRANCH  40  43
HETATM   43  O   UNL     1     -10.029  17.293  65.919  1.00  0.00    -0.490 OA 
BRANCH  43  44
HETATM   44  C   UNL     1     -10.397  18.640  66.245  1.00  0.00    -0.444 C  
BRANCH  44  45
HETATM   45  C   UNL     1      -9.157  19.385  66.597  1.00  0.00    -0.346 A  
HETATM   46  N   UNL     1      -7.739  21.059  67.422  1.00  0.00    -0.296 NA 
HETATM   47  C   UNL     1      -9.018  20.539  67.345  1.00  0.00    -0.297 A  
HETATM   48  C   UNL     1      -6.920  20.285  66.745  1.00  0.00    -0.251 A  
HETATM   49  S   UNL     1      -7.620  18.906  66.002  1.00  0.00    -0.181 SA 
ENDBRANCH  44  45
ENDBRANCH  43  44
ENDBRANCH  40  43
ENDBRANCH  31  39
ENDBRANCH  30  31
ENDBRANCH  29  30
ENDBRANCH  21  29
ENDBRANCH  19  21
ENDBRANCH  16  17
BRANCH  16  50
HETATM   50  C   UNL     1      -7.381   7.129  65.393  1.00  0.00    -0.080 C  
BRANCH  50  51
HETATM   51  C   UNL     1      -8.301   5.948  65.103  1.00  0.00    -0.143 C  
BRANCH  51  52
HETATM   52  N   UNL     1      -8.588   5.081  66.263  1.00  0.00    -0.112 NA 
HETATM   53  O   UNL     1      -7.827   2.384  65.352  1.00  0.00    -0.076 OA 
HETATM   54  C   UNL     1      -9.010   3.022  64.849  1.00  0.00    -0.132 C  
HETATM   55  C   UNL     1      -9.578   4.048  65.853  1.00  0.00    -0.193 C  
HETATM   56  C   UNL     1      -6.834   3.344  65.744  1.00  0.00    -0.052 C  
HETATM   57  C   UNL     1      -7.399   4.350  66.760  1.00  0.00    -0.080 C  
ENDBRANCH  51  52
ENDBRANCH  50  51
ENDBRANCH  16  50
ENDBRANCH  14  16
ENDBRANCH  12  14
ENDBRANCH  10  12
ENDBRANCH   9  10
ENDBRANCH   6   9
TORSDOF 21
ENDMDL
