MODEL       12
REMARK 921   NORMALIZED FREE ENERGY PREDICTED BY IDOCK:   -8.14 KCAL/MOL
REMARK 922        TOTAL FREE ENERGY PREDICTED BY IDOCK:  -14.56 KCAL/MOL
REMARK 923 INTER-LIGAND FREE ENERGY PREDICTED BY IDOCK:  -12.92 KCAL/MOL
REMARK 924 INTRA-LIGAND FREE ENERGY PREDICTED BY IDOCK:   -1.64 KCAL/MOL
REMARK 927      BINDING AFFINITY PREDICTED BY RF-SCORE:    0.00 PKD
ROOT
HETATM    1  O   UNL     1      -9.037  10.599  62.935  1.00  0.00    -0.221 OA 
HETATM    2  C   UNL     1      -9.967  11.067  63.807  1.00  0.00    -0.350 C  
HETATM    3  C   UNL     1     -10.632  12.341  63.326  1.00  0.00    -0.312 C  
HETATM    4  O   UNL     1     -10.245  10.466  64.831  1.00  0.00    -0.338 OA 
ENDROOT
BRANCH   3   5
HETATM    5  C   UNL     1     -11.235  13.192  64.444  1.00  0.00    -0.403 C  
HETATM    6  C   UNL     1     -12.532  12.692  65.065  1.00  0.00    -0.556 C  
HETATM    7  C   UNL     1     -12.557  13.879  64.144  1.00  0.00    -0.142 C  
BRANCH   5   8
HETATM    8  C   UNL     1     -10.171  13.896  65.277  1.00  0.00    -0.344 C  
BRANCH   8   9
HETATM    9  S   UNL     1      -9.970  13.402  67.001  1.00  0.00    -0.252 SA 
BRANCH   9  10
HETATM   10  C   UNL     1     -11.383  14.319  67.785  1.00  0.00    -0.307 C  
BRANCH  10  11
HETATM   11  C   UNL     1     -11.147  15.840  67.951  1.00  0.00    -0.326 C  
BRANCH  11  12
HETATM   12  C   UNL     1      -9.670  16.259  68.121  1.00  0.00    -0.227 C  
BRANCH  12  13
HETATM   13  C   UNL     1      -9.440  17.721  67.762  1.00  0.00    -0.262 A  
HETATM   14  C   UNL     1     -10.615  18.467  67.489  1.00  0.00    -0.447 A  
HETATM   15  C   UNL     1      -9.363  20.467  67.125  1.00  0.00    -0.537 A  
HETATM   16  H   UNL     1      -6.043  16.706  69.555  1.00  0.00     0.000 HD 
HETATM   17  C   UNL     1     -10.579  19.814  67.157  1.00  0.00    -0.577 A  
HETATM   18  C   UNL     1      -5.614  18.646  68.050  1.00  0.00    -0.184 C  
HETATM   19  C   UNL     1      -8.191  19.764  67.418  1.00  0.00    -0.342 A  
HETATM   20  C   UNL     1      -8.180  18.382  67.732  1.00  0.00    -0.265 A  
HETATM   21  O   UNL     1      -6.872  17.128  69.362  1.00  0.00    -0.234 OA 
HETATM   22  C   UNL     1      -6.499  16.571  67.056  1.00  0.00    -0.221 C  
HETATM   23  C   UNL     1      -6.835  17.696  68.046  1.00  0.00    -0.193 C  
ENDBRANCH  12  13
ENDBRANCH  11  12
ENDBRANCH  10  11
BRANCH  10  24
HETATM   24  C   UNL     1     -11.839  13.596  69.055  1.00  0.00    -0.393 A  
HETATM   25  C   UNL     1     -12.570  12.189  71.389  1.00  0.00    -0.314 A  
HETATM   26  C   UNL     1     -12.516  14.238  70.103  1.00  0.00    -0.393 A  
HETATM   27  C   UNL     1     -11.536  12.226  69.213  1.00  0.00    -0.383 A  
HETATM   28  C   UNL     1     -12.877  13.542  71.258  1.00  0.00    -0.420 A  
HETATM   29  C   UNL     1     -11.910  11.508  70.362  1.00  0.00    -0.413 A  
BRANCH  29  30
HETATM   30  C   UNL     1     -11.523  10.093  70.477  1.00  0.00    -0.417 C  
HETATM   31  C   UNL     1     -11.433   9.414  71.635  1.00  0.00    -0.463 C  
BRANCH  31  32
HETATM   32  C   UNL     1     -11.024   8.011  71.770  1.00  0.00    -0.251 A  
HETATM   33  N   UNL     1     -10.725   7.398  70.600  1.00  0.00    -0.225 NA 
HETATM   34  C   UNL     1     -10.403   6.091  70.616  1.00  0.00    -0.222 A  
HETATM   35  C   UNL     1     -10.382   5.337  71.807  1.00  0.00    -0.277 A  
HETATM   36  C   UNL     1     -10.698   5.988  73.002  1.00  0.00    -0.279 A  
HETATM   37  C   UNL     1     -10.062   3.968  71.779  1.00  0.00    -0.199 A  
HETATM   38  C   UNL     1      -9.768   3.344  70.571  1.00  0.00    -0.161 A  
HETATM   39  C   UNL     1     -11.031   7.338  72.983  1.00  0.00    -0.388 A  
HETATM   40  C   UNL     1      -9.780   4.091  69.398  1.00  0.00    -0.135 A  
HETATM   41  C   UNL     1     -10.093   5.450  69.426  1.00  0.00    -0.304 A  
HETATM   42 CL   UNL     1      -9.417   3.325  67.900  1.00  0.00    -0.244 Cl 
ENDBRANCH  31  32
ENDBRANCH  29  30
ENDBRANCH  10  24
ENDBRANCH   9  10
ENDBRANCH   8   9
ENDBRANCH   5   8
ENDBRANCH   3   5
TORSDOF 10
ENDMDL
