MODEL       11
REMARK 921   NORMALIZED FREE ENERGY PREDICTED BY IDOCK:   -6.11 KCAL/MOL
REMARK 922        TOTAL FREE ENERGY PREDICTED BY IDOCK:   -8.53 KCAL/MOL
REMARK 923 INTER-LIGAND FREE ENERGY PREDICTED BY IDOCK:   -8.25 KCAL/MOL
REMARK 924 INTRA-LIGAND FREE ENERGY PREDICTED BY IDOCK:   -0.29 KCAL/MOL
REMARK 927      BINDING AFFINITY PREDICTED BY RF-SCORE:    0.00 PKD
ROOT
HETATM    1  C   UNL     1     -10.080   7.564  73.417  1.00  0.00    -0.338 C  
HETATM    2  O   UNL     1     -11.412   7.781  72.970  1.00  0.00    -0.372 OA 
ENDROOT
BRANCH   2   3
HETATM    3  C   UNL     1     -11.561   8.711  71.970  1.00  0.00    -0.370 A  
HETATM    4  C   UNL     1     -10.574   9.043  71.029  1.00  0.00    -0.341 A  
HETATM    5  C   UNL     1     -10.847  10.055  70.090  1.00  0.00    -0.311 A  
HETATM    6  C   UNL     1     -12.084  10.686  70.131  1.00  0.00    -0.333 A  
HETATM    7  C   UNL     1     -13.090  10.376  71.047  1.00  0.00    -0.450 A  
HETATM    8  N   UNL     1     -12.026  11.604  69.120  1.00  0.00    -0.327 NA 
HETATM    9  C   UNL     1     -12.790   9.378  71.981  1.00  0.00    -0.496 A  
HETATM   10  C   UNL     1     -10.802  11.510  68.510  1.00  0.00    -0.215 A  
HETATM   11  H   UNL     1     -12.770  12.252  68.862  1.00  0.00     0.000 HD 
HETATM   12  N   UNL     1     -10.057  10.580  69.078  1.00  0.00    -0.207 NA 
BRANCH  10  13
HETATM   13  S   UNL     1     -10.405  12.508  67.140  1.00  0.00    -0.220 S  
HETATM   14  O   UNL     1     -10.557  11.602  65.950  1.00  0.00    -0.255 OA 
BRANCH  13  15
HETATM   15  C   UNL     1     -11.723  13.749  67.192  1.00  0.00    -0.385 C  
BRANCH  15  16
HETATM   16  C   UNL     1     -11.170  15.131  67.509  1.00  0.00    -0.330 A  
HETATM   17  N   UNL     1     -11.085  15.411  68.837  1.00  0.00    -0.258 NA 
HETATM   18  C   UNL     1     -10.597  16.616  69.204  1.00  0.00    -0.340 A  
HETATM   19  C   UNL     1     -10.202  17.603  68.316  1.00  0.00    -0.374 A  
HETATM   20  C   UNL     1     -10.290  17.313  66.947  1.00  0.00    -0.310 A  
HETATM   21  C   UNL     1      -9.722  18.930  68.826  1.00  0.00    -0.454 C  
HETATM   22  C   UNL     1     -10.801  15.663  65.068  1.00  0.00    -0.468 C  
HETATM   23  C   UNL     1     -10.748  16.046  66.517  1.00  0.00    -0.238 A  
BRANCH  20  24
HETATM   24  O   UNL     1      -9.765  18.281  66.124  1.00  0.00    -0.455 OA 
HETATM   25  C   UNL     1     -10.624  19.344  65.726  1.00  0.00    -0.400 C  
ENDBRANCH  20  24
ENDBRANCH  15  16
ENDBRANCH  13  15
ENDBRANCH  10  13
ENDBRANCH   2   3
TORSDOF 5
ENDMDL
