MODEL       91
REMARK 921   NORMALIZED FREE ENERGY PREDICTED BY IDOCK:    3.81 KCAL/MOL
REMARK 922        TOTAL FREE ENERGY PREDICTED BY IDOCK:    3.60 KCAL/MOL
REMARK 923 INTER-LIGAND FREE ENERGY PREDICTED BY IDOCK:    2.75 KCAL/MOL
REMARK 924 INTRA-LIGAND FREE ENERGY PREDICTED BY IDOCK:    0.85 KCAL/MOL
REMARK 927      BINDING AFFINITY PREDICTED BY RF-SCORE:    0.00 PKD
ROOT
HETATM    1  C   UNL     1     -12.685  17.770  67.143  1.00  0.00     6.185 C  
HETATM    2  C   UNL     1     -11.664  16.667  67.193  1.00  0.00     1.002 A  
HETATM    3  C   UNL     1     -10.508  16.847  67.968  1.00  0.00    -0.347 A  
HETATM    4  C   UNL     1      -9.595  15.807  68.173  1.00  0.00    -0.199 A  
HETATM    5  C   UNL     1      -9.886  14.519  67.680  1.00  0.00    -0.223 A  
HETATM    6  C   UNL     1     -10.970  14.380  66.798  1.00  0.00    -0.314 A  
HETATM    7  N   UNL     1      -9.063  13.434  68.056  1.00  0.00    -0.198 NA 
HETATM    8  H   UNL     1      -4.925  14.456  70.938  1.00  0.00     0.000 HD 
HETATM    9  C   UNL     1      -7.902  13.703  68.767  1.00  0.00    -0.043 A  
HETATM   10  C   UNL     1     -11.863  15.435  66.546  1.00  0.00     0.306 A  
HETATM   11  C   UNL     1     -12.995  15.225  65.577  1.00  0.00     1.100 C  
HETATM   12  O   UNL     1      -5.656  16.495  69.562  1.00  0.00    -0.139 OA 
HETATM   13  N   UNL     1      -7.115  12.771  69.227  1.00  0.00    -0.308 N  
HETATM   14  H   UNL     1      -7.389  11.797  69.096  1.00  0.00     0.000 HD 
HETATM   15  C   UNL     1      -7.550  15.136  69.051  1.00  0.00    -0.162 A  
HETATM   16  C   UNL     1      -5.950  13.033  69.871  1.00  0.00    -0.136 C  
HETATM   17  C   UNL     1      -6.214  15.414  69.658  1.00  0.00    -0.153 C  
HETATM   18  N   UNL     1      -8.390  16.109  68.842  1.00  0.00    -0.221 NA 
HETATM   19  N   UNL     1      -5.634  14.313  70.218  1.00  0.00    -0.112 N  
HETATM   20  O   UNL     1      -5.133  12.148  70.112  1.00  0.00    -0.072 OA 
ENDROOT
BRANCH   7  21
HETATM   21  C   UNL     1      -9.717  12.126  68.252  1.00  0.00    -0.216 C  
BRANCH  21  22
HETATM   22  C   UNL     1      -9.105  11.038  67.345  1.00  0.00    -0.141 C  
HETATM   23  O   UNL     1      -8.402  11.685  66.282  1.00  0.00    -0.319 OA 
HETATM   24  H   UNL     1      -8.025  11.014  65.724  1.00  0.00     0.000 HD 
BRANCH  22  25
HETATM   25  C   UNL     1     -10.232  10.118  66.841  1.00  0.00    -0.236 C  
HETATM   26  H   UNL     1     -11.743   9.220  67.666  1.00  0.00     0.000 HD 
HETATM   27  O   UNL     1     -11.048   9.787  67.976  1.00  0.00    -0.222 OA 
BRANCH  25  28
HETATM   28  C   UNL     1      -9.753   8.818  66.152  1.00  0.00    -0.250 C  
HETATM   29  H   UNL     1     -10.328   6.927  66.036  1.00  0.00     0.000 HD 
HETATM   30  O   UNL     1     -10.623   7.725  66.459  1.00  0.00    -0.179 OA 
BRANCH  28  31
HETATM   31  C   UNL     1      -8.312   8.454  66.560  1.00  0.00    -0.111 C  
BRANCH  31  32
HETATM   32  O   UNL     1      -8.233   8.212  67.948  1.00  0.00    -0.125 OA 
BRANCH  32  33
HETATM   33  P   UNL     1      -6.908   8.654  68.735  1.00  0.00    -0.064 P  
HETATM   34  O   UNL     1      -7.313   8.401  70.256  1.00  0.00    -0.053 OA 
HETATM   35  O   UNL     1      -6.507  10.092  68.550  1.00  0.00    -0.049 OA 
BRANCH  33  36
HETATM   36  O   UNL     1      -5.761   7.655  68.246  1.00  0.00    -0.026 OA 
BRANCH  36  37
HETATM   37  P   UNL     1      -5.631   6.021  68.799  1.00  0.00    -0.013 P  
HETATM   38  O   UNL     1      -7.194   6.032  69.268  1.00  0.00    -0.070 OA 
HETATM   39  O   UNL     1      -5.486   5.516  67.369  1.00  0.00    -0.011 OA 
BRANCH  37  40
HETATM   40  O   UNL     1      -5.502   4.386  69.351  1.00  0.00    -0.010 OA 
BRANCH  40  41
HETATM   41  C   UNL     1      -5.837   3.406  68.370  1.00  0.00    -0.023 C  
BRANCH  41  42
HETATM   42  C   UNL     1      -7.292   2.952  68.546  1.00  0.00    -0.049 C  
HETATM   43  O   UNL     1      -7.685   3.215  69.899  1.00  0.00    -0.044 OA 
HETATM   44  C   UNL     1      -9.053   3.642  69.900  1.00  0.00    -0.122 C  
HETATM   45  C   UNL     1      -9.505   3.953  68.475  1.00  0.00    -0.148 C  
HETATM   46  H   UNL     1      -9.187   3.299  65.907  1.00  0.00     0.000 HD 
HETATM   47  C   UNL     1      -8.274   3.666  67.621  1.00  0.00    -0.089 C  
HETATM   48  O   UNL     1      -8.575   2.855  66.484  1.00  0.00    -0.100 OA 
HETATM   49  O   UNL     1     -10.608   3.127  68.058  1.00  0.00     1.504 OA 
HETATM   50  H   UNL     1     -10.890   3.321  67.172  1.00  0.00     0.000 HD 
BRANCH  44  51
HETATM   51  N   UNL     1      -9.195   4.750  70.822  1.00  0.00    -0.132 NA 
HETATM   52  C   UNL     1      -8.738   4.830  72.110  1.00  0.00    -0.124 A  
HETATM   53  C   UNL     1     -10.316   6.261  71.913  1.00  0.00    -0.204 A  
HETATM   54  N   UNL     1      -9.417   5.716  72.810  1.00  0.00    -0.148 NA 
HETATM   55  C   UNL     1     -10.099   5.760  70.640  1.00  0.00    -0.203 A  
HETATM   56  N   UNL     1     -10.738   6.084  69.504  1.00  0.00    -0.299 NA 
HETATM   57  C   UNL     1     -11.703   6.993  69.753  1.00  0.00     0.002 A  
HETATM   58  N   UNL     1     -12.078   7.513  70.943  1.00  0.00    -0.266 NA 
HETATM   59  C   UNL     1     -11.404   7.135  72.055  1.00  0.00    -0.258 A  
HETATM   60  N   UNL     1     -11.864   7.581  73.283  1.00  0.00    -0.417 NA 
HETATM   61  H2  UNL     1     -11.072   8.000  73.769  1.00  0.00     0.000 HD 
HETATM   62  H1  UNL     1     -12.655   8.216  73.386  1.00  0.00     0.000 HD 
ENDBRANCH  44  51
ENDBRANCH  41  42
ENDBRANCH  40  41
ENDBRANCH  37  40
ENDBRANCH  36  37
ENDBRANCH  33  36
ENDBRANCH  32  33
ENDBRANCH  31  32
ENDBRANCH  28  31
ENDBRANCH  25  28
ENDBRANCH  22  25
ENDBRANCH  21  22
ENDBRANCH   7  21
TORSDOF 13
ENDMDL
