MODEL      100
REMARK 921   NORMALIZED FREE ENERGY PREDICTED BY IDOCK:   -3.17 KCAL/MOL
REMARK 922        TOTAL FREE ENERGY PREDICTED BY IDOCK:   -4.36 KCAL/MOL
REMARK 923 INTER-LIGAND FREE ENERGY PREDICTED BY IDOCK:   -3.88 KCAL/MOL
REMARK 924 INTRA-LIGAND FREE ENERGY PREDICTED BY IDOCK:   -0.47 KCAL/MOL
REMARK 927      BINDING AFFINITY PREDICTED BY RF-SCORE:    0.00 PKD
ROOT
HETATM    1  C   UNL     1      -8.748  12.859  67.074  1.00  0.00    -0.195 C  
HETATM    2  C   UNL     1      -9.727  12.385  68.106  1.00  0.00    -0.214 C  
HETATM    3  C   UNL     1      -9.604  13.865  67.811  1.00  0.00    -0.222 C  
ENDROOT
BRANCH   3   4
HETATM    4  C   UNL     1     -10.659  14.635  67.049  1.00  0.00    -0.280 C  
BRANCH   4   5
HETATM    5  N   UNL     1     -10.015  15.526  66.108  1.00  0.00    -0.286 NA 
HETATM    6  H   UNL     1      -9.774  15.181  65.179  1.00  0.00     0.000 HD 
BRANCH   5   7
HETATM    7  C   UNL     1      -9.726  16.806  66.437  1.00  0.00    -0.290 A  
HETATM    8  N   UNL     1      -8.619  17.292  66.884  1.00  0.00    -0.229 NA 
HETATM    9  C   UNL     1      -8.880  18.722  67.033  1.00  0.00    -0.294 A  
HETATM   10  C   UNL     1     -10.268  18.940  66.476  1.00  0.00    -0.414 A  
HETATM   11  O   UNL     1     -10.769  17.640  66.217  1.00  0.00    -0.245 OA 
ENDBRANCH   5   7
ENDBRANCH   4   5
BRANCH   4  12
HETATM   12  C   UNL     1     -11.552  13.693  66.273  1.00  0.00    -0.372 C  
HETATM   13  C   UNL     1     -11.543  13.709  64.761  1.00  0.00    -0.374 C  
HETATM   14  C   UNL     1     -12.746  14.210  65.504  1.00  0.00    -0.468 C  
ENDBRANCH   4  12
ENDBRANCH   3   4
TORSDOF 4
ENDMDL
