MODEL      255
REMARK 921   NORMALIZED FREE ENERGY PREDICTED BY IDOCK:   -3.65 KCAL/MOL
REMARK 922        TOTAL FREE ENERGY PREDICTED BY IDOCK:   -9.94 KCAL/MOL
REMARK 923 INTER-LIGAND FREE ENERGY PREDICTED BY IDOCK:   -8.78 KCAL/MOL
REMARK 924 INTRA-LIGAND FREE ENERGY PREDICTED BY IDOCK:   -1.16 KCAL/MOL
REMARK 927      BINDING AFFINITY PREDICTED BY RF-SCORE:    0.00 PKD
ROOT
HETATM    1  C   UNL     1     -13.669   7.299  71.682  1.00  0.00    -0.446 C  
HETATM    2  C   UNL     1     -12.486   8.069  71.105  1.00  0.00    -0.192 C  
HETATM    3  C   UNL     1     -12.341   9.425  71.784  1.00  0.00    -0.471 C  
ENDROOT
BRANCH   2   4
HETATM    4  O   UNL     1     -11.273   7.332  71.345  1.00  0.00    -0.242 OA 
BRANCH   4   5
HETATM    5  C   UNL     1     -10.594   7.686  72.475  1.00  0.00    -0.281 C  
HETATM    6  O   UNL     1     -10.939   7.423  73.620  1.00  0.00    -0.306 OA 
BRANCH   5   7
HETATM    7  C   UNL     1      -9.362   8.471  72.102  1.00  0.00    -0.353 C  
BRANCH   7   8
HETATM    8  C   UNL     1      -8.326   7.570  71.428  1.00  0.00    -0.108 C  
BRANCH   8   9
HETATM    9  C   UNL     1      -7.989   8.004  70.003  1.00  0.00    -0.106 C  
BRANCH   9  10
HETATM   10  C   UNL     1      -7.347   9.362  69.956  1.00  0.00    -0.101 C  
HETATM   11  C   UNL     1      -7.882  10.484  69.445  1.00  0.00    -0.151 C  
BRANCH  11  12
HETATM   12  C   UNL     1      -9.245  10.631  68.833  1.00  0.00    -0.189 C  
BRANCH  12  13
HETATM   13  C   UNL     1      -9.417  11.792  67.838  1.00  0.00    -0.191 C  
HETATM   14  C   UNL     1      -9.413  11.276  66.387  1.00  0.00    -0.200 C  
HETATM   15  C   UNL     1      -9.940  12.459  65.597  1.00  0.00    -0.261 C  
HETATM   16  O   UNL     1     -10.324  10.190  66.211  1.00  0.00    -0.226 OA 
HETATM   17  C   UNL     1     -11.077  12.982  66.469  1.00  0.00    -0.288 C  
HETATM   18  H   UNL     1     -10.321   9.872  65.315  1.00  0.00     0.000 HD 
HETATM   19  C   UNL     1     -10.756  12.568  67.929  1.00  0.00    -0.239 C  
HETATM   20  O   UNL     1     -12.311  12.383  66.078  1.00  0.00    -0.627 OA 
HETATM   21  H   UNL     1     -13.019  12.709  66.621  1.00  0.00     0.000 HD 
BRANCH  19  22
HETATM   22  C   UNL     1     -10.682  13.796  68.855  1.00  0.00    -0.249 C  
BRANCH  22  23
HETATM   23  C   UNL     1     -11.849  14.751  68.586  1.00  0.00    -0.334 C  
BRANCH  23  24
HETATM   24  C   UNL     1     -11.453  16.229  68.497  1.00  0.00    -0.272 C  
HETATM   25  O   UNL     1     -11.225  16.754  69.805  1.00  0.00    -0.362 OA 
HETATM   26  H   UNL     1     -10.980  17.670  69.750  1.00  0.00     0.000 HD 
BRANCH  24  27
HETATM   27  C   UNL     1     -10.152  16.414  67.701  1.00  0.00    -0.263 C  
BRANCH  27  28
HETATM   28  C   UNL     1     -10.076  17.766  66.991  1.00  0.00    -0.337 C  
BRANCH  28  29
HETATM   29  C   UNL     1      -8.894  18.580  67.442  1.00  0.00    -0.276 A  
HETATM   30  C   UNL     1      -8.746  19.904  67.006  1.00  0.00    -0.402 A  
HETATM   31  C   UNL     1      -7.657  20.666  67.423  1.00  0.00    -0.375 A  
HETATM   32  C   UNL     1      -6.704  20.110  68.274  1.00  0.00    -0.336 A  
HETATM   33  C   UNL     1      -6.837  18.791  68.705  1.00  0.00    -0.294 A  
HETATM   34  C   UNL     1      -7.928  18.027  68.288  1.00  0.00    -0.294 A  
ENDBRANCH  28  29
ENDBRANCH  27  28
ENDBRANCH  24  27
ENDBRANCH  23  24
ENDBRANCH  22  23
ENDBRANCH  19  22
ENDBRANCH  12  13
ENDBRANCH  11  12
ENDBRANCH   9  10
ENDBRANCH   8   9
ENDBRANCH   7   8
ENDBRANCH   5   7
ENDBRANCH   4   5
ENDBRANCH   2   4
TORSDOF 14
ENDMDL
