MODEL       15
REMARK 921   NORMALIZED FREE ENERGY PREDICTED BY IDOCK:   -6.88 KCAL/MOL
REMARK 922        TOTAL FREE ENERGY PREDICTED BY IDOCK:  -10.45 KCAL/MOL
REMARK 923 INTER-LIGAND FREE ENERGY PREDICTED BY IDOCK:   -9.36 KCAL/MOL
REMARK 924 INTRA-LIGAND FREE ENERGY PREDICTED BY IDOCK:   -1.09 KCAL/MOL
REMARK 927      BINDING AFFINITY PREDICTED BY RF-SCORE:    0.00 PKD
ROOT
HETATM    1  C   UNL     1     -13.872  15.417  72.486  1.00  0.00    -0.553 C  
HETATM    2  O   UNL     1     -12.773  14.550  72.238  1.00  0.00    -0.321 OA 
ENDROOT
BRANCH   2   3
HETATM    3  C   UNL     1     -12.410  14.361  70.933  1.00  0.00    -0.349 A  
HETATM    4  C   UNL     1     -12.089  13.139  70.339  1.00  0.00    -0.392 A  
HETATM    5  C   UNL     1     -11.689  13.087  68.979  1.00  0.00    -0.376 A  
HETATM    6  C   UNL     1     -11.586  14.277  68.253  1.00  0.00    -0.324 A  
HETATM    7  N   UNL     1     -11.033  13.977  66.994  1.00  0.00    -0.294 N  
HETATM    8  C   UNL     1     -12.029  15.492  68.814  1.00  0.00    -0.265 A  
HETATM    9  C   UNL     1     -10.558  14.922  66.035  1.00  0.00    -0.315 C  
HETATM   10  C   UNL     1     -12.409  15.515  70.160  1.00  0.00    -0.384 A  
HETATM   11  C   UNL     1     -11.061  12.575  66.856  1.00  0.00    -0.278 A  
HETATM   12  O   UNL     1     -10.548  14.582  64.853  1.00  0.00    -0.409 OA 
HETATM   13  C   UNL     1     -11.419  12.014  68.080  1.00  0.00    -0.392 A  
HETATM   14  C   UNL     1     -10.717  11.832  65.606  1.00  0.00    -0.328 C  
BRANCH   9  15
HETATM   15  C   UNL     1     -10.077  16.305  66.318  1.00  0.00    -0.340 A  
HETATM   16  C   UNL     1      -8.929  16.560  67.078  1.00  0.00    -0.224 A  
HETATM   17  C   UNL     1      -9.335  18.939  66.900  1.00  0.00    -0.309 A  
HETATM   18 CL   UNL     1      -8.939  20.551  67.345  1.00  0.00    -0.454 Cl 
HETATM   19  C   UNL     1      -8.579  17.875  67.396  1.00  0.00    -0.239 A  
HETATM   20  C   UNL     1     -10.416  18.700  66.055  1.00  0.00    -0.456 A  
HETATM   21  C   UNL     1     -10.786  17.384  65.763  1.00  0.00    -0.120 A  
ENDBRANCH   9  15
BRANCH  13  22
HETATM   22  C   UNL     1     -11.606  10.550  68.359  1.00  0.00    -0.205 C  
BRANCH  22  23
HETATM   23  C   UNL     1     -10.753   9.994  69.472  1.00  0.00    -0.244 C  
HETATM   24  O   UNL     1      -9.528  10.081  69.519  1.00  0.00    -0.204 OA 
BRANCH  23  25
HETATM   25  O   UNL     1     -11.498   9.434  70.461  1.00  0.00    -0.263 OA 
BRANCH  25  26
HETATM   26  C   UNL     1     -10.957   8.230  71.002  1.00  0.00    -0.245 C  
HETATM   27  C   UNL     1     -11.825   6.988  70.820  1.00  0.00    -0.355 C  
HETATM   28  O   UNL     1     -11.743   6.433  69.586  1.00  0.00    -0.389 OA 
HETATM   29  O   UNL     1     -12.533   6.518  71.700  1.00  0.00    -0.336 OA 
ENDBRANCH  25  26
ENDBRANCH  23  25
ENDBRANCH  22  23
ENDBRANCH  13  22
ENDBRANCH   2   3
TORSDOF 6
ENDMDL
