MODEL      110
REMARK 921   NORMALIZED FREE ENERGY PREDICTED BY IDOCK:   -3.33 KCAL/MOL
REMARK 922        TOTAL FREE ENERGY PREDICTED BY IDOCK:   -5.09 KCAL/MOL
REMARK 923 INTER-LIGAND FREE ENERGY PREDICTED BY IDOCK:   -4.30 KCAL/MOL
REMARK 924 INTRA-LIGAND FREE ENERGY PREDICTED BY IDOCK:   -0.79 KCAL/MOL
REMARK 927      BINDING AFFINITY PREDICTED BY RF-SCORE:    0.00 PKD
ROOT
HETATM    1  C   UNL     1     -10.142  19.734  66.160  1.00  0.00    -0.499 C  
HETATM    2  O   UNL     1      -9.925  19.045  67.389  1.00  0.00    -0.315 OA 
ENDROOT
BRANCH   2   3
HETATM    3  C   UNL     1      -9.794  17.683  67.290  1.00  0.00    -0.303 A  
HETATM    4  C   UNL     1      -8.584  17.108  67.723  1.00  0.00    -0.216 A  
HETATM    5  C   UNL     1      -7.496  17.990  68.287  1.00  0.00    -0.267 C  
HETATM    6  C   UNL     1      -8.400  15.700  67.612  1.00  0.00    -0.168 A  
HETATM    7  C   UNL     1      -9.428  14.887  67.052  1.00  0.00    -0.239 A  
HETATM    8  C   UNL     1      -7.106  15.051  68.054  1.00  0.00    -0.142 C  
HETATM    9  C   UNL     1     -10.779  16.876  66.723  1.00  0.00    -0.111 A  
HETATM   10  C   UNL     1     -10.618  15.486  66.597  1.00  0.00    -0.307 A  
HETATM   11  C   UNL     1     -11.754  14.749  65.940  1.00  0.00    -0.248 C  
BRANCH   7  12
HETATM   12  C   UNL     1      -9.192  13.439  66.854  1.00  0.00    -0.251 C  
HETATM   13  C   UNL     1      -9.723  12.468  67.618  1.00  0.00    -0.196 C  
BRANCH  13  14
HETATM   14  C   UNL     1      -9.464  11.025  67.515  1.00  0.00    -0.175 C  
HETATM   15  C   UNL     1      -8.191  10.564  67.543  1.00  0.00    -0.114 C  
HETATM   16  C   UNL     1     -10.624  10.068  67.344  1.00  0.00    -0.330 C  
BRANCH  15  17
HETATM   17  C   UNL     1      -7.822   9.160  67.449  1.00  0.00    -0.099 C  
HETATM   18  C   UNL     1      -6.938   8.639  66.584  1.00  0.00    -0.079 C  
BRANCH  18  19
HETATM   19  C   UNL     1      -6.594   7.219  66.589  1.00  0.00    -0.056 C  
HETATM   20  C   UNL     1      -6.180   6.651  67.920  1.00  0.00    -0.036 C  
HETATM   21  C   UNL     1      -6.663   6.507  65.444  1.00  0.00    -0.047 C  
HETATM   22  C   UNL     1      -6.305   5.077  65.318  1.00  0.00    -0.035 C  
HETATM   23  O   UNL     1      -6.436   4.639  64.048  1.00  0.00    -0.035 OA 
HETATM   24  O   UNL     1      -5.923   4.355  66.223  1.00  0.00    -0.025 OA 
ENDBRANCH  18  19
ENDBRANCH  15  17
ENDBRANCH  13  14
ENDBRANCH   7  12
ENDBRANCH   2   3
TORSDOF 5
ENDMDL
