MODEL       55
REMARK 921   NORMALIZED FREE ENERGY PREDICTED BY IDOCK:   -5.88 KCAL/MOL
REMARK 922        TOTAL FREE ENERGY PREDICTED BY IDOCK:  -15.24 KCAL/MOL
REMARK 923 INTER-LIGAND FREE ENERGY PREDICTED BY IDOCK:  -12.47 KCAL/MOL
REMARK 924 INTRA-LIGAND FREE ENERGY PREDICTED BY IDOCK:   -2.77 KCAL/MOL
REMARK 927      BINDING AFFINITY PREDICTED BY RF-SCORE:    0.00 PKD
ROOT
HETATM    1  C   UNL     1     -12.578   7.051  71.133  1.00  0.00    -0.387 C  
HETATM    2  C   UNL     1     -11.371   7.998  71.220  1.00  0.00    -0.295 C  
HETATM    3  C   UNL     1     -10.629   8.089  69.851  1.00  0.00    -0.242 C  
HETATM    4  C   UNL     1     -11.851   9.349  71.755  1.00  0.00    -0.452 C  
ENDROOT
BRANCH   3   5
HETATM    5  N   UNL     1     -10.099   6.770  69.432  1.00  0.00    -0.167 N  
HETATM    6  H   UNL     1     -10.038   4.746  66.898  1.00  0.00     0.000 HD 
HETATM    7  O   UNL     1     -10.519   7.121  67.195  1.00  0.00    -0.252 OA 
HETATM    8  C   UNL     1      -9.356   5.938  70.370  1.00  0.00    -0.159 C  
HETATM    9  C   UNL     1     -10.193   6.376  68.114  1.00  0.00    -0.167 C  
HETATM   10  C   UNL     1      -9.853   4.509  70.265  1.00  0.00    -0.299 C  
HETATM   11  N   UNL     1      -9.957   5.053  67.867  1.00  0.00    -0.153 N  
HETATM   12  C   UNL     1      -9.604   4.045  68.845  1.00  0.00    -0.143 C  
ENDBRANCH   3   5
BRANCH   3  13
HETATM   13  C   UNL     1      -9.537   9.202  69.856  1.00  0.00    -0.192 C  
HETATM   14  O   UNL     1      -8.853   9.476  70.836  1.00  0.00    -0.229 OA 
HETATM   15  N   UNL     1      -9.453   9.929  68.685  1.00  0.00    -0.149 N  
HETATM   16  H   UNL     1     -10.045   9.620  67.915  1.00  0.00     0.000 HD 
BRANCH  15  17
HETATM   17  C   UNL     1      -8.608  11.094  68.428  1.00  0.00    -0.152 C  
BRANCH  17  18
HETATM   18  C   UNL     1      -9.400  12.382  68.115  1.00  0.00    -0.209 C  
BRANCH  18  19
HETATM   19  C   UNL     1     -10.793  12.693  68.722  1.00  0.00    -0.231 C  
HETATM   20  O   UNL     1     -11.806  12.078  67.921  1.00  0.00    -0.457 OA 
HETATM   21  H   UNL     1     -12.659  12.268  68.292  1.00  0.00     0.000 HD 
BRANCH  19  22
HETATM   22  C   UNL     1     -11.069  14.247  68.736  1.00  0.00    -0.256 C  
BRANCH  22  23
HETATM   23  N   UNL     1     -10.486  14.978  67.552  1.00  0.00    -0.252 N  
HETATM   24  C   UNL     1      -9.977  16.227  67.270  1.00  0.00    -0.250 C  
HETATM   25  H   UNL     1     -10.461  14.378  66.728  1.00  0.00     0.000 HD 
HETATM   26  O   UNL     1      -9.342  16.374  66.222  1.00  0.00    -0.272 OA 
BRANCH  24  27
HETATM   27  C   UNL     1     -10.295  17.426  68.180  1.00  0.00    -0.366 C  
BRANCH  27  28
HETATM   28  O   UNL     1      -9.311  18.094  68.954  1.00  0.00    -0.268 OA 
BRANCH  28  29
HETATM   29  C   UNL     1      -8.333  18.824  68.294  1.00  0.00    -0.330 A  
HETATM   30  C   UNL     1      -9.773  20.655  67.027  1.00  0.00    -0.485 C  
HETATM   31  C   UNL     1      -8.506  19.975  67.480  1.00  0.00    -0.393 A  
HETATM   32  C   UNL     1      -7.356  20.649  67.001  1.00  0.00    -0.370 A  
HETATM   33  C   UNL     1      -6.069  20.217  67.280  1.00  0.00    -0.209 A  
HETATM   34  C   UNL     1      -5.894  19.073  68.038  1.00  0.00    -0.205 A  
HETATM   35  C   UNL     1      -7.004  18.363  68.539  1.00  0.00    -0.273 A  
HETATM   36  C   UNL     1      -6.706  17.112  69.329  1.00  0.00    -0.228 C  
ENDBRANCH  28  29
ENDBRANCH  27  28
ENDBRANCH  24  27
ENDBRANCH  22  23
BRANCH  22  37
HETATM   37  C   UNL     1     -12.522  14.600  69.155  1.00  0.00    -0.013 C  
BRANCH  37  38
HETATM   38  C   UNL     1     -12.679  14.943  70.611  1.00  0.00    -0.422 A  
HETATM   39  C   UNL     1     -12.993  15.829  73.249  1.00  0.00    -0.675 A  
HETATM   40  C   UNL     1     -11.561  15.236  71.396  1.00  0.00    -0.446 A  
HETATM   41  C   UNL     1     -14.105  15.471  72.497  1.00  0.00    -0.595 A  
HETATM   42  C   UNL     1     -13.941  14.984  71.203  1.00  0.00    -0.451 A  
HETATM   43  C   UNL     1     -11.718  15.675  72.708  1.00  0.00    -0.537 A  
ENDBRANCH  37  38
ENDBRANCH  22  37
ENDBRANCH  19  22
ENDBRANCH  18  19
ENDBRANCH  17  18
BRANCH  17  44
HETATM   44  C   UNL     1      -7.356  10.787  67.579  1.00  0.00    -0.092 C  
BRANCH  44  45
HETATM   45  C   UNL     1      -7.634   9.893  66.386  1.00  0.00    -0.101 A  
HETATM   46  C   UNL     1      -8.293  10.380  65.245  1.00  0.00    -0.166 A  
HETATM   47  C   UNL     1      -7.257   8.545  66.415  1.00  0.00    -0.079 A  
HETATM   48  C   UNL     1      -8.601   9.526  64.180  1.00  0.00    -0.217 A  
HETATM   49  C   UNL     1      -7.562   7.694  65.348  1.00  0.00    -0.094 A  
HETATM   50  C   UNL     1      -8.242   8.181  64.236  1.00  0.00    -0.095 A  
ENDBRANCH  44  45
ENDBRANCH  17  44
ENDBRANCH  15  17
ENDBRANCH   3  13
TORSDOF 14
ENDMDL
