MODEL       13
REMARK 921   NORMALIZED FREE ENERGY PREDICTED BY IDOCK:   -7.28 KCAL/MOL
REMARK 922        TOTAL FREE ENERGY PREDICTED BY IDOCK:  -10.88 KCAL/MOL
REMARK 923 INTER-LIGAND FREE ENERGY PREDICTED BY IDOCK:   -9.92 KCAL/MOL
REMARK 924 INTRA-LIGAND FREE ENERGY PREDICTED BY IDOCK:   -0.96 KCAL/MOL
REMARK 927      BINDING AFFINITY PREDICTED BY RF-SCORE:    0.00 PKD
ROOT
HETATM    1  C   UNL     1     -10.799  11.767  65.418  1.00  0.00    -0.295 C  
HETATM    2  O   UNL     1     -11.406  11.362  66.647  1.00  0.00    -0.355 OA 
ENDROOT
BRANCH   2   3
HETATM    3  C   UNL     1     -11.493  12.299  67.644  1.00  0.00    -0.336 A  
HETATM    4  C   UNL     1     -11.878  11.907  68.934  1.00  0.00    -0.307 A  
HETATM    5  C   UNL     1     -10.879  15.964  68.348  1.00  0.00    -0.316 A  
HETATM    6  C   UNL     1     -11.959  12.874  69.951  1.00  0.00    -0.377 A  
HETATM    7  N   UNL     1     -10.889  16.810  69.391  1.00  0.00    -0.300 NA 
HETATM    8  C   UNL     1     -11.622  14.206  69.756  1.00  0.00    -0.290 A  
HETATM    9  C   UNL     1     -11.176  13.650  67.437  1.00  0.00    -0.323 A  
HETATM   10  N   UNL     1     -11.663  15.048  70.795  1.00  0.00    -0.299 NA 
HETATM   11  C   UNL     1     -11.237  14.609  68.478  1.00  0.00    -0.288 A  
HETATM   12  C   UNL     1     -11.280  16.308  70.565  1.00  0.00    -0.309 A  
BRANCH   4  13
HETATM   13  O   UNL     1     -12.265  10.668  69.384  1.00  0.00    -0.252 OA 
BRANCH  13  14
HETATM   14  C   UNL     1     -12.753  10.552  70.718  1.00  0.00    -0.381 C  
BRANCH  14  15
HETATM   15  C   UNL     1     -11.815   9.626  71.538  1.00  0.00    -0.483 C  
HETATM   16  N   UNL     1     -11.843   6.715  70.812  1.00  0.00    -0.388 NA 
HETATM   17  C   UNL     1     -10.662   8.964  70.750  1.00  0.00    -0.287 C  
HETATM   18  C   UNL     1     -11.095   5.986  71.836  1.00  0.00    -0.277 C  
HETATM   19  C   UNL     1     -11.015   7.649  70.042  1.00  0.00    -0.228 C  
HETATM   20  C   UNL     1     -12.638   8.565  72.281  1.00  0.00    -0.438 C  
HETATM   21  C   UNL     1     -13.013   7.400  71.365  1.00  0.00    -0.356 C  
ENDBRANCH  14  15
ENDBRANCH  13  14
ENDBRANCH   4  13
BRANCH   5  22
HETATM   22  N   UNL     1     -10.525  16.465  67.070  1.00  0.00    -0.301 NA 
HETATM   23  H   UNL     1     -11.068  16.131  66.274  1.00  0.00     0.000 HD 
BRANCH  22  24
HETATM   24  C   UNL     1      -9.488  17.388  66.800  1.00  0.00    -0.273 A  
HETATM   25  C   UNL     1      -9.758  18.762  66.745  1.00  0.00    -0.329 A  
HETATM   26  F   UNL     1     -10.989  19.208  67.039  1.00  0.00    -0.505 F  
HETATM   27  C   UNL     1      -8.778  19.693  66.386  1.00  0.00    -0.404 A  
HETATM   28  C   UNL     1      -7.506  19.240  66.057  1.00  0.00    -0.276 A  
HETATM   29 BR   UNL     1      -6.165  20.468  65.538  1.00  0.00    -0.284 Br 
HETATM   30  C   UNL     1      -7.216  17.876  66.071  1.00  0.00    -0.325 A  
HETATM   31  C   UNL     1      -8.206  16.957  66.435  1.00  0.00    -0.342 A  
ENDBRANCH  22  24
ENDBRANCH   5  22
ENDBRANCH   2   3
TORSDOF 6
ENDMDL
