MODEL        1
REMARK 921   NORMALIZED FREE ENERGY PREDICTED BY IDOCK:   -8.27 KCAL/MOL
REMARK 922        TOTAL FREE ENERGY PREDICTED BY IDOCK:  -10.79 KCAL/MOL
REMARK 923 INTER-LIGAND FREE ENERGY PREDICTED BY IDOCK:  -10.20 KCAL/MOL
REMARK 924 INTRA-LIGAND FREE ENERGY PREDICTED BY IDOCK:   -0.59 KCAL/MOL
REMARK 927      BINDING AFFINITY PREDICTED BY RF-SCORE:    0.00 PKD
ROOT
HETATM    1  C   UNL     1      -8.345  17.687  67.164  1.00  0.00    -0.233 C  
HETATM    2  C   UNL     1      -7.546  18.865  67.779  1.00  0.00    -0.255 C  
HETATM    3  C   UNL     1      -8.570  19.652  68.613  1.00  0.00    -0.304 C  
HETATM    4  C   UNL     1      -9.917  19.400  67.923  1.00  0.00    -0.483 C  
HETATM    5  C   UNL     1      -9.497  18.670  66.663  1.00  0.00    -0.328 C  
HETATM    6  C   UNL     1     -10.443  17.791  65.964  1.00  0.00    -0.286 A  
HETATM    7  N   UNL     1     -11.100  17.831  64.833  1.00  0.00    -0.638 NA 
HETATM    8  N   UNL     1     -11.245  16.509  64.411  1.00  0.00    -0.980 NA 
HETATM    9  C   UNL     1     -10.608  15.734  65.259  1.00  0.00    -0.423 A  
HETATM   10  C   UNL     1      -9.218  16.387  67.338  1.00  0.00    -0.208 C  
HETATM   11  N   UNL     1     -10.211  16.501  66.297  1.00  0.00    -0.319 NA 
ENDROOT
BRANCH   9  12
HETATM   12  C   UNL     1     -10.323  14.281  65.156  1.00  0.00    -0.440 C  
BRANCH  12  13
HETATM   13  C   UNL     1     -11.082  13.468  66.226  1.00  0.00    -0.300 C  
BRANCH  13  14
HETATM   14  N   UNL     1     -10.196  13.042  67.330  1.00  0.00    -0.229 NA 
HETATM   15  C   UNL     1     -10.707  13.434  68.669  1.00  0.00    -0.255 C  
HETATM   16  C   UNL     1     -11.945  12.643  69.143  1.00  0.00    -0.243 C  
HETATM   17  N   UNL     1     -11.622  11.209  69.165  1.00  0.00    -0.294 NA 
HETATM   18  C   UNL     1      -9.980  11.571  67.332  1.00  0.00    -0.190 C  
HETATM   19  C   UNL     1     -11.143  10.691  67.872  1.00  0.00    -0.308 C  
BRANCH  17  20
HETATM   20  C   UNL     1     -11.866  10.410  70.266  1.00  0.00    -0.312 A  
HETATM   21  C   UNL     1     -13.130  10.365  70.881  1.00  0.00    -0.412 A  
HETATM   22  C   UNL     1     -13.390   9.580  72.013  1.00  0.00    -0.535 A  
HETATM   23  C   UNL     1     -12.377   8.812  72.567  1.00  0.00    -0.358 A  
HETATM   24  C   UNL     1     -11.100   8.832  72.000  1.00  0.00    -0.441 A  
HETATM   25  C   UNL     1      -9.970   8.034  72.592  1.00  0.00    -0.290 C  
HETATM   26  C   UNL     1     -10.867   9.619  70.851  1.00  0.00    -0.409 A  
HETATM   27  F   UNL     1      -8.923   8.816  72.977  1.00  0.00    -0.272 F  
HETATM   28  F   UNL     1      -9.453   7.123  71.723  1.00  0.00    -0.151 F  
HETATM   29  F   UNL     1     -10.325   7.322  73.703  1.00  0.00    -0.305 F  
ENDBRANCH  17  20
ENDBRANCH  13  14
ENDBRANCH  12  13
ENDBRANCH   9  12
TORSDOF 4
ENDMDL
