MODEL      133
REMARK 921   NORMALIZED FREE ENERGY PREDICTED BY IDOCK:   -2.73 KCAL/MOL
REMARK 922        TOTAL FREE ENERGY PREDICTED BY IDOCK:   -4.19 KCAL/MOL
REMARK 923 INTER-LIGAND FREE ENERGY PREDICTED BY IDOCK:   -3.57 KCAL/MOL
REMARK 924 INTRA-LIGAND FREE ENERGY PREDICTED BY IDOCK:   -0.63 KCAL/MOL
REMARK 927      BINDING AFFINITY PREDICTED BY RF-SCORE:    0.00 PKD
ROOT
HETATM    1  C   UNL     1     -11.124  15.304  67.079  1.00  0.00    -0.305 C  
HETATM    2  C   UNL     1     -11.580  13.629  67.062  1.00  0.00    -0.389 C  
HETATM    3  C   UNL     1      -9.674  14.911  67.355  1.00  0.00    -0.217 C  
HETATM    4  C   UNL     1     -12.654  12.975  66.201  1.00  0.00     0.001 C  
HETATM    5  C   UNL     1      -9.191  14.798  65.900  1.00  0.00    -0.076 C  
HETATM    6  C   UNL     1     -11.448  12.833  68.455  1.00  0.00    -0.344 C  
HETATM    7  C   UNL     1     -11.859  16.140  64.665  1.00  0.00     0.133 C  
HETATM    8  C   UNL     1      -9.258  16.228  65.498  1.00  0.00     0.241 C  
HETATM    9  C   UNL     1      -8.288  17.071  66.478  1.00  0.00    -0.313 C  
HETATM   10  H   UNL     1     -12.421  18.344  64.748  1.00  0.00     0.000 HD 
HETATM   11  O   UNL     1     -11.842  18.905  65.251  1.00  0.00     2.085 OA 
HETATM   12  C   UNL     1     -10.812  16.500  65.750  1.00  0.00    -0.137 C  
HETATM   13  C   UNL     1      -6.874  16.480  66.625  1.00  0.00    -0.126 C  
HETATM   14  C   UNL     1     -10.658  18.148  65.538  1.00  0.00     0.032 C  
HETATM   15  C   UNL     1      -6.301  17.022  67.903  1.00  0.00    -0.148 C  
HETATM   16  O   UNL     1      -6.755  15.079  66.820  1.00  0.00    -0.181 OA 
HETATM   17  C   UNL     1      -9.711  19.065  66.361  1.00  0.00    -0.405 C  
HETATM   18  C   UNL     1      -5.999  18.494  67.782  1.00  0.00    -0.184 C  
HETATM   19  C   UNL     1      -8.240  18.608  66.364  1.00  0.00    -0.295 C  
HETATM   20  H   UNL     1      -5.883  14.714  66.910  1.00  0.00     0.000 HD 
HETATM   21  C   UNL     1      -6.830  20.706  66.892  1.00  0.00    -0.353 C  
HETATM   22  C   UNL     1      -5.127  18.837  69.003  1.00  0.00    -0.191 C  
HETATM   23  C   UNL     1      -7.278  19.350  67.506  1.00  0.00    -0.247 C  
HETATM   24  C   UNL     1      -5.805  19.298  70.280  1.00  0.00    -0.228 C  
HETATM   25  C   UNL     1      -7.969  19.673  68.879  1.00  0.00    -0.285 C  
HETATM   26  H   UNL     1      -6.482  18.506  71.976  1.00  0.00     0.000 HD 
HETATM   27  O   UNL     1      -6.058  18.217  71.177  1.00  0.00     0.495 OA 
HETATM   28  C   UNL     1      -7.051  20.133  70.044  1.00  0.00     0.132 C  
ENDROOT
BRANCH   6  29
HETATM   29  C   UNL     1     -12.184  13.308  69.696  1.00  0.00    -0.258 C  
BRANCH  29  30
HETATM   30  C   UNL     1     -12.260  12.265  70.774  1.00  0.00    -0.260 C  
HETATM   31  O   UNL     1     -12.572  12.548  71.924  1.00  0.00    -0.107 OA 
HETATM   32  N   UNL     1     -11.920  10.986  70.370  1.00  0.00    -0.340 N  
HETATM   33  H   UNL     1     -11.711  10.809  69.387  1.00  0.00     0.000 HD 
BRANCH  32  34
HETATM   34  C   UNL     1     -11.858   9.897  71.317  1.00  0.00    -0.395 C  
BRANCH  34  35
HETATM   35  C   UNL     1     -11.600   8.562  70.618  1.00  0.00    -0.194 C  
HETATM   36  S   UNL     1     -10.059   8.621  69.739  1.00  0.00    -0.205 S  
HETATM   37  O   UNL     1     -10.127   7.158  69.056  1.00  0.00    -0.173 OA 
HETATM   38  O   UNL     1      -8.949   8.631  70.662  1.00  0.00    -0.146 OA 
HETATM   39  O   UNL     1     -10.170   9.569  68.651  1.00  0.00    -0.181 OA 
ENDBRANCH  34  35
ENDBRANCH  32  34
ENDBRANCH  29  30
ENDBRANCH   6  29
TORSDOF 4
ENDMDL
