MODEL       21
REMARK 921   NORMALIZED FREE ENERGY PREDICTED BY IDOCK:   -5.24 KCAL/MOL
REMARK 922        TOTAL FREE ENERGY PREDICTED BY IDOCK:  -10.97 KCAL/MOL
REMARK 923 INTER-LIGAND FREE ENERGY PREDICTED BY IDOCK:   -9.68 KCAL/MOL
REMARK 924 INTRA-LIGAND FREE ENERGY PREDICTED BY IDOCK:   -1.28 KCAL/MOL
REMARK 927      BINDING AFFINITY PREDICTED BY RF-SCORE:    0.00 PKD
ROOT
HETATM    1  C   UNL     1      -9.987   7.264  69.427  1.00  0.00    -0.170 C  
HETATM    2  C   UNL     1     -11.106   6.281  69.723  1.00  0.00    -0.473 C  
ENDROOT
BRANCH   2   3
HETATM    3  C   UNL     1     -11.384   6.201  71.221  1.00  0.00    -0.335 C  
BRANCH   3   4
HETATM    4  C   UNL     1     -12.601   7.040  71.592  1.00  0.00    -0.419 C  
BRANCH   4   5
HETATM    5  C   UNL     1     -12.183   8.421  72.083  1.00  0.00    -0.434 C  
BRANCH   5   6
HETATM    6  C   UNL     1     -13.372   9.373  72.056  1.00  0.00    -0.525 C  
BRANCH   6   7
HETATM    7  C   UNL     1     -12.993  10.686  71.390  1.00  0.00    -0.545 C  
BRANCH   7   8
HETATM    8  C   UNL     1     -11.724  10.522  70.560  1.00  0.00    -0.443 C  
BRANCH   8   9
HETATM    9  C   UNL     1     -11.772  11.466  69.370  1.00  0.00    -0.406 C  
BRANCH   9  10
HETATM   10  C   UNL     1     -11.751  12.928  69.802  1.00  0.00    -0.351 C  
BRANCH  10  11
HETATM   11  C   UNL     1     -11.633  13.879  68.598  1.00  0.00    -0.363 C  
BRANCH  11  12
HETATM   12  C   UNL     1     -11.755  13.111  67.281  1.00  0.00    -0.374 C  
BRANCH  12  13
HETATM   13  N   UNL     1     -10.583  13.319  66.308  1.00  0.00    -0.286 N  
HETATM   14  C   UNL     1      -9.275  13.563  67.051  1.00  0.00    -0.246 C  
HETATM   15  C   UNL     1     -10.421  12.092  65.406  1.00  0.00    -0.270 C  
BRANCH  13  16
HETATM   16  C   UNL     1     -10.901  14.538  65.367  1.00  0.00    -0.354 C  
BRANCH  16  17
HETATM   17  C   UNL     1      -9.879  15.674  65.501  1.00  0.00    -0.291 C  
BRANCH  17  18
HETATM   18  O   UNL     1     -10.449  16.934  65.157  1.00  0.00    -0.663 OA 
BRANCH  18  19
HETATM   19  C   UNL     1     -10.340  17.862  66.169  1.00  0.00    -0.352 A  
HETATM   20  C   UNL     1     -10.239  17.344  67.459  1.00  0.00    -0.332 A  
HETATM   21  C   UNL     1     -10.172  18.206  68.557  1.00  0.00    -0.399 A  
HETATM   22  C   UNL     1     -10.191  19.589  68.368  1.00  0.00    -0.536 A  
HETATM   23  C   UNL     1     -10.256  20.110  67.078  1.00  0.00    -0.558 A  
HETATM   24  C   UNL     1     -10.321  19.250  65.984  1.00  0.00    -0.556 A  
ENDBRANCH  18  19
ENDBRANCH  17  18
ENDBRANCH  16  17
ENDBRANCH  13  16
ENDBRANCH  12  13
ENDBRANCH  11  12
ENDBRANCH  10  11
ENDBRANCH   9  10
ENDBRANCH   8   9
ENDBRANCH   7   8
ENDBRANCH   6   7
ENDBRANCH   5   6
ENDBRANCH   4   5
ENDBRANCH   3   4
ENDBRANCH   2   3
TORSDOF 15
ENDMDL
