MODEL       54
REMARK 921   NORMALIZED FREE ENERGY PREDICTED BY IDOCK:   -5.64 KCAL/MOL
REMARK 922        TOTAL FREE ENERGY PREDICTED BY IDOCK:  -16.92 KCAL/MOL
REMARK 923 INTER-LIGAND FREE ENERGY PREDICTED BY IDOCK:  -12.24 KCAL/MOL
REMARK 924 INTRA-LIGAND FREE ENERGY PREDICTED BY IDOCK:   -4.67 KCAL/MOL
REMARK 927      BINDING AFFINITY PREDICTED BY RF-SCORE:    0.00 PKD
ROOT
HETATM    1  O   UNL     1     -12.404  12.537  70.719  1.00  0.00    -0.377 OA 
HETATM    2  C   UNL     1     -12.534  11.430  70.215  1.00  0.00    -0.232 C  
ENDROOT
BRANCH   2   3
HETATM    3  C   UNL     1     -13.131  10.239  70.925  1.00  0.00    -0.423 C  
BRANCH   3   4
HETATM    4  C   UNL     1     -12.079   9.435  71.691  1.00  0.00    -0.462 C  
BRANCH   4   5
HETATM    5  C   UNL     1     -12.527   7.993  71.953  1.00  0.00    -0.364 C  
BRANCH   5   6
HETATM    6  C   UNL     1     -11.430   7.161  72.567  1.00  0.00    -0.297 A  
HETATM    7  C   UNL     1     -10.305   7.780  73.133  1.00  0.00    -0.403 A  
HETATM    8  C   UNL     1      -9.374   5.623  73.696  1.00  0.00    -0.137 A  
HETATM    9  C   UNL     1      -9.285   7.013  73.696  1.00  0.00    -0.211 A  
HETATM   10  C   UNL     1     -11.508   5.763  72.569  1.00  0.00    -0.349 A  
HETATM   11  C   UNL     1     -10.486   4.998  73.132  1.00  0.00    -0.255 A  
ENDBRANCH   5   6
ENDBRANCH   4   5
ENDBRANCH   3   4
ENDBRANCH   2   3
BRANCH   2  12
HETATM   12  O   UNL     1     -12.163  11.094  68.949  1.00  0.00    -0.522 OA 
BRANCH  12  13
HETATM   13  C   UNL     1     -11.677  12.163  68.115  1.00  0.00    -0.341 C  
BRANCH  13  14
HETATM   14  C   UNL     1     -11.253  11.610  66.751  1.00  0.00    -0.308 C  
BRANCH  14  15
HETATM   15  O   UNL     1      -9.836  11.822  66.580  1.00  0.00    -0.196 OA 
BRANCH  15  16
HETATM   16  C   UNL     1      -9.050  10.717  66.685  1.00  0.00    -0.159 C  
HETATM   17  O   UNL     1      -9.232   9.656  66.108  1.00  0.00    -0.154 OA 
BRANCH  16  18
HETATM   18  C   UNL     1      -7.922  10.980  67.651  1.00  0.00    -0.115 C  
BRANCH  18  19
HETATM   19  C   UNL     1      -7.773   9.854  68.668  1.00  0.00    -0.081 C  
BRANCH  19  20
HETATM   20  C   UNL     1      -9.037   9.635  69.508  1.00  0.00    -0.209 C  
BRANCH  20  21
HETATM   21  C   UNL     1      -9.390   8.169  69.522  1.00  0.00    -0.155 A  
HETATM   22  C   UNL     1      -9.937   5.430  69.335  1.00  0.00    -0.280 A  
HETATM   23  C   UNL     1     -10.587   7.723  68.947  1.00  0.00    -0.168 A  
HETATM   24  C   UNL     1      -8.479   7.228  70.021  1.00  0.00    -0.139 A  
HETATM   25  C   UNL     1     -10.858   6.357  68.856  1.00  0.00    -0.382 A  
HETATM   26  C   UNL     1      -8.752   5.864  69.927  1.00  0.00    -0.129 A  
ENDBRANCH  20  21
ENDBRANCH  19  20
ENDBRANCH  18  19
ENDBRANCH  16  18
ENDBRANCH  15  16
ENDBRANCH  14  15
BRANCH  14  27
HETATM   27  C   UNL     1     -11.974  12.338  65.611  1.00  0.00    -0.306 C  
BRANCH  27  28
HETATM   28  O   UNL     1     -11.115  13.293  64.972  1.00  0.00    -0.294 OA 
BRANCH  28  29
HETATM   29  C   UNL     1     -11.765  14.306  64.332  1.00  0.00    -0.389 C  
HETATM   30  O   UNL     1     -12.650  14.155  63.502  1.00  0.00    -0.834 OA 
BRANCH  29  31
HETATM   31  C   UNL     1     -11.239  15.639  64.802  1.00  0.00    -0.391 C  
BRANCH  31  32
HETATM   32  C   UNL     1     -10.492  15.518  66.125  1.00  0.00    -0.323 C  
BRANCH  32  33
HETATM   33  C   UNL     1      -9.132  16.229  66.110  1.00  0.00    -0.377 C  
BRANCH  33  34
HETATM   34  C   UNL     1      -9.283  17.653  66.578  1.00  0.00    -0.286 A  
HETATM   35  C   UNL     1      -9.665  20.333  67.297  1.00  0.00    -0.590 A  
HETATM   36  C   UNL     1     -10.408  18.034  67.323  1.00  0.00    -0.387 A  
HETATM   37  C   UNL     1     -10.596  19.369  67.681  1.00  0.00    -0.575 A  
HETATM   38  C   UNL     1      -8.538  19.960  66.566  1.00  0.00    -0.390 A  
HETATM   39  C   UNL     1      -8.347  18.626  66.209  1.00  0.00    -0.249 A  
ENDBRANCH  33  34
ENDBRANCH  32  33
ENDBRANCH  31  32
ENDBRANCH  29  31
ENDBRANCH  28  29
ENDBRANCH  27  28
ENDBRANCH  14  27
ENDBRANCH  13  14
ENDBRANCH  12  13
ENDBRANCH   2  12
TORSDOF 20
ENDMDL
