MODEL       18
REMARK 921   NORMALIZED FREE ENERGY PREDICTED BY IDOCK:   -6.28 KCAL/MOL
REMARK 922        TOTAL FREE ENERGY PREDICTED BY IDOCK:  -11.52 KCAL/MOL
REMARK 923 INTER-LIGAND FREE ENERGY PREDICTED BY IDOCK:  -10.24 KCAL/MOL
REMARK 924 INTRA-LIGAND FREE ENERGY PREDICTED BY IDOCK:   -1.28 KCAL/MOL
REMARK 927      BINDING AFFINITY PREDICTED BY RF-SCORE:    0.00 PKD
ROOT
HETATM    1  C   UNL     1     -10.240  14.076  66.834  1.00  0.00    -0.260 C  
HETATM    2  S   UNL     1      -9.688  12.951  68.136  1.00  0.00    -0.224 SA 
HETATM    3  C   UNL     1      -8.644  11.979  67.029  1.00  0.00    -0.185 C  
HETATM    4  C   UNL     1      -9.300  11.570  65.716  1.00  0.00    -0.238 C  
HETATM    5  C   UNL     1     -12.093  13.954  65.875  1.00  0.00    -0.433 C  
HETATM    6  CA  UNL     1     -10.394  12.195  65.186  1.00  0.00    -0.279 C  
HETATM    7  C   UNL     1     -11.020  11.676  63.905  1.00  0.00    -0.407 C  
HETATM    8  CA  UNL     1     -11.600  14.801  67.091  1.00  0.00    -0.359 C  
HETATM    9  N   UNL     1     -10.920  13.293  65.817  1.00  0.00    -0.270 N  
HETATM   10  O   UNL     1     -12.297  12.010  63.655  1.00  0.00    -0.519 OA 
HETATM   11  OXT UNL     1     -10.409  10.989  63.099  1.00  0.00    -0.325 OA 
HETATM   12  O   UNL     1     -13.125  13.763  65.267  1.00  0.00    -0.756 OA 
ENDROOT
BRANCH   4  13
HETATM   13  C   UNL     1      -8.665  10.287  65.167  1.00  0.00    -0.175 C  
BRANCH  13  14
HETATM   14  S   UNL     1      -7.777   9.327  66.447  1.00  0.00    -0.093 SA 
BRANCH  14  15
HETATM   15  C   UNL     1      -9.039   8.454  67.230  1.00  0.00    -0.137 A  
HETATM   16  N   UNL     1     -10.074   7.900  66.640  1.00  0.00    -0.261 NA 
HETATM   17  N   UNL     1     -10.862   7.396  67.641  1.00  0.00    -0.189 NA 
HETATM   18  N   UNL     1      -9.150   8.250  68.581  1.00  0.00    -0.140 NA 
HETATM   19  N   UNL     1     -10.316   7.615  68.828  1.00  0.00    -0.204 NA 
BRANCH  18  20
HETATM   20  C   UNL     1      -8.265   8.535  69.697  1.00  0.00    -0.115 C  
BRANCH  20  21
HETATM   21  C   UNL     1      -9.014   9.314  70.793  1.00  0.00    -0.232 C  
BRANCH  21  22
HETATM   22  N   UNL     1      -8.859   8.848  72.190  1.00  0.00    -0.380 NA 
HETATM   23  C   UNL     1      -7.470   8.391  72.387  1.00  0.00    -0.088 C  
HETATM   24  C   UNL     1      -9.756   7.738  72.536  1.00  0.00    -0.204 C  
ENDBRANCH  21  22
ENDBRANCH  20  21
ENDBRANCH  18  20
ENDBRANCH  14  15
ENDBRANCH  13  14
ENDBRANCH   4  13
BRANCH   8  25
HETATM   25  N   UNL     1     -12.284  14.511  68.388  1.00  0.00    -0.608 N  
HETATM   26  C   UNL     1     -11.831  15.023  69.584  1.00  0.00    -0.324 C  
HETATM   27  H   UNL     1     -13.112  13.916  68.387  1.00  0.00     0.000 HD 
HETATM   28  O   UNL     1     -10.916  15.844  69.649  1.00  0.00    -0.265 OA 
BRANCH  26  29
HETATM   29  C   UNL     1     -12.533  14.487  70.815  1.00  0.00    -0.420 C  
BRANCH  29  30
HETATM   30  C   UNL     1     -12.592  13.001  70.795  1.00  0.00    -0.241 A  
HETATM   31  N   UNL     1     -11.920  10.138  68.885  1.00  0.00    -0.529 NA 
HETATM   32  C   UNL     1     -13.023  12.177  71.817  1.00  0.00    -0.332 A  
HETATM   33  S   UNL     1     -12.887  10.538  71.348  1.00  0.00    -0.476 SA 
HETATM   34  H2  UNL     1     -12.022   9.142  69.082  1.00  0.00     0.000 HD 
HETATM   35  H1  UNL     1     -11.554  10.432  67.980  1.00  0.00     0.000 HD 
HETATM   36  N   UNL     1     -12.154  12.331  69.657  1.00  0.00    -0.253 NA 
HETATM   37  C   UNL     1     -12.271  11.034  69.826  1.00  0.00    -0.318 A  
ENDBRANCH  29  30
ENDBRANCH  26  29
ENDBRANCH   8  25
TORSDOF 9
ENDMDL
