MODEL        7
REMARK 921   NORMALIZED FREE ENERGY PREDICTED BY IDOCK:   -6.21 KCAL/MOL
REMARK 922        TOTAL FREE ENERGY PREDICTED BY IDOCK:  -17.36 KCAL/MOL
REMARK 923 INTER-LIGAND FREE ENERGY PREDICTED BY IDOCK:  -14.16 KCAL/MOL
REMARK 924 INTRA-LIGAND FREE ENERGY PREDICTED BY IDOCK:   -3.20 KCAL/MOL
REMARK 927      BINDING AFFINITY PREDICTED BY RF-SCORE:    0.00 PKD
ROOT
HETATM    1  C   UNL     1     -12.523  11.897  63.307  1.00  0.00    -0.506 C  
HETATM    2  C   UNL     1     -11.175  12.261  63.917  1.00  0.00    -0.488 C  
HETATM    3  C   UNL     1     -11.059  12.003  65.440  1.00  0.00    -0.320 C  
HETATM    4  C   UNL     1     -10.056  11.596  63.105  1.00  0.00    -0.409 C  
ENDROOT
BRANCH   3   5
HETATM    5  N   UNL     1     -11.180  10.605  65.886  1.00  0.00     0.287 N  
HETATM    6  H   UNL     1     -11.633   9.935  65.265  1.00  0.00     0.000 HD 
BRANCH   5   7
HETATM    7  C   UNL     1     -10.715  10.162  67.094  1.00  0.00    -0.221 C  
HETATM    8  O   UNL     1     -11.218  10.527  68.153  1.00  0.00    -0.282 OA 
BRANCH   7   9
HETATM    9  N   UNL     1      -9.602   9.345  67.068  1.00  0.00    -0.151 N  
HETATM   10  C   UNL     1      -8.944   8.787  65.897  1.00  0.00    -0.195 C  
BRANCH   9  11
HETATM   11  C   UNL     1      -8.968   9.031  68.355  1.00  0.00    -0.133 C  
BRANCH  11  12
HETATM   12  C   UNL     1      -9.602   7.831  69.007  1.00  0.00    -0.155 A  
HETATM   13  C   UNL     1      -9.350   6.507  68.694  1.00  0.00    -0.125 A  
HETATM   14  N   UNL     1     -10.481   8.002  70.081  1.00  0.00    -0.220 NA 
HETATM   15  S   UNL     1     -10.204   5.466  69.745  1.00  0.00    -0.298 SA 
HETATM   16  C   UNL     1     -13.152   7.167  71.500  1.00  0.00    -0.427 C  
HETATM   17  C   UNL     1     -10.850   6.834  70.568  1.00  0.00    -0.258 A  
HETATM   18  C   UNL     1     -11.745   6.638  71.771  1.00  0.00    -0.363 C  
HETATM   19  C   UNL     1     -11.146   7.315  73.005  1.00  0.00    -0.361 C  
ENDBRANCH  11  12
ENDBRANCH   9  11
ENDBRANCH   7   9
ENDBRANCH   5   7
ENDBRANCH   3   5
BRANCH   3  20
HETATM   20  C   UNL     1     -11.886  13.028  66.277  1.00  0.00    -0.408 C  
HETATM   21  O   UNL     1     -12.977  13.472  65.925  1.00  0.00    -0.302 OA 
HETATM   22  N   UNL     1     -11.266  13.450  67.438  1.00  0.00    -0.278 N  
HETATM   23  H   UNL     1     -10.308  13.153  67.620  1.00  0.00     0.000 HD 
BRANCH  22  24
HETATM   24  C   UNL     1     -11.937  14.305  68.413  1.00  0.00    -0.309 C  
BRANCH  24  25
HETATM   25  C   UNL     1     -11.564  15.797  68.294  1.00  0.00    -0.302 C  
BRANCH  25  26
HETATM   26  C   UNL     1     -10.244  16.183  67.611  1.00  0.00    -0.265 C  
HETATM   27  H   UNL     1      -9.482  15.963  65.830  1.00  0.00     0.000 HD 
HETATM   28  O   UNL     1     -10.299  15.724  66.252  1.00  0.00    -0.285 OA 
BRANCH  26  29
HETATM   29  C   UNL     1      -8.934  15.672  68.283  1.00  0.00    -0.181 C  
BRANCH  29  30
HETATM   30  N   UNL     1      -8.184  14.737  67.444  1.00  0.00    -0.182 N  
HETATM   31  C   UNL     1      -8.039  13.425  67.805  1.00  0.00    -0.173 C  
HETATM   32  H   UNL     1      -7.762  15.069  66.577  1.00  0.00     0.000 HD 
HETATM   33  O   UNL     1      -8.822  12.820  68.511  1.00  0.00    -0.145 OA 
BRANCH  31  34
HETATM   34  O   UNL     1      -6.887  12.928  67.308  1.00  0.00    -0.150 OA 
BRANCH  34  35
HETATM   35  C   UNL     1      -5.672  13.511  67.822  1.00  0.00    -0.099 C  
BRANCH  35  36
HETATM   36  C   UNL     1      -5.581  13.369  69.306  1.00  0.00    -0.079 A  
HETATM   37  N   UNL     1      -5.432  12.361  71.416  1.00  0.00    -0.385 NA 
HETATM   38  C   UNL     1      -5.549  12.204  70.050  1.00  0.00    -0.124 A  
HETATM   39  C   UNL     1      -5.385  13.644  71.698  1.00  0.00    -0.205 A  
HETATM   40  S   UNL     1      -5.417  14.713  70.357  1.00  0.00    -0.136 SA 
ENDBRANCH  35  36
ENDBRANCH  34  35
ENDBRANCH  31  34
ENDBRANCH  29  30
BRANCH  29  41
HETATM   41  C   UNL     1      -8.022  16.839  68.790  1.00  0.00    -0.250 C  
BRANCH  41  42
HETATM   42  C   UNL     1      -7.813  18.012  67.854  1.00  0.00    -0.235 A  
HETATM   43  C   UNL     1      -7.944  20.401  67.390  1.00  0.00    -0.361 A  
HETATM   44  C   UNL     1      -8.267  19.298  68.173  1.00  0.00    -0.354 A  
HETATM   45  C   UNL     1      -7.120  17.843  66.653  1.00  0.00    -0.254 A  
HETATM   46  C   UNL     1      -6.813  18.948  65.846  1.00  0.00    -0.304 A  
HETATM   47  C   UNL     1      -7.211  20.229  66.226  1.00  0.00    -0.302 A  
ENDBRANCH  41  42
ENDBRANCH  29  41
ENDBRANCH  26  29
ENDBRANCH  25  26
ENDBRANCH  24  25
BRANCH  24  48
HETATM   48  C   UNL     1     -11.741  13.720  69.827  1.00  0.00    -0.367 C  
BRANCH  48  49
HETATM   49  C   UNL     1     -12.352  14.518  70.955  1.00  0.00    -0.417 A  
HETATM   50  C   UNL     1     -12.084  15.936  72.910  1.00  0.00    -0.612 A  
HETATM   51  C   UNL     1     -11.532  15.218  71.850  1.00  0.00    -0.504 A  
HETATM   52  C   UNL     1     -13.464  15.956  73.095  1.00  0.00    -0.650 A  
HETATM   53  C   UNL     1     -14.293  15.259  72.216  1.00  0.00    -0.586 A  
HETATM   54  C   UNL     1     -13.741  14.536  71.157  1.00  0.00    -0.333 A  
ENDBRANCH  48  49
ENDBRANCH  24  48
ENDBRANCH  22  24
ENDBRANCH   3  20
TORSDOF 18
ENDMDL
