MODEL      167
REMARK 921   NORMALIZED FREE ENERGY PREDICTED BY IDOCK:   -4.40 KCAL/MOL
REMARK 922        TOTAL FREE ENERGY PREDICTED BY IDOCK:   -8.11 KCAL/MOL
REMARK 923 INTER-LIGAND FREE ENERGY PREDICTED BY IDOCK:   -7.41 KCAL/MOL
REMARK 924 INTRA-LIGAND FREE ENERGY PREDICTED BY IDOCK:   -0.70 KCAL/MOL
REMARK 927      BINDING AFFINITY PREDICTED BY RF-SCORE:    0.00 PKD
ROOT
HETATM    1  O   UNL     1      -9.627  11.294  66.643  1.00  0.00    -0.189 OA 
HETATM    2  C   UNL     1      -9.931  11.558  68.020  1.00  0.00    -0.189 C  
HETATM    3  H   UNL     1      -8.939  10.640  66.601  1.00  0.00     0.000 HD 
ENDROOT
BRANCH   2   4
HETATM    4  C   UNL     1     -11.045  12.616  68.088  1.00  0.00    -0.249 C  
BRANCH   4   5
HETATM    5  N   UNL     1     -11.940  12.515  66.922  1.00  0.00    -0.543 NA 
HETATM    6  H   UNL     1     -12.885  12.241  67.190  1.00  0.00     0.000 HD 
BRANCH   5   7
HETATM    7  C   UNL     1     -11.924  13.772  66.166  1.00  0.00    -0.418 C  
BRANCH   7   8
HETATM    8  C   UNL     1     -11.389  14.925  67.022  1.00  0.00    -0.342 C  
BRANCH   8   9
HETATM    9  N   UNL     1     -10.780  15.938  66.183  1.00  0.00    -0.301 N  
HETATM   10  H   UNL     1     -11.346  16.369  65.452  1.00  0.00     0.000 HD 
BRANCH   9  11
HETATM   11  C   UNL     1      -9.483  16.338  66.329  1.00  0.00    -0.316 C  
HETATM   12  O   UNL     1      -8.546  15.603  66.023  1.00  0.00    -0.242 OA 
BRANCH  11  13
HETATM   13  N   UNL     1      -9.304  17.610  66.831  1.00  0.00    -0.256 N  
HETATM   14  C   UNL     1      -9.862  18.750  66.101  1.00  0.00    -0.299 C  
HETATM   15  C   UNL     1     -10.897  19.484  66.962  1.00  0.00    -0.427 C  
HETATM   16  O   UNL     1     -10.337  19.870  68.229  1.00  0.00    -0.441 OA 
HETATM   17  C   UNL     1      -9.871  18.719  68.949  1.00  0.00    -0.365 C  
HETATM   18  C   UNL     1      -8.789  17.976  68.155  1.00  0.00    -0.273 C  
ENDBRANCH  11  13
ENDBRANCH   9  11
ENDBRANCH   8   9
ENDBRANCH   7   8
ENDBRANCH   5   7
ENDBRANCH   4   5
ENDBRANCH   2   4
BRANCH   2  19
HETATM   19  C   UNL     1     -10.394  10.271  68.717  1.00  0.00    -0.195 C  
BRANCH  19  20
HETATM   20  O   UNL     1     -10.811  10.575  70.055  1.00  0.00    -0.279 OA 
BRANCH  20  21
HETATM   21  C   UNL     1     -11.714   9.694  70.586  1.00  0.00    -0.280 A  
HETATM   22  C   UNL     1     -11.481   8.345  70.311  1.00  0.00    -0.063 A  
HETATM   23  H   UNL     1     -15.030   7.077  72.642  1.00  0.00     0.000 HD 
HETATM   24  O   UNL     1     -14.291   6.820  72.103  1.00  0.00    -0.228 OA 
HETATM   25  C   UNL     1     -12.339   7.362  70.810  1.00  0.00    -0.167 A  
HETATM   26  C   UNL     1     -13.421   7.738  71.600  1.00  0.00    -0.349 A  
HETATM   27  C   UNL     1     -12.791  10.056  71.399  1.00  0.00    -0.519 A  
HETATM   28  C   UNL     1     -13.646   9.075  71.904  1.00  0.00    -0.486 A  
ENDBRANCH  20  21
ENDBRANCH  19  20
ENDBRANCH   2  19
TORSDOF 10
ENDMDL
