MODEL       16
REMARK 921   NORMALIZED FREE ENERGY PREDICTED BY IDOCK:   -5.00 KCAL/MOL
REMARK 922        TOTAL FREE ENERGY PREDICTED BY IDOCK:   -6.95 KCAL/MOL
REMARK 923 INTER-LIGAND FREE ENERGY PREDICTED BY IDOCK:   -6.65 KCAL/MOL
REMARK 924 INTRA-LIGAND FREE ENERGY PREDICTED BY IDOCK:   -0.30 KCAL/MOL
REMARK 927      BINDING AFFINITY PREDICTED BY RF-SCORE:    0.00 PKD
ROOT
HETATM    1  S   UNL     1     -10.303  19.841  66.582  1.00  0.00    -0.514 S  
HETATM    2  C   UNL     1      -9.170  18.670  67.010  1.00  0.00    -0.291 C  
ENDROOT
BRANCH   2   3
HETATM    3  S   UNL     1      -9.641  16.966  67.223  1.00  0.00    -0.251 SA 
BRANCH   3   4
HETATM    4  S   UNL     1     -10.611  17.025  69.058  1.00  0.00    -0.271 SA 
BRANCH   4   5
HETATM    5  C   UNL     1     -11.500  15.485  69.116  1.00  0.00    -0.348 C  
HETATM    6  S   UNL     1     -11.584  14.562  67.702  1.00  0.00    -0.388 S  
BRANCH   5   7
HETATM    7  N   UNL     1     -11.970  15.071  70.384  1.00  0.00    -0.299 N  
HETATM    8  C   UNL     1     -13.043  15.841  72.502  1.00  0.00    -0.558 C  
HETATM    9  C   UNL     1     -11.826  15.925  71.580  1.00  0.00    -0.468 C  
HETATM   10  C   UNL     1     -13.370  14.401  72.871  1.00  0.00    -0.575 C  
HETATM   11  C   UNL     1     -13.521  13.554  71.613  1.00  0.00    -0.385 C  
HETATM   12  C   UNL     1     -12.295  13.670  70.708  1.00  0.00    -0.371 C  
ENDBRANCH   5   7
ENDBRANCH   4   5
ENDBRANCH   3   4
ENDBRANCH   2   3
BRANCH   2  13
HETATM   13  N   UNL     1      -7.815  18.937  67.229  1.00  0.00    -0.234 N  
HETATM   14  C   UNL     1      -6.686  19.715  69.302  1.00  0.00    -0.391 C  
HETATM   15  C   UNL     1      -7.051  19.866  66.391  1.00  0.00    -0.242 C  
HETATM   16  C   UNL     1      -7.125  18.520  68.460  1.00  0.00    -0.277 C  
HETATM   17  C   UNL     1      -6.626  21.096  67.203  1.00  0.00    -0.424 C  
HETATM   18  C   UNL     1      -5.868  20.699  68.469  1.00  0.00    -0.364 C  
ENDBRANCH   2  13
TORSDOF 5
ENDMDL
