MODEL       52
REMARK 921   NORMALIZED FREE ENERGY PREDICTED BY IDOCK:   -6.51 KCAL/MOL
REMARK 922        TOTAL FREE ENERGY PREDICTED BY IDOCK:  -11.79 KCAL/MOL
REMARK 923 INTER-LIGAND FREE ENERGY PREDICTED BY IDOCK:  -10.15 KCAL/MOL
REMARK 924 INTRA-LIGAND FREE ENERGY PREDICTED BY IDOCK:   -1.65 KCAL/MOL
REMARK 927      BINDING AFFINITY PREDICTED BY RF-SCORE:    0.00 PKD
ROOT
HETATM    1  C   UNL     1     -10.548   4.983  68.613  1.00  0.00     0.159 C  
HETATM    2  O   UNL     1     -10.941   5.506  69.885  1.00  0.00    -0.309 OA 
ENDROOT
BRANCH   2   3
HETATM    3  C   UNL     1     -11.028   6.876  69.935  1.00  0.00    -0.277 A  
HETATM    4  C   UNL     1     -10.383   7.647  68.951  1.00  0.00    -0.222 A  
HETATM    5  C   UNL     1     -10.337   9.035  68.999  1.00  0.00    -0.219 A  
HETATM    6  C   UNL     1     -11.004   9.642  70.066  1.00  0.00    -0.297 A  
HETATM    7  C   UNL     1     -11.717   8.913  71.032  1.00  0.00    -0.289 A  
HETATM    8  C   UNL     1     -11.766   7.504  70.957  1.00  0.00    -0.292 A  
BRANCH   5   9
HETATM    9  N   UNL     1      -9.651   9.818  68.065  1.00  0.00    -0.142 NA 
HETATM   10  H   UNL     1      -8.683  10.001  68.328  1.00  0.00     0.000 HD 
BRANCH   9  11
HETATM   11  C   UNL     1     -10.010  10.402  66.850  1.00  0.00    -0.206 A  
HETATM   12  N   UNL     1      -9.615   9.708  65.773  1.00  0.00    -0.244 NA 
HETATM   13  N   UNL     1     -10.695  11.562  66.767  1.00  0.00    -0.257 NA 
HETATM   14  C   UNL     1     -11.000  12.064  65.542  1.00  0.00    -0.298 A  
HETATM   15  F   UNL     1     -11.028  11.764  63.169  1.00  0.00    -0.392 F  
HETATM   16  C   UNL     1      -9.960  10.207  64.567  1.00  0.00    -0.205 A  
HETATM   17  C   UNL     1     -10.683  11.363  64.399  1.00  0.00    -0.342 A  
BRANCH  14  18
HETATM   18  N   UNL     1     -11.715  13.274  65.548  1.00  0.00    -0.331 NA 
HETATM   19  H   UNL     1     -12.722  13.162  65.433  1.00  0.00     0.000 HD 
BRANCH  18  20
HETATM   20  C   UNL     1     -11.295  14.617  65.683  1.00  0.00    -0.338 A  
HETATM   21  N   UNL     1     -10.753  15.098  66.822  1.00  0.00    -0.307 NA 
HETATM   22  C   UNL     1     -10.296  16.387  66.859  1.00  0.00    -0.300 A  
HETATM   23  C   UNL     1     -10.453  17.261  65.785  1.00  0.00    -0.229 A  
HETATM   24  O   UNL     1     -10.114  18.589  65.814  1.00  0.00    -0.537 OA 
HETATM   25  C   UNL     1     -11.014  16.772  64.618  1.00  0.00     0.095 A  
HETATM   26  C   UNL     1      -9.987  19.112  67.134  1.00  0.00    -0.356 C  
HETATM   27  C   UNL     1     -11.440  15.445  64.569  1.00  0.00    -0.314 A  
HETATM   28  C   UNL     1      -9.183  18.196  68.067  1.00  0.00    -0.279 C  
HETATM   29  C   UNL     1      -9.319  20.489  67.048  1.00  0.00    -0.482 C  
HETATM   30  C   UNL     1     -11.378  19.285  67.797  1.00  0.00     0.409 C  
HETATM   31  N   UNL     1      -9.593  16.875  67.994  1.00  0.00    -0.242 N  
HETATM   32  O   UNL     1      -8.399  18.612  68.919  1.00  0.00    -0.285 OA 
BRANCH  31  33
HETATM   33  C   UNL     1      -9.440  16.101  69.181  1.00  0.00    -0.251 C  
BRANCH  33  34
HETATM   34  O   UNL     1     -10.470  16.400  70.068  1.00  0.00    -0.244 OA 
HETATM   35  P   UNL     1     -11.403  14.977  70.386  1.00  0.00    -0.242 P  
HETATM   36  O   UNL     1     -12.662  16.010  70.254  1.00  0.00    -0.287 OA 
HETATM   37  O   UNL     1     -11.040  15.284  71.948  1.00  0.00    -0.371 OA 
HETATM   38  O   UNL     1     -12.237  13.704  70.670  1.00  0.00    -0.341 OA 
ENDBRANCH  33  34
ENDBRANCH  31  33
ENDBRANCH  18  20
ENDBRANCH  14  18
ENDBRANCH   9  11
ENDBRANCH   5   9
BRANCH   7  39
HETATM   39  O   UNL     1     -12.246   9.738  71.995  1.00  0.00    -0.343 OA 
HETATM   40  C   UNL     1     -13.305  10.624  71.673  1.00  0.00    -0.307 C  
ENDBRANCH   7  39
BRANCH   8  41
HETATM   41  O   UNL     1     -12.565   6.886  71.876  1.00  0.00    -0.339 OA 
HETATM   42  C   UNL     1     -13.981   6.931  71.834  1.00  0.00    -0.094 C  
ENDBRANCH   8  41
ENDBRANCH   2   3
TORSDOF 9
ENDMDL
