MODEL       31
REMARK 921   NORMALIZED FREE ENERGY PREDICTED BY IDOCK:    4.11 KCAL/MOL
REMARK 922        TOTAL FREE ENERGY PREDICTED BY IDOCK:    5.63 KCAL/MOL
REMARK 923 INTER-LIGAND FREE ENERGY PREDICTED BY IDOCK:   -1.68 KCAL/MOL
REMARK 924 INTRA-LIGAND FREE ENERGY PREDICTED BY IDOCK:    7.32 KCAL/MOL
REMARK 927      BINDING AFFINITY PREDICTED BY RF-SCORE:    0.00 PKD
ROOT
HETATM    1  C   UNL     1     -10.467   3.811  74.411  1.00  0.00    -0.262 C  
HETATM    2  C   UNL     1      -9.637   4.111  73.163  1.00  0.00    -0.147 C  
HETATM    3  C   UNL     1     -10.014   5.447  72.564  1.00  0.00    -0.168 A  
HETATM    4  C   UNL     1      -9.773   2.982  72.141  1.00  0.00    -0.231 C  
HETATM    5  N   UNL     1     -11.224   5.805  72.175  1.00  0.00    -0.276 NA 
HETATM    6  C   UNL     1     -11.210   7.109  71.667  1.00  0.00    -0.244 A  
HETATM    7  C   UNL     1      -9.965   7.709  71.686  1.00  0.00    -0.176 A  
HETATM    8  S   UNL     1      -8.797   6.648  72.346  1.00  0.00    -0.131 SA 
ENDROOT
BRANCH   6   9
HETATM    9  C   UNL     1     -12.465   7.712  71.086  1.00  0.00    -0.247 C  
BRANCH   9  10
HETATM   10  N   UNL     1     -13.179   8.564  72.044  1.00  0.00    -0.355 N  
HETATM   11  C   UNL     1     -14.304   7.961  72.750  1.00  0.00     0.376 C  
BRANCH  10  12
HETATM   12  C   UNL     1     -13.060   9.946  71.907  1.00  0.00    -0.459 C  
HETATM   13  O   UNL     1     -13.852  10.748  72.395  1.00  0.00     0.058 OA 
BRANCH  12  14
HETATM   14  N   UNL     1     -11.935  10.358  71.253  1.00  0.00    -0.354 N  
HETATM   15  H   UNL     1     -11.053  10.304  71.762  1.00  0.00     0.000 HD 
BRANCH  14  16
HETATM   16  C   UNL     1     -11.883  10.875  69.874  1.00  0.00    -0.349 C  
BRANCH  16  17
HETATM   17  C   UNL     1     -10.584  11.710  69.799  1.00  0.00     0.431 C  
HETATM   18  H   UNL     1      -9.578  13.248  68.947  1.00  0.00     0.000 HD 
HETATM   19  N   UNL     1     -10.384  12.636  68.818  1.00  0.00    -0.166 N  
HETATM   20  O   UNL     1      -9.711  11.589  70.667  1.00  0.00     3.118 OA 
BRANCH  19  21
HETATM   21  C   UNL     1     -11.167  12.871  67.608  1.00  0.00    -0.278 C  
BRANCH  21  22
HETATM   22  C   UNL     1     -11.378  11.577  66.800  1.00  0.00    -0.309 C  
BRANCH  22  23
HETATM   23  C   UNL     1     -10.104  10.891  66.373  1.00  0.00    -0.280 A  
HETATM   24  C   UNL     1      -7.698  10.961  66.061  1.00  0.00    -0.107 A  
HETATM   25  C   UNL     1      -8.939   9.002  65.390  1.00  0.00    -0.249 A  
HETATM   26  C   UNL     1     -10.125   9.608  65.807  1.00  0.00    -0.274 A  
HETATM   27  C   UNL     1      -8.880  11.563  66.488  1.00  0.00    -0.190 A  
HETATM   28  C   UNL     1      -7.728   9.677  65.509  1.00  0.00    -0.112 A  
ENDBRANCH  22  23
ENDBRANCH  21  22
BRANCH  21  29
HETATM   29  C   UNL     1     -12.494  13.571  67.954  1.00  0.00     0.284 C  
BRANCH  29  30
HETATM   30  C   UNL     1     -12.484  15.111  67.961  1.00  0.00     0.626 C  
BRANCH  30  31
HETATM   31  C   UNL     1     -11.091  15.704  67.646  1.00  0.00    -0.305 C  
BRANCH  31  32
HETATM   32  C   UNL     1     -11.035  17.197  68.053  1.00  0.00    -0.229 C  
BRANCH  32  33
HETATM   33  C   UNL     1      -9.866  17.930  67.434  1.00  0.00    -0.305 A  
HETATM   34  C   UNL     1      -8.555  17.462  67.603  1.00  0.00    -0.217 A  
HETATM   35  C   UNL     1      -7.474  18.172  67.079  1.00  0.00    -0.227 A  
HETATM   36  C   UNL     1     -10.071  19.105  66.696  1.00  0.00    -0.469 A  
HETATM   37  C   UNL     1      -8.992  19.820  66.182  1.00  0.00    -0.387 A  
HETATM   38  C   UNL     1      -7.693  19.358  66.380  1.00  0.00    -0.297 A  
ENDBRANCH  32  33
ENDBRANCH  31  32
BRANCH  31  39
HETATM   39  N   UNL     1     -10.739  15.529  66.239  1.00  0.00    -0.310 N  
HETATM   40  C   UNL     1      -9.616  14.855  65.851  1.00  0.00    -0.308 C  
HETATM   41  H   UNL     1     -11.351  15.922  65.523  1.00  0.00     0.000 HD 
HETATM   42  O   UNL     1      -8.786  14.396  66.623  1.00  0.00    -0.232 OA 
BRANCH  40  43
HETATM   43  O   UNL     1      -9.578  14.743  64.504  1.00  0.00     0.430 OA 
BRANCH  43  44
HETATM   44  C   UNL     1      -9.541  13.392  64.023  1.00  0.00     1.681 C  
BRANCH  44  45
HETATM   45  C   UNL     1     -10.935  12.977  63.705  1.00  0.00    -0.278 A  
HETATM   46  N   UNL     1     -13.278  12.933  63.667  1.00  0.00     0.045 NA 
HETATM   47  C   UNL     1     -12.123  13.614  64.009  1.00  0.00    -0.425 A  
HETATM   48  C   UNL     1     -12.952  11.797  63.094  1.00  0.00     0.208 A  
HETATM   49  S   UNL     1     -11.273  11.488  62.920  1.00  0.00     0.655 SA 
ENDBRANCH  44  45
ENDBRANCH  43  44
ENDBRANCH  40  43
ENDBRANCH  31  39
ENDBRANCH  30  31
ENDBRANCH  29  30
ENDBRANCH  21  29
ENDBRANCH  19  21
ENDBRANCH  16  17
BRANCH  16  50
HETATM   50  C   UNL     1     -13.076  11.807  69.603  1.00  0.00     1.235 C  
BRANCH  50  51
HETATM   51  C   UNL     1     -12.832  13.219  70.123  1.00  0.00     0.238 C  
BRANCH  51  52
HETATM   52  N   UNL     1     -12.350  13.296  71.518  1.00  0.00    -0.116 NA 
HETATM   53  O   UNL     1     -13.434  15.847  72.514  1.00  0.00    -0.476 OA 
HETATM   54  C   UNL     1     -12.354  15.828  71.570  1.00  0.00    -0.455 C  
HETATM   55  C   UNL     1     -11.529  14.527  71.671  1.00  0.00     0.246 C  
HETATM   56  C   UNL     1     -14.266  14.684  72.390  1.00  0.00    -0.380 C  
HETATM   57  C   UNL     1     -13.442  13.392  72.514  1.00  0.00    -0.536 C  
ENDBRANCH  51  52
ENDBRANCH  50  51
ENDBRANCH  16  50
ENDBRANCH  14  16
ENDBRANCH  12  14
ENDBRANCH  10  12
ENDBRANCH   9  10
ENDBRANCH   6   9
TORSDOF 21
ENDMDL
