MODEL       52
REMARK 921   NORMALIZED FREE ENERGY PREDICTED BY IDOCK:   -4.14 KCAL/MOL
REMARK 922        TOTAL FREE ENERGY PREDICTED BY IDOCK:   -5.67 KCAL/MOL
REMARK 923 INTER-LIGAND FREE ENERGY PREDICTED BY IDOCK:   -4.51 KCAL/MOL
REMARK 924 INTRA-LIGAND FREE ENERGY PREDICTED BY IDOCK:   -1.16 KCAL/MOL
REMARK 927      BINDING AFFINITY PREDICTED BY RF-SCORE:    0.00 PKD
ROOT
HETATM    1  O   UNL     1      -9.725  13.667  68.968  1.00  0.00    -0.415 OA 
HETATM    2  C   UNL     1     -10.831  12.761  68.942  1.00  0.00    -0.196 C  
HETATM    3  H   UNL     1      -9.555  13.906  69.872  1.00  0.00     0.000 HD 
ENDROOT
BRANCH   2   4
HETATM    4  C   UNL     1     -11.103  12.377  67.485  1.00  0.00    -0.266 C  
HETATM    5  H   UNL     1     -12.183  11.025  66.559  1.00  0.00     0.000 HD 
HETATM    6  O   UNL     1     -12.013  11.263  67.463  1.00  0.00    -0.612 OA 
BRANCH   4   7
HETATM    7  C   UNL     1     -11.660  13.541  66.632  1.00  0.00    -0.363 C  
HETATM    8  O   UNL     1     -12.170  14.565  67.507  1.00  0.00    -0.598 OA 
HETATM    9  H   UNL     1     -12.513  15.279  66.983  1.00  0.00     0.000 HD 
BRANCH   7  10
HETATM   10  C   UNL     1     -10.606  14.182  65.693  1.00  0.00    -0.310 C  
HETATM   11  H   UNL     1      -8.640  14.101  65.414  1.00  0.00     0.000 HD 
HETATM   12  O   UNL     1      -9.287  13.708  65.989  1.00  0.00    -0.152 OA 
BRANCH  10  13
HETATM   13  C   UNL     1     -10.621  15.719  65.748  1.00  0.00    -0.355 C  
HETATM   14  H   UNL     1     -10.950  17.187  64.482  1.00  0.00     0.000 HD 
HETATM   15  O   UNL     1     -10.940  16.238  64.448  1.00  0.00    -0.708 OA 
BRANCH  13  16
HETATM   16  C   UNL     1      -9.270  16.291  66.225  1.00  0.00    -0.328 C  
HETATM   17  O   UNL     1      -9.166  16.278  67.650  1.00  0.00    -0.204 OA 
HETATM   18  H   UNL     1      -8.334  16.629  67.944  1.00  0.00     0.000 HD 
ENDBRANCH  13  16
ENDBRANCH  10  13
ENDBRANCH   7  10
ENDBRANCH   4   7
ENDBRANCH   2   4
TORSDOF 5
ENDMDL
