MODEL        3
REMARK 921   NORMALIZED FREE ENERGY PREDICTED BY IDOCK:   -8.02 KCAL/MOL
REMARK 922        TOTAL FREE ENERGY PREDICTED BY IDOCK:  -11.08 KCAL/MOL
REMARK 923 INTER-LIGAND FREE ENERGY PREDICTED BY IDOCK:  -11.63 KCAL/MOL
REMARK 924 INTRA-LIGAND FREE ENERGY PREDICTED BY IDOCK:    0.55 KCAL/MOL
REMARK 927      BINDING AFFINITY PREDICTED BY RF-SCORE:    0.00 PKD
ROOT
HETATM    1  C   UNL     1     -11.481  15.396  66.202  1.00  0.00     0.001 C  
HETATM    2  C   UNL     1     -11.031  15.329  64.872  1.00  0.00    -0.445 C  
HETATM    3  C   UNL     1     -10.387  14.325  65.788  1.00  0.00    -0.341 C  
HETATM    4  C   UNL     1     -11.237  14.069  67.664  1.00  0.00    -0.297 C  
HETATM    5  C   UNL     1      -9.690  13.333  64.599  1.00  0.00     0.176 C  
HETATM    6  O   UNL     1     -12.522  14.722  67.965  1.00  0.00    -0.571 OA 
HETATM    7  C   UNL     1      -7.089  19.251  66.627  1.00  0.00    -0.219 C  
HETATM    8  C   UNL     1     -11.254  13.462  66.454  1.00  0.00    -0.323 C  
HETATM    9  C   UNL     1      -6.667  19.738  67.990  1.00  0.00    -0.254 C  
HETATM   10  C   UNL     1      -8.050  18.335  66.856  1.00  0.00    -0.259 C  
HETATM   11  C   UNL     1     -12.354  12.596  65.826  1.00  0.00    -0.323 C  
HETATM   12  H   UNL     1     -12.910  14.605  68.824  1.00  0.00     0.000 HD 
HETATM   13  C   UNL     1      -9.540  13.007  67.242  1.00  0.00    -0.225 C  
HETATM   14  C   UNL     1      -8.698  14.428  67.928  1.00  0.00    -0.168 C  
HETATM   15  C   UNL     1      -9.453  18.819  67.167  1.00  0.00    -0.328 C  
HETATM   16  C   UNL     1      -8.799  15.984  67.211  1.00  0.00    -0.190 C  
HETATM   17  C   UNL     1      -6.344  16.399  66.870  1.00  0.00    -0.109 C  
HETATM   18  O   UNL     1      -9.115  14.476  69.311  1.00  0.00    -0.386 OA 
HETATM   19  F   UNL     1      -8.435  15.917  65.839  1.00  0.00    -0.343 F  
HETATM   20  C   UNL     1     -10.371  16.457  67.137  1.00  0.00    -0.290 C  
HETATM   21  C   UNL     1      -7.640  17.013  67.556  1.00  0.00    -0.184 C  
HETATM   22  C   UNL     1      -7.134  17.451  68.925  1.00  0.00    -0.251 C  
HETATM   23  H   UNL     1      -8.668  15.231  69.675  1.00  0.00     0.000 HD 
HETATM   24  O   UNL     1      -6.340  20.901  68.172  1.00  0.00    -0.317 OA 
HETATM   25  C   UNL     1     -10.486  17.882  66.563  1.00  0.00    -0.315 C  
HETATM   26  C   UNL     1      -6.638  18.704  69.095  1.00  0.00    -0.289 C  
ENDROOT
BRANCH   4  27
HETATM   27  C   UNL     1     -11.758  12.670  68.542  1.00  0.00    -0.330 C  
HETATM   28  O   UNL     1     -11.846  11.519  68.079  1.00  0.00    -0.545 OA 
BRANCH  27  29
HETATM   29  C   UNL     1     -12.081  12.806  70.053  1.00  0.00    -0.285 C  
BRANCH  29  30
HETATM   30  O   UNL     1     -11.758  11.611  70.805  1.00  0.00    -0.162 OA 
BRANCH  30  31
HETATM   31  C   UNL     1     -12.770  11.124  71.569  1.00  0.00    -0.394 C  
HETATM   32  O   UNL     1     -13.534  11.802  72.231  1.00  0.00    -0.423 OA 
BRANCH  31  33
HETATM   33  C   UNL     1     -12.835   9.630  71.549  1.00  0.00    -0.485 A  
HETATM   34  C   UNL     1     -13.098   6.823  71.536  1.00  0.00    -0.248 A  
HETATM   35  O   UNL     1     -10.333   5.507  72.219  1.00  0.00    -0.196 OA 
HETATM   36  C   UNL     1     -14.216   7.620  71.746  1.00  0.00    -0.549 A  
HETATM   37  C   UNL     1     -14.088   9.016  71.750  1.00  0.00    -0.377 A  
HETATM   38  O   UNL     1     -10.880   5.477  69.794  1.00  0.00    -0.331 OA 
HETATM   39  O   UNL     1      -9.368   7.197  70.605  1.00  0.00    -0.158 OA 
HETATM   40  C   UNL     1     -11.705   8.824  71.334  1.00  0.00    -0.369 A  
HETATM   41  S   UNL     1     -10.454   6.372  71.064  1.00  0.00    -0.231 S  
HETATM   42  C   UNL     1     -11.863   7.424  71.340  1.00  0.00    -0.300 A  
ENDBRANCH  31  33
ENDBRANCH  30  31
ENDBRANCH  29  30
ENDBRANCH  27  29
ENDBRANCH   4  27
TORSDOF 5
ENDMDL
