MODEL      104
REMARK 921   NORMALIZED FREE ENERGY PREDICTED BY IDOCK:   -5.06 KCAL/MOL
REMARK 922        TOTAL FREE ENERGY PREDICTED BY IDOCK:   -8.74 KCAL/MOL
REMARK 923 INTER-LIGAND FREE ENERGY PREDICTED BY IDOCK:   -8.24 KCAL/MOL
REMARK 924 INTRA-LIGAND FREE ENERGY PREDICTED BY IDOCK:   -0.49 KCAL/MOL
REMARK 927      BINDING AFFINITY PREDICTED BY RF-SCORE:    0.00 PKD
ROOT
HETATM    1 CL   UNL     1     -10.294   5.754  70.361  1.00  0.00    -0.288 Cl 
HETATM    2  C   UNL     1     -10.753   7.420  70.530  1.00  0.00    -0.233 A  
HETATM    3  C   UNL     1     -11.485   7.745  71.670  1.00  0.00    -0.299 A  
HETATM    4  C   UNL     1     -11.899   9.055  71.864  1.00  0.00    -0.447 A  
HETATM    5  C   UNL     1     -11.618  10.022  70.898  1.00  0.00    -0.463 A  
HETATM    6  C   UNL     1     -10.892   9.743  69.718  1.00  0.00    -0.257 A  
HETATM    7  C   UNL     1     -10.422   8.405  69.575  1.00  0.00    -0.224 A  
HETATM    8 CL   UNL     1      -9.326   7.952  68.293  1.00  0.00    -0.143 Cl 
ENDROOT
BRANCH   6   9
HETATM    9  N   UNL     1     -10.745  10.759  68.781  1.00  0.00    -0.193 NA 
HETATM   10  C   UNL     1     -11.853  11.187  67.908  1.00  0.00    -0.082 C  
HETATM   11  C   UNL     1     -11.909  12.727  67.782  1.00  0.00    -0.332 C  
HETATM   12  N   UNL     1     -10.631  13.367  67.395  1.00  0.00    -0.250 NA 
HETATM   13  C   UNL     1      -9.444  11.412  68.523  1.00  0.00    -0.183 C  
HETATM   14  C   UNL     1      -9.617  12.945  68.391  1.00  0.00    -0.176 C  
BRANCH  12  15
HETATM   15  C   UNL     1     -10.218  13.006  66.028  1.00  0.00    -0.287 C  
BRANCH  15  16
HETATM   16  C   UNL     1     -10.858  13.883  64.935  1.00  0.00    -0.413 C  
BRANCH  16  17
HETATM   17  C   UNL     1     -11.234  15.295  65.394  1.00  0.00    -0.307 C  
BRANCH  17  18
HETATM   18  C   UNL     1     -10.008  16.043  65.894  1.00  0.00    -0.352 C  
BRANCH  18  19
HETATM   19  O   UNL     1     -10.320  16.804  67.060  1.00  0.00    -0.298 OA 
BRANCH  19  20
HETATM   20  C   UNL     1      -9.375  17.754  67.366  1.00  0.00    -0.252 A  
HETATM   21  C   UNL     1      -8.718  18.317  66.269  1.00  0.00    -0.199 A  
HETATM   22  C   UNL     1      -7.737  19.288  66.478  1.00  0.00    -0.272 A  
HETATM   23  C   UNL     1      -7.407  19.705  67.774  1.00  0.00    -0.306 A  
HETATM   24  C   UNL     1      -8.091  19.163  68.860  1.00  0.00    -0.329 A  
HETATM   25  C   UNL     1      -6.418  20.817  67.972  1.00  0.00    -0.362 C  
HETATM   26  C   UNL     1      -9.072  18.199  68.657  1.00  0.00    -0.290 A  
HETATM   27  C   UNL     1      -5.417  20.889  66.834  1.00  0.00    -0.245 C  
HETATM   28  C   UNL     1      -6.072  20.767  65.477  1.00  0.00    -0.242 C  
HETATM   29  O   UNL     1      -5.632  21.337  64.484  1.00  0.00    -0.214 OA 
HETATM   30  N   UNL     1      -7.112  19.884  65.381  1.00  0.00    -0.303 N  
HETATM   31  H   UNL     1      -7.453  19.647  64.450  1.00  0.00     0.000 HD 
ENDBRANCH  19  20
ENDBRANCH  18  19
ENDBRANCH  17  18
ENDBRANCH  16  17
ENDBRANCH  15  16
ENDBRANCH  12  15
ENDBRANCH   6   9
TORSDOF 7
ENDMDL
