MODEL        6
REMARK 921   NORMALIZED FREE ENERGY PREDICTED BY IDOCK:   -3.84 KCAL/MOL
REMARK 922        TOTAL FREE ENERGY PREDICTED BY IDOCK:  -19.76 KCAL/MOL
REMARK 923 INTER-LIGAND FREE ENERGY PREDICTED BY IDOCK:  -14.31 KCAL/MOL
REMARK 924 INTRA-LIGAND FREE ENERGY PREDICTED BY IDOCK:   -5.44 KCAL/MOL
REMARK 927      BINDING AFFINITY PREDICTED BY RF-SCORE:    0.00 PKD
ROOT
HETATM    1 NA   UNL     1      -7.472  13.724  68.310  1.00  0.00    -0.080 Na 
HETATM    2  C   UNL     2      -9.120  10.193  67.877  1.00  0.00    -0.131 C  
ENDROOT
BRANCH   2   3
HETATM    3  C   UNL     2      -9.375  11.629  68.315  1.00  0.00    -0.191 C  
BRANCH   3   4
HETATM    4  O   UNL     2     -10.533  12.236  67.777  1.00  0.00    -0.203 OA 
BRANCH   4   5
HETATM    5  P   UNL     2     -11.576  13.086  68.865  1.00  0.00    -0.334 P  
HETATM    6  O   UNL     2     -10.492  14.207  69.041  1.00  0.00    -0.237 OA 
HETATM    7  O   UNL     2     -11.446  11.883  69.806  1.00  0.00    -0.278 OA 
BRANCH   5   8
HETATM    8  O   UNL     2     -12.619  13.936  69.953  1.00  0.00    -0.281 OA 
BRANCH   8   9
HETATM    9  C   UNL     2     -12.746  13.435  71.287  1.00  0.00    -0.338 C  
BRANCH   9  10
HETATM   10  C   UNL     2     -12.814  14.512  72.402  1.00  0.00    -0.360 C  
HETATM   11  H   UNL     2     -11.740  16.086  73.042  1.00  0.00     0.000 HD 
HETATM   12  O   UNL     2     -11.698  15.426  72.359  1.00  0.00    -0.413 OA 
BRANCH  10  13
HETATM   13  C   UNL     2     -14.122  15.310  72.263  1.00  0.00    -0.554 C  
HETATM   14  O   UNL     2     -14.399  15.652  70.901  1.00  0.00    -0.801 OA 
HETATM   15  H   UNL     2     -15.206  16.144  70.815  1.00  0.00     0.000 HD 
ENDBRANCH  10  13
ENDBRANCH   9  10
ENDBRANCH   8   9
ENDBRANCH   5   8
ENDBRANCH   4   5
ENDBRANCH   3   4
ENDBRANCH   2   3
BRANCH   2  16
HETATM   16  C   UNL     2      -9.742   9.157  68.800  1.00  0.00    -0.162 C  
BRANCH  16  17
HETATM   17  O   UNL     2      -9.018   8.958  70.013  1.00  0.00    -0.148 OA 
BRANCH  17  18
HETATM   18  C   UNL     2      -8.094   7.959  70.044  1.00  0.00    -0.117 C  
HETATM   19  O   UNL     2      -7.088   7.938  70.741  1.00  0.00    -0.051 OA 
BRANCH  18  20
HETATM   20  C   UNL     2      -8.472   6.932  69.027  1.00  0.00    -0.128 C  
BRANCH  20  21
HETATM   21  C   UNL     2      -7.219   6.464  68.339  1.00  0.00    -0.085 C  
BRANCH  21  22
HETATM   22  C   UNL     2      -7.558   5.678  67.086  1.00  0.00    -0.096 C  
BRANCH  22  23
HETATM   23  C   UNL     2      -9.051   5.393  67.048  1.00  0.00    -0.112 C  
BRANCH  23  24
HETATM   24  C   UNL     2      -9.303   4.016  66.462  1.00  0.00    -0.192 C  
BRANCH  24  25
HETATM   25  C   UNL     2      -8.566   2.964  67.272  1.00  0.00    -0.117 C  
BRANCH  25  26
HETATM   26  C   UNL     2      -9.464   2.428  68.374  1.00  0.00    -0.219 C  
BRANCH  26  27
HETATM   27  C   UNL     2      -8.670   2.251  69.658  1.00  0.00    -0.120 C  
BRANCH  27  28
HETATM   28  C   UNL     2      -8.513   3.586  70.366  1.00  0.00    -0.093 C  
BRANCH  28  29
HETATM   29  C   UNL     2      -9.550   3.729  71.471  1.00  0.00    -0.232 C  
BRANCH  29  30
HETATM   30  C   UNL     2      -9.476   5.117  72.092  1.00  0.00    -0.170 C  
BRANCH  30  31
HETATM   31  C   UNL     2     -10.856   5.579  72.547  1.00  0.00    -0.302 C  
BRANCH  31  32
HETATM   32  C   UNL     2     -11.350   6.730  71.677  1.00  0.00    -0.305 C  
BRANCH  32  33
HETATM   33  C   UNL     2     -11.446   8.022  72.482  1.00  0.00    -0.471 C  
HETATM   34  C   UNL     2     -12.358   9.025  71.799  1.00  0.00    -0.438 C  
ENDBRANCH  32  33
ENDBRANCH  31  32
ENDBRANCH  30  31
ENDBRANCH  29  30
ENDBRANCH  28  29
ENDBRANCH  27  28
ENDBRANCH  26  27
ENDBRANCH  25  26
ENDBRANCH  24  25
ENDBRANCH  23  24
ENDBRANCH  22  23
ENDBRANCH  21  22
ENDBRANCH  20  21
ENDBRANCH  18  20
ENDBRANCH  17  18
ENDBRANCH  16  17
ENDBRANCH   2  16
BRANCH   2  35
HETATM   35  O   UNL     2      -9.650   9.983  66.555  1.00  0.00    -0.170 OA 
BRANCH  35  36
HETATM   36  C   UNL     2      -8.716   9.816  65.576  1.00  0.00    -0.149 C  
HETATM   37  O   UNL     2      -7.583   9.356  65.734  1.00  0.00    -0.097 OA 
BRANCH  36  38
HETATM   38  C   UNL     2      -9.319  10.176  64.268  1.00  0.00    -0.349 C  
BRANCH  38  39
HETATM   39  C   UNL     2     -10.119  11.445  64.398  1.00  0.00    -0.341 C  
BRANCH  39  40
HETATM   40  C   UNL     2     -10.877  11.728  63.114  1.00  0.00    -0.299 C  
BRANCH  40  41
HETATM   41  C   UNL     2     -12.139  12.516  63.435  1.00  0.00    -0.621 C  
BRANCH  41  42
HETATM   42  C   UNL     2     -12.344  12.616  64.937  1.00  0.00    -0.563 C  
BRANCH  42  43
HETATM   43  C   UNL     2     -12.658  14.054  65.322  1.00  0.00    -0.495 C  
BRANCH  43  44
HETATM   44  C   UNL     2     -11.655  14.998  64.678  1.00  0.00    -0.386 C  
BRANCH  44  45
HETATM   45  C   UNL     2     -10.304  14.896  65.369  1.00  0.00    -0.413 C  
BRANCH  45  46
HETATM   46  C   UNL     2      -9.991  16.190  66.108  1.00  0.00    -0.357 C  
BRANCH  46  47
HETATM   47  C   UNL     2      -8.488  16.352  66.293  1.00  0.00    -0.372 C  
BRANCH  47  48
HETATM   48  C   UNL     2      -8.187  17.573  67.153  1.00  0.00    -0.229 C  
BRANCH  48  49
HETATM   49  C   UNL     2      -7.952  18.803  66.282  1.00  0.00    -0.285 C  
BRANCH  49  50
HETATM   50  C   UNL     2      -8.515  20.054  66.951  1.00  0.00    -0.385 C  
BRANCH  50  51
HETATM   51  C   UNL     2     -10.021  19.933  67.161  1.00  0.00    -0.557 C  
HETATM   52  C   UNL     2     -10.753  19.832  65.834  1.00  0.00    -0.488 C  
ENDBRANCH  50  51
ENDBRANCH  49  50
ENDBRANCH  48  49
ENDBRANCH  47  48
ENDBRANCH  46  47
ENDBRANCH  45  46
ENDBRANCH  44  45
ENDBRANCH  43  44
ENDBRANCH  42  43
ENDBRANCH  41  42
ENDBRANCH  40  41
ENDBRANCH  39  40
ENDBRANCH  38  39
ENDBRANCH  36  38
ENDBRANCH  35  36
ENDBRANCH   2  35
TORSDOF 40
ENDMDL
