MODEL       28
REMARK 921   NORMALIZED FREE ENERGY PREDICTED BY IDOCK:   -6.16 KCAL/MOL
REMARK 922        TOTAL FREE ENERGY PREDICTED BY IDOCK:   -9.96 KCAL/MOL
REMARK 923 INTER-LIGAND FREE ENERGY PREDICTED BY IDOCK:   -9.98 KCAL/MOL
REMARK 924 INTRA-LIGAND FREE ENERGY PREDICTED BY IDOCK:    0.03 KCAL/MOL
REMARK 927      BINDING AFFINITY PREDICTED BY RF-SCORE:    0.00 PKD
ROOT
HETATM    1  C   UNL     1     -10.307  12.673  64.584  1.00  0.00    -0.330 C  
HETATM    2  N   UNL     1     -10.159  11.207  64.500  1.00  0.00    -0.282 N  
HETATM    3  C   UNL     1      -9.968  10.720  63.120  1.00  0.00    -0.290 C  
ENDROOT
BRANCH   2   4
HETATM    4  S   UNL     1      -9.211  10.459  65.688  1.00  0.00    -0.196 S  
HETATM    5  O   UNL     1      -7.970  11.195  65.815  1.00  0.00    -0.078 OA 
HETATM    6  O   UNL     1      -9.195   9.031  65.449  1.00  0.00    -0.220 OA 
BRANCH   4   7
HETATM    7  C   UNL     1     -10.147  10.747  67.176  1.00  0.00    -0.204 A  
HETATM    8  C   UNL     1     -10.517  12.056  67.526  1.00  0.00    -0.234 A  
HETATM    9  C   UNL     1     -11.246  12.351  68.695  1.00  0.00    -0.271 A  
HETATM   10  C   UNL     1     -11.630  11.228  69.462  1.00  0.00    -0.328 A  
HETATM   11  S   UNL     1     -12.671  11.307  70.889  1.00  0.00    -0.279 SA 
HETATM   12  C   UNL     1     -11.244   9.915  69.114  1.00  0.00    -0.151 A  
HETATM   13  C   UNL     1     -10.503   9.668  67.970  1.00  0.00    -0.276 A  
HETATM   14  C   UNL     1     -12.847  13.051  71.124  1.00  0.00    -0.245 A  
HETATM   15  C   UNL     1     -13.605  13.383  72.269  1.00  0.00    -0.703 A  
HETATM   16  C   UNL     1     -13.779  14.704  72.653  1.00  0.00    -0.545 A  
HETATM   17  C   UNL     1     -13.177  15.692  71.893  1.00  0.00    -0.537 A  
HETATM   18  C   UNL     1     -12.444  15.365  70.735  1.00  0.00    -0.476 A  
HETATM   19  C   UNL     1     -12.272  14.038  70.286  1.00  0.00    -0.361 A  
HETATM   20  N   UNL     1     -11.556  13.696  69.093  1.00  0.00    -0.287 NA 
BRANCH  20  21
HETATM   21  C   UNL     1     -11.101  14.796  68.164  1.00  0.00    -0.278 C  
BRANCH  21  22
HETATM   22  C   UNL     1      -9.623  15.176  68.394  1.00  0.00    -0.212 C  
BRANCH  22  23
HETATM   23  C   UNL     1      -9.283  16.694  68.361  1.00  0.00    -0.225 C  
BRANCH  23  24
HETATM   24  N   UNL     1      -7.986  17.112  67.790  1.00  0.00    -0.182 NA 
HETATM   25  C   UNL     1      -8.070  17.732  66.461  1.00  0.00    -0.272 C  
HETATM   26  C   UNL     1      -8.715  19.118  66.417  1.00  0.00    -0.336 C  
HETATM   27  C   UNL     1      -8.118  20.130  67.407  1.00  0.00    -0.372 C  
HETATM   28  C   UNL     1      -7.245  18.042  68.670  1.00  0.00    -0.273 C  
HETATM   29  C   UNL     1      -7.837  19.459  68.767  1.00  0.00    -0.392 C  
BRANCH  27  30
HETATM   30  C   UNL     1      -6.886  20.883  66.859  1.00  0.00    -0.375 C  
BRANCH  30  31
HETATM   31  C   UNL     1      -6.387  20.337  65.516  1.00  0.00    -0.240 C  
HETATM   32  O   UNL     1      -6.836  21.168  64.452  1.00  0.00    -0.535 OA 
HETATM   33  H   UNL     1      -6.527  20.830  63.620  1.00  0.00     0.000 HD 
ENDBRANCH  30  31
ENDBRANCH  27  30
ENDBRANCH  23  24
ENDBRANCH  22  23
ENDBRANCH  21  22
ENDBRANCH  20  21
ENDBRANCH   4   7
ENDBRANCH   2   4
TORSDOF 8
ENDMDL
