MODEL       75
REMARK 921   NORMALIZED FREE ENERGY PREDICTED BY IDOCK:   -4.63 KCAL/MOL
REMARK 922        TOTAL FREE ENERGY PREDICTED BY IDOCK:   -7.85 KCAL/MOL
REMARK 923 INTER-LIGAND FREE ENERGY PREDICTED BY IDOCK:   -7.04 KCAL/MOL
REMARK 924 INTRA-LIGAND FREE ENERGY PREDICTED BY IDOCK:   -0.81 KCAL/MOL
REMARK 927      BINDING AFFINITY PREDICTED BY RF-SCORE:    0.00 PKD
ROOT
HETATM    1  C   UNL     1     -13.270  12.417  72.017  1.00  0.00    -0.514 C  
HETATM    2  C   UNL     1     -12.586  13.384  71.065  1.00  0.00    -0.343 C  
ENDROOT
BRANCH   2   3
HETATM    3  N   UNL     1     -12.679  14.875  71.484  1.00  0.00    -0.310 N  
HETATM    4  C   UNL     1     -14.161  15.255  71.653  1.00  0.00    -0.541 C  
BRANCH   3   5
HETATM    5  C   UNL     1     -11.943  15.173  72.804  1.00  0.00    -0.377 C  
HETATM    6  C   UNL     1     -12.744  16.031  73.772  1.00  0.00    -0.719 C  
ENDBRANCH   3   5
BRANCH   3   7
HETATM    7  C   UNL     1     -12.096  15.684  70.290  1.00  0.00    -0.385 C  
BRANCH   7   8
HETATM    8  C   UNL     1     -10.744  15.178  69.779  1.00  0.00    -0.274 C  
BRANCH   8   9
HETATM    9  O   UNL     1      -9.935  16.254  69.297  1.00  0.00    -0.245 OA 
BRANCH   9  10
HETATM   10  C   UNL     1      -9.815  16.297  67.933  1.00  0.00    -0.237 C  
HETATM   11  O   UNL     1     -10.765  16.484  67.182  1.00  0.00    -0.303 OA 
BRANCH  10  12
HETATM   12  C   UNL     1      -8.353  16.253  67.505  1.00  0.00    -0.174 C  
HETATM   13  C   UNL     1      -7.669  17.481  68.063  1.00  0.00    -0.211 A  
HETATM   14  C   UNL     1      -8.106  18.767  67.694  1.00  0.00    -0.270 A  
HETATM   15  C   UNL     1      -7.578  19.896  68.318  1.00  0.00    -0.306 A  
HETATM   16  C   UNL     1      -6.597  19.754  69.296  1.00  0.00    -0.387 A  
HETATM   17  C   UNL     1      -6.146  18.481  69.652  1.00  0.00    -0.269 A  
HETATM   18  C   UNL     1      -6.688  17.348  69.045  1.00  0.00    -0.243 A  
HETATM   19  O   UNL     1      -6.217  16.136  69.489  1.00  0.00    -0.159 OA 
HETATM   20  C   UNL     1      -6.702  14.985  68.916  1.00  0.00    -0.099 A  
HETATM   21  C   UNL     1      -6.140  13.790  69.370  1.00  0.00    -0.103 A  
HETATM   22  C   UNL     1      -6.576  12.569  68.857  1.00  0.00    -0.095 A  
HETATM   23  C   UNL     1      -7.569  12.541  67.879  1.00  0.00    -0.133 A  
HETATM   24  C   UNL     1      -8.128  13.733  67.419  1.00  0.00    -0.188 A  
HETATM   25  C   UNL     1      -7.705  14.965  67.945  1.00  0.00    -0.151 A  
ENDBRANCH  10  12
ENDBRANCH   9  10
ENDBRANCH   8   9
ENDBRANCH   7   8
ENDBRANCH   3   7
ENDBRANCH   2   3
TORSDOF 7
ENDMDL
