MODEL       17
REMARK 921   NORMALIZED FREE ENERGY PREDICTED BY IDOCK:   -6.33 KCAL/MOL
REMARK 922        TOTAL FREE ENERGY PREDICTED BY IDOCK:  -10.50 KCAL/MOL
REMARK 923 INTER-LIGAND FREE ENERGY PREDICTED BY IDOCK:   -9.68 KCAL/MOL
REMARK 924 INTRA-LIGAND FREE ENERGY PREDICTED BY IDOCK:   -0.83 KCAL/MOL
REMARK 927      BINDING AFFINITY PREDICTED BY RF-SCORE:    0.00 PKD
ROOT
HETATM    1  O   UNL     1     -10.377   7.133  72.271  1.00  0.00    -0.195 OA 
HETATM    2  C   UNL     1     -11.426   6.282  72.171  1.00  0.00    -0.307 C  
HETATM    3  C   UNL     1     -12.641   6.869  71.461  1.00  0.00    -0.367 C  
HETATM    4  O   UNL     1     -11.400   5.156  72.639  1.00  0.00    -0.243 OA 
ENDROOT
BRANCH   3   5
HETATM    5  N   UNL     1     -12.430   8.245  71.024  1.00  0.00    -0.493 N  
HETATM    6  C   UNL     1     -13.145   9.298  71.556  1.00  0.00    -0.363 C  
HETATM    7  H   UNL     1     -11.733   8.434  70.303  1.00  0.00     0.000 HD 
HETATM    8  O   UNL     1     -14.026   9.141  72.394  1.00  0.00    -0.471 OA 
BRANCH   6   9
HETATM    9  C   UNL     1     -12.794  10.683  70.996  1.00  0.00    -0.402 C  
BRANCH   9  10
HETATM   10  N   UNL     1     -12.299  10.650  69.631  1.00  0.00    -0.531 N  
HETATM   11  H   UNL     1     -12.238   9.752  69.151  1.00  0.00     0.000 HD 
HETATM   12  C   UNL     1     -11.909  11.787  68.959  1.00  0.00    -0.317 C  
HETATM   13  O   UNL     1     -11.985  12.904  69.464  1.00  0.00    -0.312 OA 
BRANCH  12  14
HETATM   14  C   UNL     1     -11.373  11.550  67.541  1.00  0.00    -0.299 C  
BRANCH  14  15
HETATM   15  N   UNL     1     -10.998  12.785  66.858  1.00  0.00    -0.254 N  
HETATM   16  C   UNL     1     -11.694  13.222  65.749  1.00  0.00    -0.359 C  
HETATM   17  H   UNL     1     -10.210  13.332  67.205  1.00  0.00     0.000 HD 
HETATM   18  O   UNL     1     -12.555  12.534  65.205  1.00  0.00    -0.631 OA 
BRANCH  16  19
HETATM   19  C   UNL     1     -11.253  14.572  65.211  1.00  0.00    -0.352 C  
BRANCH  19  20
HETATM   20  S   UNL     1      -9.776  15.186  66.049  1.00  0.00    -0.347 SA 
BRANCH  20  21
HETATM   21  C   UNL     1     -10.517  16.197  67.282  1.00  0.00    -0.309 C  
HETATM   22  O   UNL     1     -11.303  15.727  68.100  1.00  0.00    -0.350 OA 
BRANCH  21  23
HETATM   23  C   UNL     1     -10.164  17.643  67.281  1.00  0.00    -0.343 A  
HETATM   24  C   UNL     1      -9.833  18.259  68.495  1.00  0.00    -0.400 A  
HETATM   25  C   UNL     1      -9.550  19.628  68.533  1.00  0.00    -0.467 A  
HETATM   26  C   UNL     1      -9.606  20.387  67.364  1.00  0.00    -0.584 A  
HETATM   27  C   UNL     1      -9.933  19.779  66.154  1.00  0.00    -0.573 A  
HETATM   28  C   UNL     1     -10.213  18.414  66.110  1.00  0.00    -0.408 A  
ENDBRANCH  21  23
ENDBRANCH  20  21
ENDBRANCH  19  20
ENDBRANCH  16  19
ENDBRANCH  14  15
ENDBRANCH  12  14
ENDBRANCH   9  10
ENDBRANCH   6   9
ENDBRANCH   3   5
TORSDOF 9
ENDMDL
