MODEL      132
REMARK 921   NORMALIZED FREE ENERGY PREDICTED BY IDOCK:   -5.00 KCAL/MOL
REMARK 922        TOTAL FREE ENERGY PREDICTED BY IDOCK:   -8.33 KCAL/MOL
REMARK 923 INTER-LIGAND FREE ENERGY PREDICTED BY IDOCK:   -7.14 KCAL/MOL
REMARK 924 INTRA-LIGAND FREE ENERGY PREDICTED BY IDOCK:   -1.18 KCAL/MOL
REMARK 927      BINDING AFFINITY PREDICTED BY RF-SCORE:    0.00 PKD
ROOT
HETATM    1  C   UNL     1      -7.144   6.425  73.772  1.00  0.00    -0.082 C  
HETATM    2  O   UNL     1      -6.372   7.395  73.071  1.00  0.00    -0.058 OA 
ENDROOT
BRANCH   2   3
HETATM    3  C   UNL     1      -6.510   7.381  71.708  1.00  0.00    -0.043 A  
HETATM    4  C   UNL     1      -6.956   8.587  71.154  1.00  0.00    -0.070 A  
HETATM    5  C   UNL     1      -7.176   8.714  69.785  1.00  0.00    -0.051 A  
HETATM    6  C   UNL     1      -6.921   7.634  68.917  1.00  0.00    -0.070 A  
HETATM    7  C   UNL     1      -6.424   6.442  69.465  1.00  0.00    -0.043 A  
HETATM    8  H   UNL     1      -5.514   4.423  70.749  1.00  0.00     0.000 HD 
HETATM    9  O   UNL     1      -5.718   5.144  71.334  1.00  0.00    -0.014 OA 
HETATM   10  C   UNL     1      -6.211   6.320  70.849  1.00  0.00    -0.039 A  
BRANCH   6  11
HETATM   11  C   UNL     1      -7.342   7.732  67.459  1.00  0.00    -0.092 C  
HETATM   12  C   UNL     1      -6.090   7.749  66.596  1.00  0.00    -0.048 C  
HETATM   13  O   UNL     1      -5.955   7.018  64.346  1.00  0.00    -0.035 OA 
HETATM   14  C   UNL     1      -6.535   7.730  65.164  1.00  0.00    -0.041 C  
HETATM   15  C   UNL     1      -7.676   8.605  64.837  1.00  0.00    -0.106 A  
HETATM   16  C   UNL     1      -8.400   9.149  65.901  1.00  0.00    -0.123 A  
HETATM   17  C   UNL     1      -9.470  10.020  65.650  1.00  0.00    -0.278 A  
HETATM   18  O   UNL     1      -8.125   8.917  67.233  1.00  0.00    -0.103 OA 
HETATM   19  C   UNL     1      -9.807  10.369  64.338  1.00  0.00    -0.328 A  
HETATM   20  O   UNL     1      -7.316   8.448  62.465  1.00  0.00    -0.094 OA 
HETATM   21  C   UNL     1      -9.092   9.808  63.276  1.00  0.00    -0.267 A  
HETATM   22  H   UNL     1      -7.555   8.675  61.573  1.00  0.00     0.000 HD 
HETATM   23  C   UNL     1      -8.028   8.941  63.523  1.00  0.00    -0.158 A  
BRANCH  19  24
HETATM   24  O   UNL     1     -10.825  11.213  63.969  1.00  0.00    -0.378 OA 
BRANCH  24  25
HETATM   25  C   UNL     1     -10.597  12.617  64.145  1.00  0.00    -0.407 C  
HETATM   26  C   UNL     1      -9.537  14.210  65.558  1.00  0.00    -0.018 C  
HETATM   27  O   UNL     1      -9.989  12.852  65.427  1.00  0.00    -0.266 OA 
HETATM   28  C   UNL     1     -10.736  15.169  65.498  1.00  0.00    -0.365 C  
HETATM   29  H   UNL     1     -13.250  15.550  63.449  1.00  0.00     0.000 HD 
HETATM   30  O   UNL     1     -12.615  13.177  62.847  1.00  0.00    -0.564 OA 
HETATM   31  C   UNL     1     -11.559  14.904  64.230  1.00  0.00    -0.191 C  
HETATM   32  O   UNL     1     -10.363  16.555  65.488  1.00  0.00    -0.509 OA 
HETATM   33  H   UNL     1     -13.427  13.668  62.808  1.00  0.00     0.000 HD 
HETATM   34  H   UNL     1     -11.103  17.149  65.450  1.00  0.00     0.000 HD 
HETATM   35  O   UNL     1     -12.739  15.715  64.234  1.00  0.00    -0.350 OA 
HETATM   36  C   UNL     1     -11.919  13.416  64.081  1.00  0.00    -0.450 C  
BRANCH  26  37
HETATM   37  C   UNL     1      -8.775  14.361  66.880  1.00  0.00    -0.193 C  
BRANCH  37  38
HETATM   38  O   UNL     1      -9.695  14.785  67.885  1.00  0.00    -0.207 OA 
BRANCH  38  39
HETATM   39  C   UNL     1     -10.143  13.699  68.704  1.00  0.00    -0.180 C  
HETATM   40  O   UNL     1      -9.611  12.485  68.173  1.00  0.00    -0.206 OA 
HETATM   41  C   UNL     1     -10.054  11.285  68.809  1.00  0.00    -0.194 C  
HETATM   42  C   UNL     1     -11.593  11.188  68.849  1.00  0.00    -0.317 C  
HETATM   43  C   UNL     1      -9.365  11.091  70.157  1.00  0.00     1.532 C  
HETATM   44  O   UNL     1     -12.088  11.001  67.513  1.00  0.00    -0.416 OA 
HETATM   45  C   UNL     1     -12.248  12.457  69.402  1.00  0.00    -0.065 C  
HETATM   46  O   UNL     1     -12.140  12.543  70.832  1.00  0.00    -0.447 OA 
HETATM   47  H   UNL     1     -13.036  10.942  67.537  1.00  0.00     0.000 HD 
HETATM   48  C   UNL     1     -11.687  13.714  68.725  1.00  0.00    -0.348 C  
HETATM   49  H   UNL     1     -12.547  13.329  71.176  1.00  0.00     0.000 HD 
HETATM   50  O   UNL     1     -12.177  14.883  69.407  1.00  0.00    -0.464 OA 
HETATM   51  H   UNL     1     -13.127  14.892  69.420  1.00  0.00     0.000 HD 
ENDBRANCH  38  39
ENDBRANCH  37  38
ENDBRANCH  26  37
ENDBRANCH  24  25
ENDBRANCH  19  24
ENDBRANCH   6  11
ENDBRANCH   2   3
TORSDOF 7
ENDMDL
