MODEL       16
REMARK 921   NORMALIZED FREE ENERGY PREDICTED BY IDOCK:   -5.19 KCAL/MOL
REMARK 922        TOTAL FREE ENERGY PREDICTED BY IDOCK:  -12.31 KCAL/MOL
REMARK 923 INTER-LIGAND FREE ENERGY PREDICTED BY IDOCK:   -9.81 KCAL/MOL
REMARK 924 INTRA-LIGAND FREE ENERGY PREDICTED BY IDOCK:   -2.50 KCAL/MOL
REMARK 927      BINDING AFFINITY PREDICTED BY RF-SCORE:    0.00 PKD
ROOT
HETATM    1  C   UNL     1     -10.897  19.424  67.880  1.00  0.00    -0.201 C  
HETATM    2  N   UNL     1      -9.939  18.444  68.349  1.00  0.00    -0.362 NA 
HETATM    3  C   UNL     1      -8.571  18.651  68.418  1.00  0.00    -0.337 A  
HETATM    4  C   UNL     1      -7.877  17.447  68.165  1.00  0.00    -0.234 A  
HETATM    5  N   UNL     1      -7.956  19.835  68.651  1.00  0.00    -0.286 NA 
HETATM    6  C   UNL     1      -8.958  16.539  67.868  1.00  0.00    -0.205 A  
HETATM    7  H2  UNL     1      -8.555  20.650  68.787  1.00  0.00     0.000 HD 
HETATM    8  H1  UNL     1      -6.949  19.988  68.701  1.00  0.00     0.000 HD 
HETATM    9  N   UNL     1     -10.166  17.114  68.349  1.00  0.00    -0.317 NA 
ENDROOT
BRANCH   4  10
HETATM   10  N   UNL     1      -6.495  17.414  68.118  1.00  0.00    -0.164 N  
HETATM   11  H   UNL     1      -6.006  17.374  69.012  1.00  0.00     0.000 HD 
BRANCH  10  12
HETATM   12  C   UNL     1      -5.723  17.429  66.998  1.00  0.00    -0.153 C  
HETATM   13  O   UNL     1      -5.401  16.369  66.475  1.00  0.00    -0.290 OA 
BRANCH  12  14
HETATM   14  N   UNL     1      -5.233  18.650  66.649  1.00  0.00    -0.132 N  
HETATM   15  H   UNL     1      -4.680  19.193  67.312  1.00  0.00     0.000 HD 
BRANCH  14  16
HETATM   16  C   UNL     1      -5.506  19.172  65.320  1.00  0.00    -0.174 C  
BRANCH  16  17
HETATM   17  C   UNL     1      -6.875  19.859  65.227  1.00  0.00    -0.279 C  
HETATM   18  H2  UNL     1      -6.073  21.669  64.639  1.00  0.00     0.000 HD 
HETATM   19  N   UNL     1      -6.728  21.303  65.331  1.00  0.00    -0.428 NA 
HETATM   20  H1  UNL     1      -7.638  21.760  65.269  1.00  0.00     0.000 HD 
ENDBRANCH  16  17
ENDBRANCH  14  16
ENDBRANCH  12  14
ENDBRANCH  10  12
ENDBRANCH   4  10
BRANCH   9  21
HETATM   21  C   UNL     1     -11.529  16.558  68.600  1.00  0.00    -0.146 C  
BRANCH  21  22
HETATM   22  C   UNL     1     -11.781  14.806  68.474  1.00  0.00    -0.347 C  
HETATM   23  CA  UNL     1     -11.769  13.606  66.979  1.00  0.00    -0.384 C  
HETATM   24  C   UNL     1     -10.488  11.396  66.814  1.00  0.00    -0.244 C  
HETATM   25  C   UNL     1     -12.004  14.206  70.240  1.00  0.00    -0.404 C  
HETATM   26  C   UNL     1     -11.712  13.897  65.091  1.00  0.00    -0.350 C  
HETATM   27  N   UNL     1     -11.750  11.968  67.064  1.00  0.00    -0.312 N  
HETATM   28  O   UNL     1      -9.508  11.739  66.165  1.00  0.00    -0.218 OA 
HETATM   29  S   UNL     1     -12.135  11.976  70.507  1.00  0.00    -0.202 SA 
HETATM   30  C   UNL     1     -11.902  11.110  68.437  1.00  0.00    -0.232 C  
HETATM   31  O   UNL     1     -12.339  14.914  64.648  1.00  0.00    -0.399 OA 
HETATM   32  OXT UNL     1     -11.237  12.909  64.476  1.00  0.00    -0.307 OA 
HETATM   33  CA  UNL     1     -10.441  10.598  68.122  1.00  0.00    -0.185 C  
BRANCH  33  34
HETATM   34  N   UNL     1      -9.280  10.991  68.991  1.00  0.00    -0.345 N  
HETATM   35  C   UNL     1      -8.195  10.249  69.479  1.00  0.00    -0.155 C  
HETATM   36  H   UNL     1      -9.282  11.971  69.277  1.00  0.00     0.000 HD 
HETATM   37  O   UNL     1      -7.396  10.904  70.149  1.00  0.00    -0.066 OA 
BRANCH  35  38
HETATM   38  C   UNL     1      -7.897   8.705  69.233  1.00  0.00    -0.101 C  
HETATM   39  C   UNL     1      -7.517   8.198  67.935  1.00  0.00    -0.098 C  
HETATM   40  C   UNL     1      -6.691   6.673  65.350  1.00  0.00    -0.050 C  
HETATM   41  N   UNL     1      -7.191   9.480  66.968  1.00  0.00    -0.086 NA 
HETATM   42  N   UNL     1      -5.937   5.892  64.519  1.00  0.00    -0.025 NA 
HETATM   43  H   UNL     1      -7.261   5.644  67.494  1.00  0.00     0.000 HD 
HETATM   44  S   UNL     1      -6.653   8.925  64.690  1.00  0.00    -0.066 SA 
HETATM   45  H1  UNL     1      -5.953   4.914  64.805  1.00  0.00     0.000 HD 
HETATM   46  H2  UNL     1      -5.422   6.245  63.712  1.00  0.00     0.000 HD 
HETATM   47  N   UNL     1      -7.171   6.546  67.026  1.00  0.00    -0.076 NA 
BRANCH  38  48
HETATM   48  N   UNL     1      -7.806   7.803  70.148  1.00  0.00    -0.094 NA 
HETATM   49  H   UNL     1      -7.263   6.956  69.980  1.00  0.00     0.000 HD 
BRANCH  48  50
HETATM   50  O   UNL     1      -8.438   7.987  71.340  1.00  0.00    -0.108 OA 
HETATM   51  O   UNL     1     -11.527   6.328  70.839  1.00  0.00    -0.327 OA 
HETATM   52  C   UNL     1     -10.646   7.166  70.981  1.00  0.00    -0.221 C  
HETATM   53  C   UNL     1      -9.480   6.833  73.092  1.00  0.00    -0.166 C  
HETATM   54  C   UNL     1      -8.987   5.482  70.788  1.00  0.00    -0.157 C  
HETATM   55  C   UNL     1      -9.287   6.833  71.571  1.00  0.00    -0.153 C  
HETATM   56  O   UNL     1     -10.806   8.457  70.628  1.00  0.00    -0.222 OA 
ENDBRANCH  48  50
ENDBRANCH  38  48
ENDBRANCH  35  38
ENDBRANCH  33  34
ENDBRANCH  21  22
ENDBRANCH   9  21
TORSDOF 11
ENDMDL
