MODEL        9
REMARK 921   NORMALIZED FREE ENERGY PREDICTED BY IDOCK:   -7.61 KCAL/MOL
REMARK 922        TOTAL FREE ENERGY PREDICTED BY IDOCK:  -12.70 KCAL/MOL
REMARK 923 INTER-LIGAND FREE ENERGY PREDICTED BY IDOCK:  -11.24 KCAL/MOL
REMARK 924 INTRA-LIGAND FREE ENERGY PREDICTED BY IDOCK:   -1.46 KCAL/MOL
REMARK 927      BINDING AFFINITY PREDICTED BY RF-SCORE:    0.00 PKD
ROOT
HETATM    1  C   UNL     1     -10.228  10.173  66.967  1.00  0.00    -0.290 C  
HETATM    2  C   UNL     1      -9.669  11.032  68.099  1.00  0.00    -0.174 C  
ENDROOT
BRANCH   2   3
HETATM    3  O   UNL     1     -10.203  12.354  68.056  1.00  0.00    -0.206 OA 
BRANCH   3   4
HETATM    4  C   UNL     1      -9.322  13.323  67.466  1.00  0.00    -0.218 C  
BRANCH   4   5
HETATM    5  C   UNL     1     -10.146  14.277  66.531  1.00  0.00    -0.278 C  
HETATM    6  C   UNL     1      -9.520  16.971  67.689  1.00  0.00    -0.236 C  
HETATM    7  C   UNL     1     -10.561  16.050  68.344  1.00  0.00    -0.270 C  
HETATM    8  N   UNL     1      -8.809  17.701  68.714  1.00  0.00    -0.252 NA 
HETATM    9  H   UNL     1      -9.685  15.767  65.150  1.00  0.00     0.000 HD 
HETATM   10  C   UNL     1     -11.192  15.081  67.342  1.00  0.00    -0.337 C  
HETATM   11  O   UNL     1      -7.913  19.786  69.054  1.00  0.00    -0.274 OA 
HETATM   12  C   UNL     1      -8.538  16.144  66.819  1.00  0.00    -0.247 C  
HETATM   13  C   UNL     1     -10.185  18.090  66.863  1.00  0.00    -0.366 C  
HETATM   14  C   UNL     1      -8.619  19.027  68.415  1.00  0.00    -0.348 C  
HETATM   15  C   UNL     1      -9.398  19.364  67.177  1.00  0.00    -0.390 C  
HETATM   16  N   UNL     1      -9.207  15.238  65.880  1.00  0.00    -0.281 NA 
BRANCH   5  17
HETATM   17  C   UNL     1     -10.911  13.472  65.445  1.00  0.00    -0.300 A  
HETATM   18  C   UNL     1     -12.340  12.032  63.468  1.00  0.00    -0.661 A  
HETATM   19  C   UNL     1     -13.013  12.583  64.554  1.00  0.00    -0.215 A  
HETATM   20  C   UNL     1     -12.304  13.290  65.532  1.00  0.00    -0.533 A  
HETATM   21  C   UNL     1     -10.254  12.870  64.355  1.00  0.00    -0.342 A  
HETATM   22  C   UNL     1     -10.962  12.168  63.373  1.00  0.00    -0.480 A  
ENDBRANCH   5  17
ENDBRANCH   4   5
ENDBRANCH   3   4
ENDBRANCH   2   3
BRANCH   2  23
HETATM   23  C   UNL     1     -10.034  10.400  69.434  1.00  0.00    -0.240 A  
HETATM   24  F   UNL     1      -7.250   7.901  71.293  1.00  0.00    -0.054 F  
HETATM   25  C   UNL     1      -9.108   9.568  70.082  1.00  0.00    -0.276 A  
HETATM   26  F   UNL     1     -14.025   9.723  70.903  1.00  0.00    -0.360 F  
HETATM   27  C   UNL     1      -9.437   8.898  71.270  1.00  0.00    -0.343 A  
HETATM   28  C   UNL     1     -10.717   9.076  71.819  1.00  0.00    -0.437 A  
HETATM   29  F   UNL     1     -13.307  11.388  72.106  1.00  0.00    -0.582 F  
HETATM   30  C   UNL     1      -8.445   7.979  71.944  1.00  0.00    -0.136 C  
HETATM   31  F   UNL     1     -13.261   9.367  72.907  1.00  0.00    -0.429 F  
HETATM   32  C   UNL     1     -13.045  10.094  71.774  1.00  0.00    -0.463 C  
HETATM   33  F   UNL     1      -8.154   8.367  73.215  1.00  0.00    -0.219 F  
HETATM   34  F   UNL     1      -8.902   6.701  72.034  1.00  0.00    -0.133 F  
HETATM   35  C   UNL     1     -11.307  10.564  70.005  1.00  0.00    -0.392 A  
HETATM   36  C   UNL     1     -11.661   9.909  71.197  1.00  0.00    -0.478 A  
ENDBRANCH   2  23
TORSDOF 5
ENDMDL
