MODEL       71
REMARK 921   NORMALIZED FREE ENERGY PREDICTED BY IDOCK:   -4.45 KCAL/MOL
REMARK 922        TOTAL FREE ENERGY PREDICTED BY IDOCK:   -5.71 KCAL/MOL
REMARK 923 INTER-LIGAND FREE ENERGY PREDICTED BY IDOCK:   -5.16 KCAL/MOL
REMARK 924 INTRA-LIGAND FREE ENERGY PREDICTED BY IDOCK:   -0.55 KCAL/MOL
REMARK 927      BINDING AFFINITY PREDICTED BY RF-SCORE:    0.00 PKD
ROOT
HETATM    1  C   UNL     1     -10.756  18.529  65.867  1.00  0.00    -0.237 C  
HETATM    2  C   UNL     1      -9.665  18.052  66.788  1.00  0.00    -0.323 A  
HETATM    3  C   UNL     1      -8.472  18.795  66.815  1.00  0.00    -0.292 A  
HETATM    4  C   UNL     1      -7.381  18.469  67.632  1.00  0.00    -0.223 A  
HETATM    5  C   UNL     1      -8.732  15.298  69.281  1.00  0.00    -0.237 C  
HETATM    6  C   UNL     1      -7.518  17.317  68.421  1.00  0.00    -0.234 A  
HETATM    7  C   UNL     1      -9.792  16.901  67.596  1.00  0.00    -0.259 A  
HETATM    8  C   UNL     1      -8.698  16.536  68.420  1.00  0.00    -0.218 A  
ENDROOT
BRANCH   4   9
HETATM    9  C   UNL     1      -6.099  19.327  67.620  1.00  0.00    -0.216 C  
HETATM   10  C   UNL     1      -5.143  18.961  68.784  1.00  0.00    -0.188 C  
HETATM   11  C   UNL     1      -6.480  20.814  67.764  1.00  0.00    -0.380 C  
HETATM   12  C   UNL     1      -5.280  19.153  66.322  1.00  0.00    -0.163 C  
ENDBRANCH   4   9
BRANCH   7  13
HETATM   13  C   UNL     1     -11.032  16.024  67.509  1.00  0.00    -0.261 C  
BRANCH  13  14
HETATM   14  C   UNL     1     -11.062  14.926  66.466  1.00  0.00    -0.341 A  
HETATM   15  N   UNL     1     -12.098  14.127  66.405  1.00  0.00    -0.441 NA 
HETATM   16  C   UNL     1     -11.824  13.215  65.263  1.00  0.00    -0.365 A  
HETATM   17  H   UNL     1     -12.918  14.130  67.012  1.00  0.00     0.000 HD 
HETATM   18  C   UNL     1     -10.461  13.609  64.687  1.00  0.00    -0.423 A  
HETATM   19  N   UNL     1     -10.099  14.740  65.508  1.00  0.00    -0.360 NA 
ENDBRANCH  13  14
ENDBRANCH   7  13
TORSDOF 3
ENDMDL
