MODEL       22
REMARK 921   NORMALIZED FREE ENERGY PREDICTED BY IDOCK:   -5.96 KCAL/MOL
REMARK 922        TOTAL FREE ENERGY PREDICTED BY IDOCK:  -15.32 KCAL/MOL
REMARK 923 INTER-LIGAND FREE ENERGY PREDICTED BY IDOCK:  -13.14 KCAL/MOL
REMARK 924 INTRA-LIGAND FREE ENERGY PREDICTED BY IDOCK:   -2.17 KCAL/MOL
REMARK 927      BINDING AFFINITY PREDICTED BY RF-SCORE:    0.00 PKD
ROOT
HETATM    1  O   UNL     1     -10.200   8.589  72.363  1.00  0.00    -0.312 OA 
HETATM    2  C   UNL     1     -10.890   7.668  73.163  1.00  0.00    -0.382 C  
HETATM    3  H   UNL     1     -10.113   9.414  72.827  1.00  0.00     0.000 HD 
ENDROOT
BRANCH   2   4
HETATM    4  C   UNL     1     -11.030   6.333  72.413  1.00  0.00    -0.254 C  
HETATM    5  O   UNL     1     -11.519   5.353  73.294  1.00  0.00    -0.480 OA 
HETATM    6  H   UNL     1     -11.605   4.528  72.830  1.00  0.00     0.000 HD 
BRANCH   4   7
HETATM    7  C   UNL     1     -11.986   6.459  71.198  1.00  0.00    -0.210 C  
HETATM    8  H   UNL     1     -13.347   7.704  70.581  1.00  0.00     0.000 HD 
HETATM    9  O   UNL     1     -12.761   7.627  71.324  1.00  0.00    -0.321 OA 
BRANCH   7  10
HETATM   10  C   UNL     1     -11.213   6.509  69.853  1.00  0.00    -0.395 C  
HETATM   11  H   UNL     1      -9.961   5.373  68.920  1.00  0.00     0.000 HD 
HETATM   12  O   UNL     1     -10.434   5.342  69.744  1.00  0.00    -0.284 OA 
BRANCH  10  13
HETATM   13  C   UNL     1     -10.285   7.748  69.718  1.00  0.00    -0.211 C  
HETATM   14  H   UNL     1      -8.375   8.093  69.645  1.00  0.00     0.000 HD 
HETATM   15  O   UNL     1      -8.943   7.336  69.727  1.00  0.00    -0.142 OA 
BRANCH  13  16
HETATM   16  C   UNL     1     -10.520   8.539  68.453  1.00  0.00    -0.171 C  
HETATM   17  O   UNL     1     -10.716   9.742  68.519  1.00  0.00    -0.217 OA 
BRANCH  16  18
HETATM   18  O   UNL     1     -10.527   7.937  67.247  1.00  0.00    -0.275 OA 
BRANCH  18  19
HETATM   19 CA   UNL     1     -10.423   9.298  65.249  1.00  0.00    -0.355 Ca 
BRANCH  19  20
HETATM   20  O   UNL     1     -10.318  10.659  63.251  1.00  0.00    -0.210 OA 
BRANCH  20  21
HETATM   21  C   UNL     1     -10.604  11.931  63.579  1.00  0.00    -0.453 C  
HETATM   22  O   UNL     1      -9.769  12.785  63.334  1.00  0.00    -0.031 OA 
BRANCH  21  23
HETATM   23  C   UNL     1     -11.834  12.289  64.383  1.00  0.00    -0.388 C  
HETATM   24  H   UNL     1     -13.744  12.227  64.112  1.00  0.00     0.000 HD 
HETATM   25  O   UNL     1     -12.972  12.002  63.607  1.00  0.00    -0.747 OA 
BRANCH  23  26
HETATM   26  C   UNL     1     -11.897  13.776  64.847  1.00  0.00    -0.375 C  
HETATM   27  H   UNL     1     -13.274  15.044  65.353  1.00  0.00     0.000 HD 
HETATM   28  O   UNL     1     -13.236  14.138  65.070  1.00  0.00    -0.691 OA 
BRANCH  26  29
HETATM   29  C   UNL     1     -11.029  14.180  66.089  1.00  0.00    -0.309 C  
BRANCH  29  30
HETATM   30  O   UNL     1     -11.941  14.573  67.105  1.00  0.00    -0.406 OA 
BRANCH  30  31
HETATM   31  C   UNL     1     -11.562  14.255  68.429  1.00  0.00    -0.320 C  
HETATM   32  O   UNL     1     -12.328  13.161  68.906  1.00  0.00    -0.147 OA 
HETATM   33  C   UNL     1     -11.946  12.821  70.230  1.00  0.00    -0.280 C  
HETATM   34  H   UNL     1     -11.271  17.390  69.356  1.00  0.00     0.000 HD 
HETATM   35  C   UNL     1     -12.312  13.972  71.203  1.00  0.00    -0.365 C  
HETATM   36  O   UNL     1     -13.695  14.227  71.168  1.00  0.00    -0.315 OA 
HETATM   37  C   UNL     1     -11.539  15.235  70.771  1.00  0.00    -0.333 C  
HETATM   38  O   UNL     1     -11.102  16.619  68.828  1.00  0.00    -0.325 OA 
HETATM   39  H   UNL     1     -13.919  14.932  71.764  1.00  0.00     0.000 HD 
HETATM   40  O   UNL     1     -11.905  16.356  71.538  1.00  0.00    -0.639 OA 
HETATM   41  C   UNL     1     -11.839  15.513  69.289  1.00  0.00    -0.353 C  
HETATM   42  H   UNL     1     -11.428  17.134  71.272  1.00  0.00     0.000 HD 
BRANCH  33  43
HETATM   43  C   UNL     1     -12.645  11.504  70.601  1.00  0.00    -0.248 C  
HETATM   44  O   UNL     1     -11.755  10.608  71.210  1.00  0.00    -0.261 OA 
HETATM   45  H   UNL     1     -12.187   9.795  71.440  1.00  0.00     0.000 HD 
ENDBRANCH  33  43
ENDBRANCH  30  31
ENDBRANCH  29  30
BRANCH  29  46
HETATM   46  C   UNL     1      -9.928  15.268  65.832  1.00  0.00    -0.340 C  
HETATM   47  O   UNL     1      -8.932  15.223  66.828  1.00  0.00    -0.224 OA 
HETATM   48  H   UNL     1      -8.266  15.881  66.673  1.00  0.00     0.000 HD 
BRANCH  46  49
HETATM   49  C   UNL     1     -10.463  16.700  65.605  1.00  0.00    -0.297 C  
HETATM   50  H   UNL     1     -11.417  17.687  64.212  1.00  0.00     0.000 HD 
HETATM   51  O   UNL     1     -11.088  16.806  64.352  1.00  0.00    -1.072 OA 
ENDBRANCH  46  49
ENDBRANCH  29  46
ENDBRANCH  26  29
ENDBRANCH  23  26
ENDBRANCH  21  23
ENDBRANCH  20  21
ENDBRANCH  19  20
ENDBRANCH  18  19
ENDBRANCH  16  18
ENDBRANCH  13  16
ENDBRANCH  10  13
ENDBRANCH   7  10
ENDBRANCH   4   7
ENDBRANCH   2   4
TORSDOF 17
ENDMDL
