MODEL       18
REMARK 921   NORMALIZED FREE ENERGY PREDICTED BY IDOCK:   -6.16 KCAL/MOL
REMARK 922        TOTAL FREE ENERGY PREDICTED BY IDOCK:  -13.04 KCAL/MOL
REMARK 923 INTER-LIGAND FREE ENERGY PREDICTED BY IDOCK:  -11.67 KCAL/MOL
REMARK 924 INTRA-LIGAND FREE ENERGY PREDICTED BY IDOCK:   -1.37 KCAL/MOL
REMARK 927      BINDING AFFINITY PREDICTED BY RF-SCORE:    0.00 PKD
ROOT
HETATM    1  C   UNL     1     -10.857  10.008  69.062  1.00  0.00    -0.222 C  
HETATM    2  C   UNL     1      -9.479  10.665  69.084  1.00  0.00    -0.185 C  
ENDROOT
BRANCH   1   3
HETATM    3  C   UNL     1     -10.820   8.497  69.252  1.00  0.00    -0.056 C  
BRANCH   3   4
HETATM    4  N   UNL     1     -10.978   8.025  70.602  1.00  0.00    -0.242 NA 
HETATM    5  C   UNL     1     -10.730   6.736  70.961  1.00  0.00    -0.231 A  
HETATM    6  N   UNL     1     -10.340   4.417  72.199  1.00  0.00    -0.174 NA 
HETATM    7  C   UNL     1     -11.217   8.740  71.741  1.00  0.00    -0.340 A  
HETATM    8  N   UNL     1     -10.759   5.323  74.337  1.00  0.00    -0.396 NA 
HETATM    9  N   UNL     1     -10.412   5.710  70.156  1.00  0.00    -0.271 NA 
HETATM   10  C   UNL     1     -10.645   5.491  72.962  1.00  0.00    -0.239 A  
HETATM   11  N   UNL     1     -11.185   7.977  72.811  1.00  0.00    -0.400 NA 
HETATM   12  C   UNL     1     -10.229   4.587  70.863  1.00  0.00    -0.099 A  
HETATM   13  C   UNL     1     -10.858   6.724  72.336  1.00  0.00    -0.238 A  
HETATM   14  H1  UNL     1     -10.603   4.425  74.793  1.00  0.00     0.000 HD 
HETATM   15  H2  UNL     1     -11.684   5.652  74.612  1.00  0.00     0.000 HD 
ENDBRANCH   3   4
ENDBRANCH   1   3
BRANCH   1  16
HETATM   16  O   UNL     1     -11.545  10.429  67.865  1.00  0.00    -0.406 OA 
BRANCH  16  17
HETATM   17  C   UNL     1     -10.716  10.975  66.810  1.00  0.00    -0.266 C  
HETATM   18  O   UNL     1     -12.231  11.925  65.216  1.00  0.00    -0.357 OA 
HETATM   19  O   UNL     1     -12.089  12.928  67.631  1.00  0.00    -0.325 OA 
HETATM   20  P   UNL     1     -11.299  12.606  66.221  1.00  0.00    -0.368 P  
HETATM   21  O   UNL     1     -11.850  14.149  65.665  1.00  0.00    -0.351 OA 
BRANCH  19  22
HETATM   22  C   UNL     1     -11.440  13.660  68.648  1.00  0.00    -0.307 C  
BRANCH  22  23
HETATM   23  O   UNL     1     -12.120  14.887  68.942  1.00  0.00    -0.273 OA 
BRANCH  23  24
HETATM   24  C   UNL     1     -11.625  15.550  70.017  1.00  0.00    -0.341 C  
HETATM   25  O   UNL     1     -10.446  15.813  70.212  1.00  0.00    -0.308 OA 
BRANCH  24  26
HETATM   26  O   UNL     1     -12.647  15.861  70.858  1.00  0.00    -0.427 OA 
BRANCH  26  27
HETATM   27  C   UNL     1     -12.633  15.169  72.126  1.00  0.00    -0.332 C  
HETATM   28  C   UNL     1     -13.541  15.906  73.104  1.00  0.00    -0.580 C  
HETATM   29  C   UNL     1     -13.121  13.738  71.925  1.00  0.00    -0.474 C  
ENDBRANCH  26  27
ENDBRANCH  24  26
ENDBRANCH  23  24
ENDBRANCH  22  23
ENDBRANCH  19  22
BRANCH  21  30
HETATM   30  C   UNL     1     -10.863  14.851  64.940  1.00  0.00    -0.413 C  
BRANCH  30  31
HETATM   31  O   UNL     1     -10.296  15.908  65.710  1.00  0.00    -0.331 OA 
BRANCH  31  32
HETATM   32  C   UNL     1     -10.543  17.144  65.218  1.00  0.00    -0.043 C  
HETATM   33  O   UNL     1     -11.389  17.422  64.377  1.00  0.00    -0.949 OA 
BRANCH  32  34
HETATM   34  O   UNL     1      -9.736  18.023  65.862  1.00  0.00    -0.530 OA 
BRANCH  34  35
HETATM   35  C   UNL     1     -10.372  19.199  66.401  1.00  0.00    -0.455 C  
HETATM   36  C   UNL     1      -9.340  20.323  66.389  1.00  0.00    -0.391 C  
HETATM   37  C   UNL     1     -10.847  18.942  67.827  1.00  0.00    -0.349 C  
ENDBRANCH  34  35
ENDBRANCH  32  34
ENDBRANCH  31  32
ENDBRANCH  30  31
ENDBRANCH  21  30
ENDBRANCH  16  17
ENDBRANCH   1  16
TORSDOF 14
ENDMDL
