MODEL      221
REMARK 921   NORMALIZED FREE ENERGY PREDICTED BY IDOCK:   28.26 KCAL/MOL
REMARK 922        TOTAL FREE ENERGY PREDICTED BY IDOCK:   34.22 KCAL/MOL
REMARK 923 INTER-LIGAND FREE ENERGY PREDICTED BY IDOCK:   22.11 KCAL/MOL
REMARK 924 INTRA-LIGAND FREE ENERGY PREDICTED BY IDOCK:   12.11 KCAL/MOL
REMARK 927      BINDING AFFINITY PREDICTED BY RF-SCORE:    0.00 PKD
ROOT
HETATM    1  O   UNL     1      -9.503  18.748  67.649  1.00  0.00    -0.294 OA 
HETATM    2  S   UNL     1      -9.208  18.426  69.199  1.00  0.00     0.140 S  
HETATM    3  N   UNL     2     -10.302  16.406  64.809  1.00  0.00    -0.435 NA 
HETATM    4  H1  UNL     2     -10.793  17.262  65.067  1.00  0.00     0.000 HD 
HETATM    5  H2  UNL     2      -9.632  16.383  64.040  1.00  0.00     0.000 HD 
HETATM    6  C   UNL     2     -10.582  15.310  65.533  1.00  0.00    -0.373 C  
HETATM    7  N   UNL     3      -7.796  16.686  66.567  1.00  0.00    -0.280 NA 
HETATM    8  O   UNL     1      -7.605  18.388  69.191  1.00  0.00    -0.210 OA 
HETATM    9  O   UNL     1      -9.662  19.554  69.977  1.00  0.00     0.147 OA 
HETATM   10  O   UNL     1      -9.668  17.087  69.441  1.00  0.00    -0.132 OA 
HETATM   11  C   UNL     3      -7.509  15.651  67.387  1.00  0.00    -0.205 C  
HETATM   12  H1  UNL     3      -7.236  17.538  66.523  1.00  0.00     0.000 HD 
HETATM   13  H2  UNL     3      -8.614  16.612  65.962  1.00  0.00     0.000 HD 
HETATM   14  N   UNL     2     -11.270  15.435  66.673  1.00  0.00    -0.238 NA 
HETATM   15  N   UNL     2      -9.964  14.232  65.208  1.00  0.00    -0.550 NA 
HETATM   16  H2  UNL     2      -9.293  14.209  64.439  1.00  0.00     0.000 HD 
HETATM   17  H   UNL     2     -11.276  14.607  67.270  1.00  0.00     0.000 HD 
HETATM   18  N   UNL     3      -8.210  14.583  67.443  1.00  0.00    -0.190 NA 
HETATM   19  N   UNL     3      -6.462  15.879  68.212  1.00  0.00    -0.115 NA 
HETATM   20  H2  UNL     3      -9.027  14.508  66.838  1.00  0.00     0.000 HD 
HETATM   21  H1  UNL     2     -10.176  13.399  65.757  1.00  0.00     0.000 HD 
HETATM   22  H1  UNL     3      -7.994  13.802  68.062  1.00  0.00     0.000 HD 
HETATM   23  H   UNL     3      -6.169  16.821  68.469  1.00  0.00     0.000 HD 
ENDROOT
BRANCH  14  24
HETATM   24  C   UNL     2     -12.010  16.572  67.189  1.00  0.00     1.418 C  
BRANCH  24  25
HETATM   25  C   UNL     2     -11.689  17.820  66.385  1.00  0.00     2.409 A  
HETATM   26  I   UNL     2      -8.176  20.273  65.569  1.00  0.00     1.195 I  
HETATM   27  C   UNL     2     -12.694  18.489  65.665  1.00  0.00    10.345 A  
HETATM   28  C   UNL     2     -10.377  18.331  66.338  1.00  0.00    -0.418 A  
HETATM   29  C   UNL     2     -12.422  19.669  64.977  1.00  0.00     8.182 A  
HETATM   30  C   UNL     2     -10.108  19.502  65.626  1.00  0.00    -0.087 A  
HETATM   31  C   UNL     2     -11.128  20.179  64.955  1.00  0.00     0.689 A  
ENDBRANCH  24  25
ENDBRANCH  14  24
BRANCH  19  32
HETATM   32  C   UNL     3      -5.778  14.692  68.710  1.00  0.00    -0.086 C  
BRANCH  32  33
HETATM   33  C   UNL     3      -6.015  13.484  67.851  1.00  0.00    -0.143 A  
HETATM   34  C   UNL     3      -6.228  11.008  66.535  1.00  0.00    -0.133 A  
HETATM   35  C   UNL     3      -7.001  12.569  68.218  1.00  0.00    -0.089 A  
HETATM   36  I   UNL     3      -8.462   9.934  68.275  1.00  0.00    -0.115 I  
HETATM   37  C   UNL     3      -5.282  11.939  66.111  1.00  0.00     0.525 A  
HETATM   38  C   UNL     3      -7.089  11.331  67.582  1.00  0.00    -0.090 A  
HETATM   39  C   UNL     3      -5.169  13.168  66.768  1.00  0.00     1.243 A  
ENDBRANCH  32  33
ENDBRANCH  19  32
TORSDOF 4
ENDMDL
