MODEL      211
REMARK 921   NORMALIZED FREE ENERGY PREDICTED BY IDOCK:   -3.18 KCAL/MOL
REMARK 922        TOTAL FREE ENERGY PREDICTED BY IDOCK:   -3.90 KCAL/MOL
REMARK 923 INTER-LIGAND FREE ENERGY PREDICTED BY IDOCK:   -4.15 KCAL/MOL
REMARK 924 INTRA-LIGAND FREE ENERGY PREDICTED BY IDOCK:    0.25 KCAL/MOL
REMARK 927      BINDING AFFINITY PREDICTED BY RF-SCORE:    0.00 PKD
ROOT
HETATM    1  N   UNL     1     -11.649  12.400  66.820  1.00  0.00    -0.390 NA 
HETATM    2  C   UNL     1     -10.420  13.024  66.975  1.00  0.00    -0.247 A  
HETATM    3  H1  UNL     1     -11.791  11.403  66.983  1.00  0.00     0.000 HD 
HETATM    4  H2  UNL     1     -11.978  12.604  65.876  1.00  0.00     0.000 HD 
HETATM    5  C   UNL     1     -10.224  14.399  66.750  1.00  0.00    -0.270 A  
HETATM    6  N   UNL     1     -11.073  15.402  66.336  1.00  0.00    -0.281 NA 
HETATM    7  C   UNL     1     -10.330  16.490  66.334  1.00  0.00    -0.311 A  
HETATM    8  N   UNL     1      -9.033  16.231  66.692  1.00  0.00    -0.227 NA 
HETATM    9  C   UNL     1      -8.947  14.892  66.966  1.00  0.00    -0.236 A  
HETATM   10  N   UNL     1      -9.363  12.273  67.354  1.00  0.00    -0.178 NA 
HETATM   11  N   UNL     1      -7.867  14.199  67.359  1.00  0.00    -0.186 NA 
HETATM   12 CL   UNL     1      -6.883  11.892  68.010  1.00  0.00    -0.067 Cl 
HETATM   13  C   UNL     1      -8.182  12.896  67.526  1.00  0.00    -0.184 A  
ENDROOT
BRANCH   8  14
HETATM   14  C1* UNL     1      -7.949  17.185  66.820  1.00  0.00    -0.235 C  
HETATM   15  C2* UNL     1      -8.120  18.171  67.967  1.00  0.00    -0.264 C  
HETATM   16  C4* UNL     1      -5.893  17.306  67.935  1.00  0.00    -0.123 C  
HETATM   17  C3* UNL     1      -6.693  18.576  68.236  1.00  0.00    -0.224 C  
HETATM   18  O3* UNL     1      -6.329  19.596  67.301  1.00  0.00    -0.190 OA 
HETATM   19  O4* UNL     1      -6.716  16.481  67.074  1.00  0.00    -0.175 OA 
HETATM   20  H3* UNL     1      -5.430  19.851  67.471  1.00  0.00     0.000 HD 
BRANCH  16  21
HETATM   21  C5* UNL     1      -5.555  16.494  69.187  1.00  0.00    -0.133 C  
HETATM   22  O5* UNL     1      -5.456  17.331  70.335  1.00  0.00    -0.232 OA 
HETATM   23  H5* UNL     1      -5.245  16.827  71.112  1.00  0.00     0.000 HD 
ENDBRANCH  16  21
ENDBRANCH   8  14
TORSDOF 2
ENDMDL
