MODEL      166
REMARK 921   NORMALIZED FREE ENERGY PREDICTED BY IDOCK:   -1.25 KCAL/MOL
REMARK 922        TOTAL FREE ENERGY PREDICTED BY IDOCK:   -1.93 KCAL/MOL
REMARK 923 INTER-LIGAND FREE ENERGY PREDICTED BY IDOCK:   -1.87 KCAL/MOL
REMARK 924 INTRA-LIGAND FREE ENERGY PREDICTED BY IDOCK:   -0.06 KCAL/MOL
REMARK 927      BINDING AFFINITY PREDICTED BY RF-SCORE:    0.00 PKD
ROOT
HETATM    1  O   UNL     1     -11.488  18.189  64.559  1.00  0.00     0.334 OA 
HETATM    2  C   UNL     1     -11.600  16.902  64.939  1.00  0.00     0.772 C  
HETATM    3  O   UNL     1     -12.515  16.148  64.681  1.00  0.00     0.314 OA 
HETATM    4  C   UNL     1     -10.377  16.466  65.754  1.00  0.00    -0.369 C  
HETATM    5  O   UNL     1      -9.547  17.337  65.991  1.00  0.00    -0.455 OA 
HETATM    6  N   UNL     1     -10.351  15.119  66.076  1.00  0.00    -0.293 N  
HETATM    7  H   UNL     1     -11.135  14.551  65.754  1.00  0.00     0.000 HD 
ENDROOT
BRANCH   6   8
HETATM    8  C   UNL     1      -9.335  14.455  66.813  1.00  0.00    -0.268 A  
HETATM    9  C   UNL     1      -8.446  15.182  67.612  1.00  0.00    -0.171 A  
HETATM   10  C   UNL     1      -7.419  14.542  68.301  1.00  0.00    -0.120 A  
HETATM   11  C   UNL     1      -6.506  15.306  69.088  1.00  0.00    -0.122 C  
HETATM   12  C   UNL     1      -7.273  13.159  68.215  1.00  0.00    -0.107 A  
HETATM   13  C   UNL     1      -8.166  12.384  67.466  1.00  0.00    -0.173 A  
HETATM   14  N   UNL     1      -5.763  15.925  69.729  1.00  0.00    -0.132 NA 
HETATM   15  C   UNL     1      -9.202  13.044  66.760  1.00  0.00    -0.228 A  
HETATM   16 CL   UNL     1     -10.324  12.114  65.816  1.00  0.00    -0.278 Cl 
BRANCH  13  17
HETATM   17  N   UNL     1      -8.004  10.973  67.388  1.00  0.00    -0.116 N  
HETATM   18  C   UNL     1      -7.286  10.290  66.421  1.00  0.00    -0.113 C  
HETATM   19  H   UNL     1      -8.457  10.414  68.110  1.00  0.00     0.000 HD 
HETATM   20  O   UNL     1      -6.582  10.736  65.521  1.00  0.00    -0.094 OA 
HETATM   21  C   UNL     1      -7.368   8.760  66.514  1.00  0.00    -0.081 C  
HETATM   22  O   UNL     1      -6.608   8.182  65.562  1.00  0.00    -0.048 OA 
HETATM   23  O   UNL     1      -8.042   8.190  67.348  1.00  0.00    -0.118 OA 
ENDBRANCH  13  17
ENDBRANCH   6   8
TORSDOF 2
ENDMDL
