MODEL      109
REMARK 921   NORMALIZED FREE ENERGY PREDICTED BY IDOCK:   -4.31 KCAL/MOL
REMARK 922        TOTAL FREE ENERGY PREDICTED BY IDOCK:   -4.91 KCAL/MOL
REMARK 923 INTER-LIGAND FREE ENERGY PREDICTED BY IDOCK:   -4.92 KCAL/MOL
REMARK 924 INTRA-LIGAND FREE ENERGY PREDICTED BY IDOCK:    0.02 KCAL/MOL
REMARK 927      BINDING AFFINITY PREDICTED BY RF-SCORE:    0.00 PKD
ROOT
HETATM    1  N   UNL     1     -13.067  14.025  65.757  1.00  0.00    -0.587 NA 
HETATM    2  C   UNL     1     -12.269  13.047  65.164  1.00  0.00    -0.459 A  
HETATM    3  H1  UNL     1     -12.967  14.231  66.751  1.00  0.00     0.000 HD 
HETATM    4  H2  UNL     1     -14.044  13.802  65.570  1.00  0.00     0.000 HD 
HETATM    5  C   UNL     1     -12.406  12.764  63.794  1.00  0.00    -0.533 A  
HETATM    6  C   UNL     1     -11.533  11.885  63.123  1.00  0.00    -0.230 A  
HETATM    7  C   UNL     1     -10.465  11.303  63.798  1.00  0.00    -0.459 A  
HETATM    8  C   UNL     1     -10.309  11.636  65.130  1.00  0.00    -0.326 A  
HETATM    9  C   UNL     1     -11.176  12.496  65.812  1.00  0.00    -0.356 A  
HETATM   10  C   UNL     1     -10.700  12.669  67.218  1.00  0.00    -0.237 C  
HETATM   11  N   UNL     1      -9.549  11.777  67.284  1.00  0.00    -0.175 N  
HETATM   12  O   UNL     1      -8.327  10.478  65.772  1.00  0.00    -0.155 OA 
HETATM   13  C   UNL     1      -9.258  11.207  66.057  1.00  0.00    -0.205 C  
ENDROOT
BRANCH  11  14
HETATM   14  C   UNL     1      -8.648  11.684  68.425  1.00  0.00    -0.156 C  
HETATM   15  C   UNL     1      -7.194  11.952  68.053  1.00  0.00    -0.090 C  
HETATM   16  C   UNL     1      -6.373  12.055  69.332  1.00  0.00    -0.116 C  
HETATM   17  C   UNL     1      -6.534  10.825  70.197  1.00  0.00    -0.155 C  
HETATM   18  O   UNL     1      -5.638  10.422  70.934  1.00  0.00    -0.083 OA 
HETATM   19  N   UNL     1      -7.745  10.180  70.140  1.00  0.00    -0.281 N  
HETATM   20  C   UNL     1      -8.710  10.340  69.168  1.00  0.00    -0.172 C  
HETATM   21  H   UNL     1      -7.951   9.519  70.889  1.00  0.00     0.000 HD 
HETATM   22  O   UNL     1      -9.517   9.446  68.935  1.00  0.00    -0.150 OA 
ENDBRANCH  11  14
TORSDOF 1
ENDMDL
