MODEL        3
REMARK 921   NORMALIZED FREE ENERGY PREDICTED BY IDOCK:   -6.29 KCAL/MOL
REMARK 922        TOTAL FREE ENERGY PREDICTED BY IDOCK:  -11.47 KCAL/MOL
REMARK 923 INTER-LIGAND FREE ENERGY PREDICTED BY IDOCK:  -10.36 KCAL/MOL
REMARK 924 INTRA-LIGAND FREE ENERGY PREDICTED BY IDOCK:   -1.11 KCAL/MOL
REMARK 927      BINDING AFFINITY PREDICTED BY RF-SCORE:    0.00 PKD
ROOT
HETATM    1  C   UNL     1     -14.265   8.515  72.026  1.00  0.00    -0.535 C  
HETATM    2  C   UNL     1     -13.194   9.596  72.071  1.00  0.00    -0.453 C  
ENDROOT
BRANCH   2   3
HETATM    3  N   UNL     1     -11.839   9.074  71.864  1.00  0.00    -0.365 N  
BRANCH   3   4
HETATM    4  C   UNL     1     -11.412   7.931  72.678  1.00  0.00    -0.395 C  
HETATM    5  C   UNL     1     -11.177   6.656  71.889  1.00  0.00    -0.302 C  
ENDBRANCH   3   4
BRANCH   3   6
HETATM    6  C   UNL     1     -11.134   9.570  70.768  1.00  0.00    -0.323 C  
HETATM    7  O   UNL     1      -9.908   9.678  70.778  1.00  0.00    -0.260 OA 
BRANCH   6   8
HETATM    8  N   UNL     1     -11.914   9.885  69.671  1.00  0.00    -0.461 N  
HETATM    9  H   UNL     1     -12.511   9.165  69.266  1.00  0.00     0.000 HD 
BRANCH   8  10
HETATM   10  C   UNL     1     -11.909  11.170  69.097  1.00  0.00    -0.350 A  
HETATM   11  C   UNL     1     -11.792  12.323  69.869  1.00  0.00    -0.383 A  
HETATM   12  C   UNL     1     -11.725  13.577  69.257  1.00  0.00    -0.382 A  
HETATM   13  C   UNL     1     -11.751  13.702  67.861  1.00  0.00    -0.360 A  
HETATM   14  C   UNL     1     -12.010  11.285  67.711  1.00  0.00    -0.014 A  
HETATM   15  C   UNL     1     -11.904  12.540  67.084  1.00  0.00    -0.386 A  
BRANCH  13  16
HETATM   16  O   UNL     1     -11.586  14.895  67.210  1.00  0.00    -0.360 OA 
BRANCH  16  17
HETATM   17  C   UNL     1     -10.285  15.503  67.260  1.00  0.00    -0.260 C  
BRANCH  17  18
HETATM   18  C   UNL     1     -10.042  16.276  65.957  1.00  0.00    -0.356 C  
HETATM   19  H   UNL     1     -10.806  16.285  64.147  1.00  0.00     0.000 HD 
HETATM   20  O   UNL     1     -10.956  15.806  64.954  1.00  0.00    -0.433 OA 
BRANCH  18  21
HETATM   21  C   UNL     1     -10.220  17.800  66.102  1.00  0.00    -0.339 C  
BRANCH  21  22
HETATM   22  N   UNL     1      -8.956  18.544  66.062  1.00  0.00    -0.484 NA 
HETATM   23  C   UNL     1      -8.739  19.475  67.190  1.00  0.00    -0.301 C  
HETATM   24  H   UNL     1      -8.868  19.040  65.175  1.00  0.00     0.000 HD 
HETATM   25  C   UNL     1      -7.414  20.212  66.915  1.00  0.00    -0.320 C  
HETATM   26  C   UNL     1      -8.595  18.725  68.526  1.00  0.00    -0.378 C  
HETATM   27  C   UNL     1      -9.862  20.520  67.290  1.00  0.00    -0.581 C  
ENDBRANCH  21  22
ENDBRANCH  18  21
ENDBRANCH  17  18
ENDBRANCH  16  17
ENDBRANCH  13  16
BRANCH  15  28
HETATM   28  C   UNL     1     -11.878  12.486  65.591  1.00  0.00    -0.438 C  
HETATM   29  O   UNL     1     -12.932  12.625  64.967  1.00  0.00    -0.812 OA 
HETATM   30  C   UNL     1     -10.583  12.320  64.840  1.00  0.00    -0.329 C  
ENDBRANCH  15  28
ENDBRANCH   8  10
ENDBRANCH   6   8
ENDBRANCH   3   6
ENDBRANCH   2   3
TORSDOF 11
ENDMDL
