MODEL      121
REMARK 921   NORMALIZED FREE ENERGY PREDICTED BY IDOCK:   -4.09 KCAL/MOL
REMARK 922        TOTAL FREE ENERGY PREDICTED BY IDOCK:   -8.91 KCAL/MOL
REMARK 923 INTER-LIGAND FREE ENERGY PREDICTED BY IDOCK:   -7.51 KCAL/MOL
REMARK 924 INTRA-LIGAND FREE ENERGY PREDICTED BY IDOCK:   -1.40 KCAL/MOL
REMARK 927      BINDING AFFINITY PREDICTED BY RF-SCORE:    0.00 PKD
ROOT
HETATM    1  C   UNL     1      -8.601  19.654  67.990  1.00  0.00    -0.355 C  
HETATM    2  C   UNL     1      -9.291  19.643  66.638  1.00  0.00    -0.460 C  
ENDROOT
BRANCH   2   3
HETATM    3  C   UNL     1     -10.491  18.703  66.640  1.00  0.00    -0.459 C  
BRANCH   3   4
HETATM    4  C   UNL     1     -10.433  17.737  67.823  1.00  0.00    -0.402 C  
BRANCH   4   5
HETATM    5  C   UNL     1     -10.527  16.304  67.316  1.00  0.00    -0.300 C  
BRANCH   5   6
HETATM    6  C   UNL     1      -9.806  16.083  66.019  1.00  0.00    -0.365 C  
HETATM    7  C   UNL     1     -10.360  15.419  64.993  1.00  0.00    -0.362 C  
BRANCH   7   8
HETATM    8  C   UNL     1     -11.730  14.811  65.028  1.00  0.00    -0.364 C  
BRANCH   8   9
HETATM    9  C   UNL     1     -11.698  13.344  64.726  1.00  0.00    -0.393 C  
HETATM   10  C   UNL     1     -11.815  12.373  65.644  1.00  0.00    -0.468 C  
BRANCH  10  11
HETATM   11  C   UNL     1     -11.899  12.598  67.123  1.00  0.00    -0.399 C  
BRANCH  11  12
HETATM   12  C   UNL     1     -10.662  12.114  67.828  1.00  0.00    -0.241 C  
HETATM   13  C   UNL     1     -10.659  11.343  68.926  1.00  0.00    -0.234 C  
BRANCH  13  14
HETATM   14  C   UNL     1     -11.925  10.886  69.585  1.00  0.00    -0.414 C  
BRANCH  14  15
HETATM   15  C   UNL     1     -12.249  11.628  70.875  1.00  0.00    -0.401 C  
BRANCH  15  16
HETATM   16  C   UNL     1     -13.139  10.746  71.751  1.00  0.00    -0.573 C  
BRANCH  16  17
HETATM   17  C   UNL     1     -13.430   9.410  71.084  1.00  0.00    -0.253 C  
HETATM   18  C   UNL     1     -12.759   8.268  71.809  1.00  0.00    -0.336 C  
HETATM   19  O   UNL     1     -12.061   8.373  72.807  1.00  0.00    -0.354 OA 
HETATM   20  O   UNL     1     -13.011   7.073  71.226  1.00  0.00    -0.378 OA 
ENDBRANCH  16  17
ENDBRANCH  15  16
ENDBRANCH  14  15
ENDBRANCH  13  14
ENDBRANCH  11  12
ENDBRANCH  10  11
ENDBRANCH   8   9
ENDBRANCH   7   8
ENDBRANCH   5   6
ENDBRANCH   4   5
ENDBRANCH   3   4
ENDBRANCH   2   3
TORSDOF 12
ENDMDL
