MODEL       32
REMARK 921   NORMALIZED FREE ENERGY PREDICTED BY IDOCK:   -2.81 KCAL/MOL
REMARK 922        TOTAL FREE ENERGY PREDICTED BY IDOCK:  -10.51 KCAL/MOL
REMARK 923 INTER-LIGAND FREE ENERGY PREDICTED BY IDOCK:   -9.42 KCAL/MOL
REMARK 924 INTRA-LIGAND FREE ENERGY PREDICTED BY IDOCK:   -1.09 KCAL/MOL
REMARK 927      BINDING AFFINITY PREDICTED BY RF-SCORE:    0.00 PKD
ROOT
HETATM    1  C   UNL     1      -9.384   2.971  69.120  1.00  0.00    -0.149 C  
HETATM    2  O   UNL     1      -9.773   4.333  68.917  1.00  0.00    -0.168 OA 
ENDROOT
BRANCH   2   3
HETATM    3  C   UNL     1      -8.754   5.219  68.784  1.00  0.00    -0.090 C  
HETATM    4  N   UNL     1      -8.068   4.934  67.645  1.00  0.00    -0.094 N  
HETATM    5  O   UNL     1      -8.460   6.095  69.585  1.00  0.00    -0.124 OA 
HETATM    6  H   UNL     1      -8.478   4.275  66.983  1.00  0.00     0.000 HD 
BRANCH   4   7
HETATM    7  C   UNL     1      -6.774   5.524  67.324  1.00  0.00    -0.059 C  
BRANCH   7   8
HETATM    8  C   UNL     1      -6.258   5.086  65.897  1.00  0.00    -0.034 C  
HETATM    9  C   UNL     1      -7.463   4.921  64.948  1.00  0.00    -0.076 C  
HETATM   10  C   UNL     1      -5.443   3.775  65.915  1.00  0.00    -0.013 C  
HETATM   11  C   UNL     1      -5.332   6.155  65.268  1.00  0.00    -0.014 C  
ENDBRANCH   7   8
BRANCH   7  12
HETATM   12  C   UNL     1      -6.926   7.069  67.477  1.00  0.00    -0.079 C  
HETATM   13  N   UNL     1      -7.914   7.677  66.725  1.00  0.00    -0.109 N  
HETATM   14  O   UNL     1      -6.164   7.744  68.164  1.00  0.00    -0.042 OA 
HETATM   15  H   UNL     1      -8.414   7.131  66.023  1.00  0.00     0.000 HD 
BRANCH  13  16
HETATM   16  C   UNL     1      -8.264   9.113  66.916  1.00  0.00    -0.116 C  
BRANCH  16  17
HETATM   17  C   UNL     1      -9.816   9.263  66.931  1.00  0.00    -0.214 C  
HETATM   18  H   UNL     1     -11.262   8.357  67.847  1.00  0.00     0.000 HD 
HETATM   19  O   UNL     1     -10.317   8.265  67.838  1.00  0.00    -0.209 OA 
BRANCH  17  20
HETATM   20  C   UNL     1     -10.284  10.675  67.376  1.00  0.00    -0.204 C  
BRANCH  20  21
HETATM   21  N   UNL     1      -9.712  11.208  68.646  1.00  0.00    -0.196 NA 
BRANCH  21  22
HETATM   22  N   UNL     1     -10.675  11.917  69.443  1.00  0.00    -0.450 N  
HETATM   23  C   UNL     1     -11.873  12.373  68.911  1.00  0.00    -0.301 C  
HETATM   24  H   UNL     1     -10.472  12.091  70.427  1.00  0.00     0.000 HD 
HETATM   25  O   UNL     1     -12.129  12.334  67.712  1.00  0.00    -0.478 OA 
BRANCH  23  26
HETATM   26  C   UNL     1     -12.810  13.022  69.968  1.00  0.00     0.440 C  
BRANCH  26  27
HETATM   27  N   UNL     1     -12.842  12.166  71.154  1.00  0.00    -0.287 N  
HETATM   28  O   UNL     1     -13.401  10.220  70.095  1.00  0.00     0.004 OA 
HETATM   29  C   UNL     1     -13.123  10.838  71.112  1.00  0.00    -0.288 C  
HETATM   30  H   UNL     1     -12.642  12.589  72.060  1.00  0.00     0.000 HD 
BRANCH  29  31
HETATM   31  O   UNL     1     -13.030  10.321  72.360  1.00  0.00    -0.295 OA 
HETATM   32  C   UNL     1     -12.830   8.906  72.411  1.00  0.00    -0.380 C  
ENDBRANCH  29  31
ENDBRANCH  26  27
BRANCH  26  33
HETATM   33  C   UNL     1     -12.430  14.498  70.317  1.00  0.00    -0.405 C  
HETATM   34  C   UNL     1     -11.283  14.620  71.340  1.00  0.00     0.169 C  
HETATM   35  C   UNL     1     -12.034  15.235  69.020  1.00  0.00    -0.304 C  
HETATM   36  C   UNL     1     -13.654  15.226  70.915  1.00  0.00    -0.402 C  
ENDBRANCH  26  33
ENDBRANCH  23  26
ENDBRANCH  21  22
BRANCH  21  37
HETATM   37  C   UNL     1      -8.493  12.029  68.473  1.00  0.00    -0.098 C  
BRANCH  37  38
HETATM   38  C   UNL     1      -8.675  13.480  68.056  1.00  0.00    -0.181 A  
HETATM   39  C   UNL     1      -9.180  13.871  66.809  1.00  0.00    -0.267 A  
HETATM   40  C   UNL     1      -9.349  15.206  66.474  1.00  0.00    -0.308 A  
HETATM   41  C   UNL     1      -8.357  14.491  68.969  1.00  0.00    -0.061 A  
HETATM   42  C   UNL     1      -9.059  16.220  67.386  1.00  0.00    -0.203 A  
HETATM   43  C   UNL     1      -8.554  15.840  68.641  1.00  0.00    -0.194 A  
BRANCH  42  44
HETATM   44  C   UNL     1      -9.313  17.614  67.006  1.00  0.00    -0.257 A  
HETATM   45  C   UNL     1      -8.671  18.687  67.612  1.00  0.00    -0.288 A  
HETATM   46  C   UNL     1      -9.014  19.980  67.227  1.00  0.00    -0.440 A  
HETATM   47  C   UNL     1      -9.993  20.167  66.259  1.00  0.00    -0.557 A  
HETATM   48  C   UNL     1     -10.595  19.049  65.714  1.00  0.00    -0.318 A  
HETATM   49  N   UNL     1     -10.279  17.790  66.064  1.00  0.00    -0.530 NA 
ENDBRANCH  42  44
ENDBRANCH  37  38
ENDBRANCH  21  37
ENDBRANCH  20  21
ENDBRANCH  17  20
ENDBRANCH  16  17
BRANCH  16  50
HETATM   50  C   UNL     1      -7.487  10.047  65.949  1.00  0.00    -0.115 C  
BRANCH  50  51
HETATM   51  C   UNL     1      -8.190  10.284  64.636  1.00  0.00    -0.161 A  
HETATM   52  C   UNL     1      -8.891  11.472  64.390  1.00  0.00     0.408 A  
HETATM   53  C   UNL     1      -9.784  10.559  62.352  1.00  0.00    -0.085 A  
HETATM   54  C   UNL     1      -8.206   9.279  63.661  1.00  0.00    -0.166 A  
HETATM   55  C   UNL     1      -9.715  11.594  63.277  1.00  0.00    -0.390 A  
HETATM   56  C   UNL     1      -9.001   9.419  62.523  1.00  0.00    -0.241 A  
ENDBRANCH  50  51
ENDBRANCH  16  50
ENDBRANCH  13  16
ENDBRANCH   7  12
ENDBRANCH   4   7
ENDBRANCH   2   3
TORSDOF 18
ENDMDL
