MODEL       37
REMARK 921   NORMALIZED FREE ENERGY PREDICTED BY IDOCK:   -4.80 KCAL/MOL
REMARK 922        TOTAL FREE ENERGY PREDICTED BY IDOCK:   -8.49 KCAL/MOL
REMARK 923 INTER-LIGAND FREE ENERGY PREDICTED BY IDOCK:   -7.24 KCAL/MOL
REMARK 924 INTRA-LIGAND FREE ENERGY PREDICTED BY IDOCK:   -1.25 KCAL/MOL
REMARK 927      BINDING AFFINITY PREDICTED BY RF-SCORE:    0.00 PKD
ROOT
HETATM    1  C   UNL     1      -5.555   8.928  65.342  1.00  0.00    -0.046 C  
HETATM    2  C   UNL     1      -6.473   9.128  66.515  1.00  0.00    -0.067 C  
HETATM    3  N   UNL     1      -7.759   8.586  66.435  1.00  0.00    -0.097 N  
HETATM    4  O   UNL     1      -6.063   9.723  67.514  1.00  0.00    -0.057 OA 
ENDROOT
BRANCH   3   5
HETATM    5  C   UNL     1      -8.600   8.831  67.570  1.00  0.00    -0.127 A  
HETATM    6  I   UNL     1     -11.901   9.251  71.258  1.00  0.00    -0.476 I  
HETATM    7  C   UNL     1     -10.313   9.199  69.774  1.00  0.00    -0.215 A  
HETATM    8  C   UNL     1      -9.410   9.996  67.657  1.00  0.00    -0.144 A  
HETATM    9  I   UNL     1      -9.192  11.519  66.133  1.00  0.00    -0.172 I  
HETATM   10  C   UNL     1      -8.564   7.914  68.653  1.00  0.00    -0.128 A  
HETATM   11  C   UNL     1      -9.427   8.083  69.758  1.00  0.00    -0.159 A  
HETATM   12  C   UNL     1     -10.279  10.191  68.759  1.00  0.00    -0.200 A  
HETATM   13  I   UNL     1      -7.105   6.293  68.579  1.00  0.00    -0.088 I  
BRANCH  12  14
HETATM   14  C   UNL     1     -11.197  11.374  68.780  1.00  0.00    -0.247 C  
HETATM   15  N   UNL     1     -10.812  12.472  69.525  1.00  0.00    -0.442 N  
HETATM   16  O   UNL     1     -12.254  11.340  68.159  1.00  0.00    -0.622 OA 
HETATM   17  H   UNL     1      -9.926  12.443  70.031  1.00  0.00     0.000 HD 
BRANCH  15  18
HETATM   18  C   UNL     1     -11.641  13.672  69.608  1.00  0.00    -0.278 C  
BRANCH  18  19
HETATM   19  C   UNL     1     -10.989  14.877  68.914  1.00  0.00    -0.251 C  
HETATM   20  H   UNL     1      -9.173  15.611  68.742  1.00  0.00     0.000 HD 
HETATM   21  O   UNL     1      -9.577  14.866  69.171  1.00  0.00    -0.210 OA 
BRANCH  19  22
HETATM   22  C   UNL     1     -11.262  14.874  67.400  1.00  0.00    -0.338 C  
HETATM   23  O   UNL     1     -12.428  14.121  67.074  1.00  0.00    -0.571 OA 
HETATM   24  H   UNL     1     -12.596  14.120  66.140  1.00  0.00     0.000 HD 
ENDBRANCH  19  22
ENDBRANCH  18  19
ENDBRANCH  15  18
ENDBRANCH  12  14
BRANCH  11  25
HETATM   25  C   UNL     1      -9.356   7.173  70.934  1.00  0.00    -0.160 C  
HETATM   26  O   UNL     1      -8.618   7.454  71.873  1.00  0.00    -0.110 OA 
HETATM   27  H   UNL     1     -10.749   5.863  70.112  1.00  0.00     0.000 HD 
HETATM   28  N   UNL     1     -10.128   6.024  70.905  1.00  0.00    -0.190 N  
BRANCH  28  29
HETATM   29  C   UNL     1     -10.077   5.042  71.971  1.00  0.00    -0.196 C  
BRANCH  29  30
HETATM   30  C   UNL     1     -11.196   5.285  72.974  1.00  0.00    -0.324 C  
HETATM   31  O   UNL     1     -11.069   6.601  73.517  1.00  0.00    -0.489 OA 
HETATM   32  H   UNL     1     -11.767   6.753  74.143  1.00  0.00     0.000 HD 
ENDBRANCH  29  30
ENDBRANCH  28  29
ENDBRANCH  11  25
ENDBRANCH   3   5
BRANCH   3  33
HETATM   33  C   UNL     1      -8.365   7.968  65.221  1.00  0.00    -0.143 C  
BRANCH  33  34
HETATM   34  C   UNL     1      -8.250   6.426  65.079  1.00  0.00    -0.125 C  
HETATM   35  O   UNL     1      -9.503   5.761  65.296  1.00  0.00    -0.362 OA 
HETATM   36  H   UNL     1      -9.432   4.818  65.209  1.00  0.00     0.000 HD 
BRANCH  34  37
HETATM   37  C   UNL     1      -7.729   6.001  63.694  1.00  0.00    -0.100 C  
HETATM   38  H   UNL     1      -8.413   5.039  62.103  1.00  0.00     0.000 HD 
HETATM   39  O   UNL     1      -8.735   5.301  62.957  1.00  0.00    -0.109 OA 
ENDBRANCH  34  37
ENDBRANCH  33  34
ENDBRANCH   3  33
TORSDOF 11
ENDMDL
