MODEL      214
REMARK 921   NORMALIZED FREE ENERGY PREDICTED BY IDOCK:    6.86 KCAL/MOL
REMARK 922        TOTAL FREE ENERGY PREDICTED BY IDOCK:   14.19 KCAL/MOL
REMARK 923 INTER-LIGAND FREE ENERGY PREDICTED BY IDOCK:    0.13 KCAL/MOL
REMARK 924 INTRA-LIGAND FREE ENERGY PREDICTED BY IDOCK:   14.06 KCAL/MOL
REMARK 927      BINDING AFFINITY PREDICTED BY RF-SCORE:    0.00 PKD
ROOT
HETATM    1  C   UNL     1     -12.380  14.924  66.552  1.00  0.00     0.272 C  
HETATM    2  O   UNL     1     -12.734  16.252  66.910  1.00  0.00     2.684 OA 
ENDROOT
BRANCH   2   3
HETATM    3  C   UNL     1     -11.744  17.186  66.483  1.00  0.00     1.928 C  
BRANCH   3   4
HETATM    4  C   UNL     1     -11.243  17.973  67.684  1.00  0.00     0.303 C  
BRANCH   4   5
HETATM    5  O   UNL     1      -9.990  17.434  68.103  1.00  0.00    -0.278 OA 
BRANCH   5   6
HETATM    6  C   UNL     1      -9.157  17.149  66.983  1.00  0.00    -0.230 C  
BRANCH   6   7
HETATM    7  C   UNL     1      -8.204  16.019  67.334  1.00  0.00    -0.167 C  
BRANCH   7   8
HETATM    8  O   UNL     1      -8.971  14.910  67.795  1.00  0.00    -0.171 OA 
BRANCH   8   9
HETATM    9  C   UNL     1     -10.214  14.819  67.110  1.00  0.00    -0.245 C  
BRANCH   9  10
HETATM   10  C   UNL     1     -10.068  13.843  65.955  1.00  0.00    -0.313 C  
BRANCH  10  11
HETATM   11  O   UNL     1     -10.027  12.523  66.483  1.00  0.00    -0.233 OA 
BRANCH  11  12
HETATM   12  C   UNL     1      -8.990  11.758  65.881  1.00  0.00    -0.059 C  
BRANCH  12  13
HETATM   13  C   UNL     1      -8.425  10.806  66.921  1.00  0.00    -0.131 C  
BRANCH  13  14
HETATM   14  O   UNL     1      -7.545  11.517  67.781  1.00  0.00    -0.101 OA 
BRANCH  14  15
HETATM   15  C   UNL     1      -7.997  11.438  69.128  1.00  0.00     0.055 C  
BRANCH  15  16
HETATM   16  C   UNL     1      -8.785  10.157  69.340  1.00  0.00    -0.176 C  
BRANCH  16  17
HETATM   17  O   UNL     1     -10.042  10.517  69.899  1.00  0.00    -0.165 OA 
BRANCH  17  18
HETATM   18  C   UNL     1     -10.413  11.849  69.585  1.00  0.00     0.527 C  
BRANCH  18  19
HETATM   19  C   UNL     1     -11.902  11.986  69.843  1.00  0.00    -0.331 C  
BRANCH  19  20
HETATM   20  O   UNL     1     -12.609  10.983  69.128  1.00  0.00    -0.378 OA 
BRANCH  20  21
HETATM   21  C   UNL     1     -12.252   9.670  69.559  1.00  0.00     0.774 C  
BRANCH  21  22
HETATM   22  C   UNL     1     -11.529   9.716  70.910  1.00  0.00    -0.353 C  
BRANCH  22  23
HETATM   23  O   UNL     1     -11.835   8.632  71.824  1.00  0.00    -0.293 OA 
BRANCH  23  24
HETATM   24  C   UNL     1     -10.893   7.532  71.792  1.00  0.00    -0.227 C  
HETATM   25  C   UNL     1     -11.513   6.333  71.130  1.00  0.00    -0.362 C  
HETATM   26  C   UNL     1     -11.266   6.239  69.516  1.00  0.00    -0.500 C  
HETATM   27  C   UNL     1      -9.748   6.446  68.909  1.00  0.00    -0.126 C  
HETATM   28  C   UNL     1      -8.614   5.427  68.232  1.00  0.00    -0.096 C  
HETATM   29  O   UNL     1      -9.854   7.629  68.104  1.00  0.00    -0.155 OA 
HETATM   30  C   UNL     1      -7.322   6.039  67.684  1.00  0.00    -0.077 C  
HETATM   31  H   UNL     1      -8.978   7.748  67.754  1.00  0.00     0.000 HD 
HETATM   32  C   UNL     1      -6.827   6.913  68.810  1.00  0.00    -0.066 A  
HETATM   33  C   UNL     1      -5.690   7.689  68.689  1.00  0.00    -0.027 A  
HETATM   34  C   UNL     1      -5.433   8.724  69.577  1.00  0.00    -0.034 A  
HETATM   35  C   UNL     1      -6.356   9.025  70.619  1.00  0.00    -0.049 A  
HETATM   36  O   UNL     1      -6.220  10.181  71.322  1.00  0.00    -0.309 OA 
HETATM   37  C   UNL     1      -7.439   8.172  70.822  1.00  0.00    -0.066 A  
HETATM   38  H   UNL     1      -6.836  10.382  72.017  1.00  0.00     0.000 HD 
HETATM   39  C   UNL     1      -7.678   7.083  69.973  1.00  0.00    -0.104 A  
HETATM   40  C   UNL     1      -9.044   6.500  70.207  1.00  0.00    -0.155 C  
HETATM   41  C   UNL     1      -9.601   7.783  70.983  1.00  0.00    -0.159 C  
HETATM   42  C   UNL     1      -9.256   4.744  70.568  1.00  0.00    -0.195 C  
HETATM   43  O   UNL     1      -8.487   8.376  71.704  1.00  0.00    -0.134 OA 
HETATM   44  C   UNL     1      -9.649   3.705  69.153  1.00  0.00    -0.102 C  
HETATM   45  N   UNL     1      -9.123   4.151  67.841  1.00  0.00    -0.126 NA 
BRANCH  45  46
HETATM   46  C   UNL     1      -9.975   4.354  66.683  1.00  0.00    -0.210 C  
BRANCH  46  47
HETATM   47  C   UNL     1     -10.300   5.781  66.385  1.00  0.00    -0.207 C  
HETATM   48  C   UNL     1     -11.534   6.286  66.488  1.00  0.00     0.702 C  
ENDBRANCH  46  47
ENDBRANCH  45  46
ENDBRANCH  23  24
ENDBRANCH  22  23
ENDBRANCH  21  22
ENDBRANCH  20  21
ENDBRANCH  19  20
ENDBRANCH  18  19
ENDBRANCH  17  18
ENDBRANCH  16  17
ENDBRANCH  15  16
ENDBRANCH  14  15
ENDBRANCH  13  14
ENDBRANCH  12  13
ENDBRANCH  11  12
ENDBRANCH  10  11
ENDBRANCH   9  10
ENDBRANCH   8   9
ENDBRANCH   7   8
ENDBRANCH   6   7
ENDBRANCH   5   6
ENDBRANCH   4   5
ENDBRANCH   3   4
ENDBRANCH   2   3
TORSDOF 24
ENDMDL
