MODEL      248
REMARK 921   NORMALIZED FREE ENERGY PREDICTED BY IDOCK:   -4.02 KCAL/MOL
REMARK 922        TOTAL FREE ENERGY PREDICTED BY IDOCK:   -7.10 KCAL/MOL
REMARK 923 INTER-LIGAND FREE ENERGY PREDICTED BY IDOCK:   -6.28 KCAL/MOL
REMARK 924 INTRA-LIGAND FREE ENERGY PREDICTED BY IDOCK:   -0.82 KCAL/MOL
REMARK 927      BINDING AFFINITY PREDICTED BY RF-SCORE:    0.00 PKD
ROOT
HETATM    1  O   UNL     1     -12.201  15.253  68.629  1.00  0.00    -0.575 OA 
HETATM    2  H   UNL     1     -12.881  15.723  68.159  1.00  0.00     0.000 HD 
HETATM    3  C   UNL     1     -11.342  16.189  69.291  1.00  0.00    -0.328 C  
ENDROOT
BRANCH   3   4
HETATM    4  C   UNL     1     -10.236  15.424  70.056  1.00  0.00    -0.249 C  
BRANCH   4   5
HETATM    5  N   UNL     1      -9.542  14.447  69.187  1.00  0.00    -0.403 NA 
HETATM    6  H   UNL     1     -10.072  14.247  68.338  1.00  0.00     0.000 HD 
BRANCH   5   7
HETATM    7  C   UNL     1      -8.184  14.913  68.888  1.00  0.00    -0.171 C  
BRANCH   7   8
HETATM    8  C   UNL     1      -7.240  13.718  68.732  1.00  0.00    -0.106 C  
BRANCH   8   9
HETATM    9  C   UNL     1      -7.219  13.231  67.282  1.00  0.00    -0.033 C  
BRANCH   9  10
HETATM   10  C   UNL     1      -7.513  11.732  67.180  1.00  0.00    -0.149 C  
BRANCH  10  11
HETATM   11  C   UNL     1      -8.869  11.408  67.760  1.00  0.00    -0.143 A  
HETATM   12  C   UNL     1      -8.977  10.723  68.979  1.00  0.00    -0.141 A  
HETATM   13  C   UNL     1     -10.229  10.375  69.490  1.00  0.00    -0.258 A  
HETATM   14  C   UNL     1     -11.376  10.711  68.778  1.00  0.00    -0.277 A  
HETATM   15  O   UNL     1     -12.617  10.375  69.230  1.00  0.00    -0.686 OA 
HETATM   16  C   UNL     1     -11.290  11.397  67.573  1.00  0.00    -0.362 A  
HETATM   17  H   UNL     1     -13.400  10.604  68.744  1.00  0.00     0.000 HD 
HETATM   18  C   UNL     1     -10.038  11.744  67.063  1.00  0.00    -0.232 A  
ENDBRANCH  10  11
ENDBRANCH   9  10
ENDBRANCH   8   9
ENDBRANCH   7   8
ENDBRANCH   5   7
ENDBRANCH   4   5
ENDBRANCH   3   4
BRANCH   3  19
HETATM   19  C   UNL     1     -10.749  17.151  68.281  1.00  0.00    -0.363 A  
HETATM   20  C   UNL     1     -10.199  18.383  68.678  1.00  0.00    -0.370 A  
HETATM   21  H   UNL     1      -9.258  19.558  64.518  1.00  0.00     0.000 HD 
HETATM   22  C   UNL     1     -10.775  16.829  66.910  1.00  0.00    -0.139 A  
HETATM   23  H   UNL     1      -8.805  21.061  67.410  1.00  0.00     0.000 HD 
HETATM   24  C   UNL     1      -9.693  19.256  67.722  1.00  0.00    -0.326 A  
HETATM   25  C   UNL     1     -10.264  17.711  65.956  1.00  0.00    -0.301 A  
HETATM   26  O   UNL     1      -9.152  20.465  68.063  1.00  0.00    -0.188 OA 
HETATM   27  C   UNL     1      -9.729  18.920  66.371  1.00  0.00    -0.363 A  
HETATM   28  O   UNL     1      -9.234  19.787  65.439  1.00  0.00    -0.118 OA 
ENDBRANCH   3  19
TORSDOF 8
ENDMDL
