MODEL      152
REMARK 921   NORMALIZED FREE ENERGY PREDICTED BY IDOCK:   -5.36 KCAL/MOL
REMARK 922        TOTAL FREE ENERGY PREDICTED BY IDOCK:   -8.30 KCAL/MOL
REMARK 923 INTER-LIGAND FREE ENERGY PREDICTED BY IDOCK:   -6.91 KCAL/MOL
REMARK 924 INTRA-LIGAND FREE ENERGY PREDICTED BY IDOCK:   -1.38 KCAL/MOL
REMARK 927      BINDING AFFINITY PREDICTED BY RF-SCORE:    0.00 PKD
ROOT
HETATM    1  N   UNL     1     -12.259   6.762  70.000  1.00  0.00    -0.589 NA 
HETATM    2  C   UNL     1     -10.892   7.098  69.576  1.00  0.00    -0.225 C  
HETATM    3  H2  UNL     1     -12.358   5.762  70.169  1.00  0.00     0.000 HD 
HETATM    4  H1  UNL     1     -12.556   7.304  70.811  1.00  0.00     0.000 HD 
ENDROOT
BRANCH   2   5
HETATM    5  C   UNL     1     -10.442   6.275  68.342  1.00  0.00    -0.227 C  
HETATM    6  O   UNL     1      -9.350   6.892  67.643  1.00  0.00    -0.122 OA 
HETATM    7  C   UNL     1      -8.114   6.897  68.341  1.00  0.00    -0.120 C  
HETATM    8  C   UNL     1      -7.651   5.428  68.612  1.00  0.00    -0.083 C  
HETATM    9  C   UNL     1     -10.124   4.809  68.696  1.00  0.00    -0.044 C  
HETATM   10  N   UNL     1      -7.315   4.696  67.372  1.00  0.00    -0.073 NA 
HETATM   11  C   UNL     1      -8.756   4.672  69.374  1.00  0.00    -0.111 C  
HETATM   12  H   UNL     1      -9.953   3.138  67.703  1.00  0.00     0.000 HD 
HETATM   13  H1  UNL     1      -7.013   3.737  67.549  1.00  0.00     0.000 HD 
HETATM   14  H2  UNL     1      -6.620   5.203  66.825  1.00  0.00     0.000 HD 
HETATM   15  O   UNL     1     -10.150   4.042  67.485  1.00  0.00    -0.040 OA 
BRANCH   7  16
HETATM   16  O   UNL     1      -7.112   7.583  67.572  1.00  0.00    -0.080 OA 
BRANCH  16  17
HETATM   17  C   UNL     1      -7.011   9.024  67.764  1.00  0.00    -0.078 C  
HETATM   18  N   UNL     1      -6.255   8.868  70.127  1.00  0.00    -0.036 NA 
HETATM   19  C   UNL     1      -7.171  10.973  69.368  1.00  0.00    -0.114 C  
HETATM   20  H1  UNL     1      -6.415   9.158  71.091  1.00  0.00     0.000 HD 
HETATM   21  H2  UNL     1      -5.304   9.078  69.825  1.00  0.00     0.000 HD 
HETATM   22  C   UNL     1      -8.183  11.678  68.465  1.00  0.00    -0.144 C  
HETATM   23  C   UNL     1      -7.254   9.462  69.224  1.00  0.00    -0.066 C  
HETATM   24  N   UNL     1      -8.085  13.111  68.792  1.00  0.00    -0.342 NA 
HETATM   25  C   UNL     1      -7.928  11.362  66.957  1.00  0.00    -0.158 C  
HETATM   26  H   UNL     1      -7.737  10.080  64.782  1.00  0.00     0.000 HD 
HETATM   27  H1  UNL     1      -8.761  13.581  68.190  1.00  0.00     0.000 HD 
HETATM   28  C   UNL     1      -7.835   9.824  66.717  1.00  0.00    -0.102 C  
HETATM   29  H2  UNL     1      -7.138  13.484  68.713  1.00  0.00     0.000 HD 
HETATM   30  O   UNL     1      -7.233   9.591  65.422  1.00  0.00    -0.090 OA 
BRANCH  25  31
HETATM   31  O   UNL     1      -8.993  11.851  66.083  1.00  0.00    -0.195 OA 
BRANCH  31  32
HETATM   32  C   UNL     1     -10.248  11.170  66.208  1.00  0.00    -0.239 C  
HETATM   33  O   UNL     1     -11.066  11.710  67.253  1.00  0.00    -0.256 OA 
HETATM   34  C   UNL     1     -11.541  13.035  66.965  1.00  0.00    -0.360 C  
HETATM   35  C   UNL     1     -12.408  13.032  65.696  1.00  0.00    -0.446 C  
HETATM   36  H   UNL     1     -10.621  10.610  62.980  1.00  0.00     0.000 HD 
HETATM   37  C   UNL     1     -11.590  12.508  64.500  1.00  0.00    -0.348 C  
HETATM   38  H1  UNL     1     -11.885  12.121  62.484  1.00  0.00     0.000 HD 
HETATM   39  O   UNL     1     -12.939  14.327  65.400  1.00  0.00    -0.654 OA 
HETATM   40  H   UNL     1     -13.474  14.325  64.615  1.00  0.00     0.000 HD 
HETATM   41  H2  UNL     1     -12.851  13.373  63.078  1.00  0.00     0.000 HD 
HETATM   42  C   UNL     1     -11.004  11.130  64.854  1.00  0.00    -0.121 C  
HETATM   43  N   UNL     1     -12.426  12.468  63.276  1.00  0.00    -0.646 NA 
HETATM   44  O   UNL     1     -10.158  10.634  63.809  1.00  0.00    -0.330 OA 
BRANCH  34  45
HETATM   45  C   UNL     1     -12.364  13.524  68.166  1.00  0.00     0.093 C  
HETATM   46  O   UNL     1     -12.268  14.942  68.302  1.00  0.00    -0.570 OA 
HETATM   47  H   UNL     1     -12.777  15.244  69.045  1.00  0.00     0.000 HD 
ENDBRANCH  34  45
ENDBRANCH  31  32
ENDBRANCH  25  31
ENDBRANCH  16  17
ENDBRANCH   7  16
ENDBRANCH   2   5
TORSDOF 6
ENDMDL
