MODEL       16
REMARK 921   NORMALIZED FREE ENERGY PREDICTED BY IDOCK:   -7.21 KCAL/MOL
REMARK 922        TOTAL FREE ENERGY PREDICTED BY IDOCK:  -12.93 KCAL/MOL
REMARK 923 INTER-LIGAND FREE ENERGY PREDICTED BY IDOCK:  -10.87 KCAL/MOL
REMARK 924 INTRA-LIGAND FREE ENERGY PREDICTED BY IDOCK:   -2.06 KCAL/MOL
REMARK 927      BINDING AFFINITY PREDICTED BY RF-SCORE:    0.00 PKD
ROOT
HETATM    1  O   UNL     1     -12.397   5.168  73.006  1.00  0.00    -0.444 OA 
HETATM    2  C   UNL     1     -11.314   6.070  72.804  1.00  0.00    -0.242 C  
HETATM    3  H   UNL     1     -12.375   4.781  73.874  1.00  0.00     0.000 HD 
HETATM    4  C   UNL     2     -13.404  14.405  73.273  1.00  0.00    -0.113 C  
HETATM    5  C   UNL     1     -11.349   6.704  71.382  1.00  0.00    -0.289 C  
HETATM    6  C   UNL     2     -13.611  13.559  72.025  1.00  0.00    -0.589 C  
HETATM    7  C   UNL     1     -12.723   7.397  71.170  1.00  0.00    -0.277 C  
HETATM    8  N   UNL     1     -10.260   7.731  71.356  1.00  0.00    -0.182 NA 
HETATM    9  C   UNL     1     -10.992   5.755  70.248  1.00  0.00    -0.276 C  
HETATM   10  H   UNL     1      -9.358   4.895  69.606  1.00  0.00     0.000 HD 
HETATM   11  H   UNL     1     -13.796   8.803  72.054  1.00  0.00     0.000 HD 
HETATM   12  H2  UNL     1      -9.345   7.359  71.611  1.00  0.00     0.000 HD 
HETATM   13  O   UNL     1     -12.957   8.380  72.184  1.00  0.00    -0.339 OA 
HETATM   14  O   UNL     1      -9.581   5.488  70.314  1.00  0.00    -0.160 OA 
HETATM   15  H1  UNL     1     -10.283   8.146  70.425  1.00  0.00     0.000 HD 
ENDROOT
BRANCH   6  16
HETATM   16  C   UNL     2     -12.413  12.673  71.677  1.00  0.00    -0.036 C  
BRANCH  16  17
HETATM   17  C   UNL     2     -11.992  12.702  70.205  1.00  0.00    -0.363 C  
BRANCH  17  18
HETATM   18  C   UNL     2     -11.866  11.312  69.538  1.00  0.00    -0.427 C  
HETATM   19  C   UNL     2     -10.629  11.028  68.655  1.00  0.00    -0.196 C  
HETATM   20  C   UNL     2     -10.497   9.571  68.190  1.00  0.00    -0.268 C  
HETATM   21  O   UNL     2      -9.471  11.310  69.449  1.00  0.00    -0.399 OA 
HETATM   22  C   UNL     2     -10.623  11.943  67.463  1.00  0.00    -0.250 C  
HETATM   23  H   UNL     2      -8.711  11.136  68.906  1.00  0.00     0.000 HD 
HETATM   24  C   UNL     2     -11.415  11.879  66.379  1.00  0.00    -0.371 C  
BRANCH  24  25
HETATM   25  C   UNL     2     -11.386  12.847  65.217  1.00  0.00    -0.333 C  
HETATM   26  C   UNL     2     -12.154  12.409  63.948  1.00  0.00    -0.499 C  
HETATM   27  C   UNL     2     -12.174  13.680  63.134  1.00  0.00     0.107 C  
HETATM   28  O   UNL     2     -13.521  12.066  64.156  1.00  0.00    -0.672 OA 
HETATM   29  H   UNL     2     -13.993  11.796  63.377  1.00  0.00     0.000 HD 
HETATM   30  C   UNL     2     -12.502  14.759  64.164  1.00  0.00    -0.111 C  
HETATM   31  C   UNL     2     -11.928  14.277  65.523  1.00  0.00    -0.386 C  
HETATM   32  O   UNL     2     -11.970  15.985  63.688  1.00  0.00    -1.344 OA 
HETATM   33  H   UNL     2     -12.174  16.657  64.329  1.00  0.00     0.000 HD 
BRANCH  31  34
HETATM   34  C   UNL     2     -10.870  15.206  66.159  1.00  0.00    -0.330 C  
BRANCH  34  35
HETATM   35  C   UNL     2     -11.099  15.481  67.628  1.00  0.00    -0.311 C  
HETATM   36  C   UNL     2     -10.205  15.478  68.629  1.00  0.00    -0.216 C  
BRANCH  36  37
HETATM   37  C   UNL     2      -8.732  15.200  68.544  1.00  0.00    -0.172 C  
BRANCH  37  38
HETATM   38  C   UNL     2      -7.865  16.425  68.841  1.00  0.00    -0.234 C  
BRANCH  38  39
HETATM   39  C   UNL     2      -7.763  17.422  67.696  1.00  0.00    -0.203 C  
HETATM   40  C   UNL     2      -8.682  18.645  67.722  1.00  0.00    -0.279 C  
HETATM   41  O   UNL     2      -8.924  19.140  66.585  1.00  0.00    -0.302 OA 
HETATM   42  O   UNL     2      -9.081  19.112  68.838  1.00  0.00    -0.360 OA 
ENDBRANCH  38  39
ENDBRANCH  37  38
ENDBRANCH  36  37
ENDBRANCH  34  35
ENDBRANCH  31  34
ENDBRANCH  24  25
ENDBRANCH  17  18
ENDBRANCH  16  17
ENDBRANCH   6  16
TORSDOF 9
ENDMDL
