MODEL      266
REMARK 921   NORMALIZED FREE ENERGY PREDICTED BY IDOCK:   15.16 KCAL/MOL
REMARK 922        TOTAL FREE ENERGY PREDICTED BY IDOCK:   16.69 KCAL/MOL
REMARK 923 INTER-LIGAND FREE ENERGY PREDICTED BY IDOCK:    7.08 KCAL/MOL
REMARK 924 INTRA-LIGAND FREE ENERGY PREDICTED BY IDOCK:    9.61 KCAL/MOL
REMARK 927      BINDING AFFINITY PREDICTED BY RF-SCORE:    0.00 PKD
ROOT
HETATM    1  C   UNL     1     -11.514  19.381  67.313  1.00  0.00     0.632 C  
HETATM    2  N   UNL     1     -11.139  17.987  67.456  1.00  0.00    -0.078 N  
HETATM    3  C   UNL     1      -9.744  17.641  67.666  1.00  0.00    -0.277 C  
HETATM    4  C   UNL     1     -12.133  17.035  67.361  1.00  0.00     2.153 C  
HETATM    5  O   UNL     1     -13.322  17.308  67.208  1.00  0.00     6.190 OA 
ENDROOT
BRANCH   4   6
HETATM    6  O   UNL     1     -11.639  15.728  67.330  1.00  0.00    -0.067 OA 
BRANCH   6   7
HETATM    7  C   UNL     1     -10.241  15.645  67.289  1.00  0.00    -0.266 A  
HETATM    8  C   UNL     1      -9.550  14.726  68.080  1.00  0.00    -0.209 A  
HETATM    9  N   UNL     1      -8.201  14.668  68.041  1.00  0.00    -0.137 NA 
HETATM   10  C   UNL     1      -7.494  13.765  68.963  1.00  0.00     0.002 C  
HETATM   11  C   UNL     1      -7.500  15.453  67.195  1.00  0.00    -0.189 A  
HETATM   12  C   UNL     1      -8.159  16.345  66.348  1.00  0.00    -0.357 A  
HETATM   13  C   UNL     1      -9.546  16.446  66.395  1.00  0.00    -0.313 A  
ENDBRANCH   6   7
ENDBRANCH   4   6
TORSDOF 2
ENDMDL
