MODEL        8
REMARK 921   NORMALIZED FREE ENERGY PREDICTED BY IDOCK:   -7.44 KCAL/MOL
REMARK 922        TOTAL FREE ENERGY PREDICTED BY IDOCK:  -11.46 KCAL/MOL
REMARK 923 INTER-LIGAND FREE ENERGY PREDICTED BY IDOCK:  -10.30 KCAL/MOL
REMARK 924 INTRA-LIGAND FREE ENERGY PREDICTED BY IDOCK:   -1.16 KCAL/MOL
REMARK 927      BINDING AFFINITY PREDICTED BY RF-SCORE:    0.00 PKD
ROOT
HETATM    1  C   UNL     1     -11.699  14.448  67.072  1.00  0.00    -0.399 C  
HETATM    2  S   UNL     1     -10.414  13.351  66.437  1.00  0.00    -0.290 SA 
HETATM    3  C   UNL     1     -11.164  11.847  67.105  1.00  0.00    -0.319 C  
HETATM    4  C   UNL     1     -11.669  11.946  68.541  1.00  0.00    -0.388 C  
HETATM    5  C   UNL     1     -11.613  15.628  68.792  1.00  0.00    -0.384 C  
HETATM    6  CA  UNL     1     -11.906  13.127  69.188  1.00  0.00    -0.314 C  
HETATM    7  C   UNL     1     -12.304  13.114  70.652  1.00  0.00    -0.326 C  
HETATM    8  CA  UNL     1     -11.267  15.939  67.292  1.00  0.00    -0.094 C  
HETATM    9  N   UNL     1     -11.755  14.316  68.513  1.00  0.00    -0.322 N  
HETATM   10  O   UNL     1     -12.106  14.240  71.361  1.00  0.00    -0.340 OA 
HETATM   11  OXT UNL     1     -12.781  12.134  71.210  1.00  0.00    -0.366 OA 
HETATM   12  O   UNL     1     -11.629  16.200  69.858  1.00  0.00    -0.316 OA 
ENDROOT
BRANCH   4  13
HETATM   13  C   UNL     1     -11.688  10.563  69.206  1.00  0.00    -0.209 C  
BRANCH  13  14
HETATM   14  S   UNL     1     -10.040   9.778  69.321  1.00  0.00    -0.212 SA 
BRANCH  14  15
HETATM   15  C   UNL     1     -10.484   8.135  68.994  1.00  0.00    -0.198 A  
HETATM   16  N   UNL     1     -10.867   7.674  67.822  1.00  0.00    -0.124 NA 
HETATM   17  N   UNL     1     -11.084   6.330  67.988  1.00  0.00    -0.329 NA 
HETATM   18  N   UNL     1     -10.475   7.093  69.882  1.00  0.00    -0.217 NA 
HETATM   19  N   UNL     1     -10.837   5.961  69.235  1.00  0.00    -0.335 NA 
BRANCH  18  20
HETATM   20  C   UNL     1     -10.028   6.985  71.240  1.00  0.00    -0.189 C  
HETATM   21  O   UNL     1     -10.820   6.908  73.742  1.00  0.00    -0.289 OA 
HETATM   22  O   UNL     1     -12.482   6.618  71.980  1.00  0.00    -0.325 OA 
HETATM   23  O   UNL     1     -11.522   8.882  72.330  1.00  0.00    -0.348 OA 
HETATM   24  S   UNL     1     -11.206   7.480  72.473  1.00  0.00    -0.350 S  
ENDBRANCH  18  20
ENDBRANCH  14  15
ENDBRANCH  13  14
ENDBRANCH   4  13
BRANCH   8  25
HETATM   25  N   UNL     1      -9.840  16.250  67.028  1.00  0.00    -0.239 N  
HETATM   26  C   UNL     1      -9.396  17.353  66.330  1.00  0.00    -0.252 C  
HETATM   27  H   UNL     1      -9.139  15.602  67.388  1.00  0.00     0.000 HD 
HETATM   28  O   UNL     1     -10.150  18.166  65.806  1.00  0.00    -0.563 OA 
BRANCH  26  29
HETATM   29  C   UNL     1      -7.854  17.462  66.299  1.00  0.00    -0.295 C  
HETATM   30  O   UNL     1      -7.270  16.247  66.791  1.00  0.00    -0.214 OA 
HETATM   31  H   UNL     1      -6.323  16.314  66.772  1.00  0.00     0.000 HD 
BRANCH  29  32
HETATM   32  C   UNL     1      -7.347  18.631  67.117  1.00  0.00    -0.218 A  
HETATM   33  C   UNL     1      -7.021  18.451  68.470  1.00  0.00    -0.273 A  
HETATM   34  C   UNL     1      -7.173  19.905  66.551  1.00  0.00    -0.275 A  
HETATM   35  C   UNL     1      -6.715  20.974  67.322  1.00  0.00    -0.430 A  
HETATM   36  C   UNL     1      -6.415  20.784  68.668  1.00  0.00    -0.182 A  
HETATM   37  C   UNL     1      -6.563  19.521  69.241  1.00  0.00    -0.374 A  
ENDBRANCH  29  32
ENDBRANCH  26  29
ENDBRANCH   8  25
TORSDOF 7
ENDMDL
