MODEL        6
REMARK 921   NORMALIZED FREE ENERGY PREDICTED BY IDOCK:   -6.83 KCAL/MOL
REMARK 922        TOTAL FREE ENERGY PREDICTED BY IDOCK:   -8.20 KCAL/MOL
REMARK 923 INTER-LIGAND FREE ENERGY PREDICTED BY IDOCK:   -7.47 KCAL/MOL
REMARK 924 INTRA-LIGAND FREE ENERGY PREDICTED BY IDOCK:   -0.73 KCAL/MOL
REMARK 927      BINDING AFFINITY PREDICTED BY RF-SCORE:    0.00 PKD
ROOT
HETATM    1  C   UNL     1      -9.963  14.513  65.873  1.00  0.00    -0.329 C  
HETATM    2  N   UNL     1     -10.448  14.934  67.199  1.00  0.00    -0.267 N  
HETATM    3  C   UNL     1     -10.241  16.232  67.784  1.00  0.00    -0.270 C  
HETATM    4  O   UNL     1     -12.150  13.083  67.411  1.00  0.00    -0.338 OA 
HETATM    5  C   UNL     1     -10.681  16.517  69.042  1.00  0.00    -0.332 C  
HETATM    6  O   UNL     1      -9.867  12.808  68.438  1.00  0.00    -0.223 OA 
HETATM    7  O   UNL     1     -10.525  17.779  69.609  1.00  0.00    -0.299 OA 
HETATM    8  C   UNL     1     -11.393  15.595  69.944  1.00  0.00    -0.340 A  
HETATM    9  C   UNL     1     -12.820  13.852  71.679  1.00  0.00    -0.432 A  
HETATM   10  C   UNL     1     -12.327  13.394  70.463  1.00  0.00    -0.401 A  
HETATM   11  H   UNL     1     -10.832  17.979  70.486  1.00  0.00     0.000 HD 
HETATM   12  C   UNL     1     -11.897  16.035  71.185  1.00  0.00    -0.465 A  
HETATM   13  C   UNL     1     -11.618  14.269  69.619  1.00  0.00    -0.296 A  
HETATM   14  S   UNL     1     -11.012  13.635  68.120  1.00  0.00    -0.263 S  
HETATM   15  C   UNL     1     -12.603  15.176  72.042  1.00  0.00    -0.416 A  
ENDROOT
BRANCH   3  16
HETATM   16  C   UNL     1      -9.664  17.393  66.992  1.00  0.00    -0.276 C  
HETATM   17  N   UNL     1      -8.336  17.678  67.178  1.00  0.00    -0.214 N  
HETATM   18  O   UNL     1     -10.430  18.105  66.338  1.00  0.00    -0.379 OA 
HETATM   19  H   UNL     1      -7.787  17.051  67.767  1.00  0.00     0.000 HD 
BRANCH  17  20
HETATM   20  C   UNL     1      -7.690  18.782  66.604  1.00  0.00    -0.248 A  
HETATM   21  N   UNL     1      -7.136  18.533  65.403  1.00  0.00    -0.535 NA 
HETATM   22  C   UNL     1      -6.253  20.786  65.395  1.00  0.00    -0.276 A  
HETATM   23  C   UNL     1      -6.904  21.051  66.592  1.00  0.00    -0.287 A  
HETATM   24  C   UNL     1      -6.400  19.523  64.845  1.00  0.00    -0.258 A  
HETATM   25  C   UNL     1      -7.625  20.031  67.216  1.00  0.00    -0.321 A  
ENDBRANCH  17  20
ENDBRANCH   3  16
TORSDOF 2
ENDMDL
