MODEL       59
REMARK 921   NORMALIZED FREE ENERGY PREDICTED BY IDOCK:   -5.36 KCAL/MOL
REMARK 922        TOTAL FREE ENERGY PREDICTED BY IDOCK:   -6.76 KCAL/MOL
REMARK 923 INTER-LIGAND FREE ENERGY PREDICTED BY IDOCK:   -6.01 KCAL/MOL
REMARK 924 INTRA-LIGAND FREE ENERGY PREDICTED BY IDOCK:   -0.76 KCAL/MOL
REMARK 927      BINDING AFFINITY PREDICTED BY RF-SCORE:    0.00 PKD
ROOT
HETATM    1  C   UNL     1     -11.792  13.820  65.790  1.00  0.00    -0.372 C  
HETATM    2  C   UNL     1     -11.676  12.281  65.851  1.00  0.00    -0.389 C  
HETATM    3  N   UNL     1     -10.710  12.034  66.949  1.00  0.00    -0.235 NA 
HETATM    4  H   UNL     1     -13.102  14.160  64.188  1.00  0.00     0.000 HD 
HETATM    5  C   UNL     1     -10.106  13.323  67.366  1.00  0.00    -0.233 C  
HETATM    6  C   UNL     1     -10.377  14.256  66.186  1.00  0.00    -0.299 C  
HETATM    7  N   UNL     1     -12.185  14.459  64.519  1.00  0.00    -0.533 NA 
HETATM    8  O   UNL     1     -10.369  15.648  66.503  1.00  0.00    -0.275 OA 
HETATM    9  C   UNL     1     -12.087  15.926  64.720  1.00  0.00     0.324 C  
HETATM   10  C   UNL     1     -10.747  16.402  65.335  1.00  0.00    -0.296 C  
ENDROOT
BRANCH   3  11
HETATM   11  C   UNL     1     -10.660  10.886  67.739  1.00  0.00    -0.217 A  
HETATM   12  C   UNL     1     -10.549   8.645  69.494  1.00  0.00    -0.218 A  
HETATM   13  C   UNL     1     -10.481   7.543  70.484  1.00  0.00    -0.219 C  
HETATM   14  C   UNL     1     -11.291   9.765  69.839  1.00  0.00    -0.238 A  
HETATM   15  C   UNL     1      -9.671   6.360  70.166  1.00  0.00    -0.185 C  
HETATM   16  C   UNL     1     -11.348  10.844  68.972  1.00  0.00    -0.281 A  
HETATM   17  O   UNL     1     -11.060   7.613  71.565  1.00  0.00    -0.233 OA 
HETATM   18  C   UNL     1      -9.078   6.351  68.967  1.00  0.00    -0.130 C  
HETATM   19  C   UNL     1      -9.536   5.186  71.054  1.00  0.00    -0.171 C  
HETATM   20  F   UNL     1     -12.108  11.870  69.380  1.00  0.00    -0.324 F  
HETATM   21  N   UNL     1      -9.177   7.326  67.983  1.00  0.00    -0.132 NA 
HETATM   22  O   UNL     1      -8.918   4.179  70.745  1.00  0.00    -0.086 OA 
HETATM   23  O   UNL     1     -10.170   5.306  72.240  1.00  0.00    -0.186 OA 
HETATM   24  N   UNL     1      -8.206   9.847  65.438  1.00  0.00    -0.133 NA 
HETATM   25  C   UNL     1      -9.864   8.559  68.263  1.00  0.00    -0.169 A  
HETATM   26  C   UNL     1      -9.882   9.720  67.421  1.00  0.00    -0.219 A  
HETATM   27  C   UNL     1      -8.964   9.784  66.317  1.00  0.00    -0.153 C  
BRANCH  21  28
HETATM   28  C   UNL     1      -8.816   6.874  66.616  1.00  0.00    -0.135 C  
HETATM   29  C   UNL     1      -7.813   5.753  66.409  1.00  0.00    -0.101 C  
HETATM   30  C   UNL     1      -9.248   5.542  66.053  1.00  0.00    -0.168 C  
ENDBRANCH  21  28
ENDBRANCH   3  11
TORSDOF 2
ENDMDL
