MODEL      147
REMARK 921   NORMALIZED FREE ENERGY PREDICTED BY IDOCK:   -3.81 KCAL/MOL
REMARK 922        TOTAL FREE ENERGY PREDICTED BY IDOCK:   -5.56 KCAL/MOL
REMARK 923 INTER-LIGAND FREE ENERGY PREDICTED BY IDOCK:   -5.05 KCAL/MOL
REMARK 924 INTRA-LIGAND FREE ENERGY PREDICTED BY IDOCK:   -0.51 KCAL/MOL
REMARK 927      BINDING AFFINITY PREDICTED BY RF-SCORE:    0.00 PKD
ROOT
HETATM    1  C   UNL     1      -9.696  10.802  63.314  1.00  0.00    -0.355 C  
HETATM    2  O   UNL     1     -10.511  10.963  64.467  1.00  0.00    -0.346 OA 
ENDROOT
BRANCH   2   3
HETATM    3  C   UNL     1     -10.625  12.337  64.854  1.00  0.00    -0.293 C  
BRANCH   3   4
HETATM    4  C   UNL     1     -10.898  12.415  66.360  1.00  0.00    -0.258 C  
BRANCH   4   5
HETATM    5  N   UNL     1      -9.716  12.013  67.144  1.00  0.00    -0.195 N  
HETATM    6  C   UNL     1     -10.873  10.303  68.526  1.00  0.00    -0.281 C  
HETATM    7  O   UNL     1      -8.546  10.828  68.628  1.00  0.00    -0.136 OA 
HETATM    8  H   UNL     1      -8.850  12.508  66.932  1.00  0.00     0.000 HD 
HETATM    9  C   UNL     1      -9.639  11.062  68.116  1.00  0.00    -0.171 C  
ENDBRANCH   4   5
BRANCH   4  10
HETATM   10  C   UNL     1     -11.326  13.852  66.694  1.00  0.00    -0.331 C  
HETATM   11  O   UNL     1     -12.251  14.084  67.470  1.00  0.00    -0.366 OA 
HETATM   12  H   UNL     1      -9.994  14.588  65.284  1.00  0.00     0.000 HD 
HETATM   13  N   UNL     1     -10.700  14.846  65.972  1.00  0.00    -0.312 N  
BRANCH  13  14
HETATM   14  C   UNL     1     -11.018  16.242  66.162  1.00  0.00     0.006 C  
BRANCH  14  15
HETATM   15  C   UNL     1      -9.772  17.082  66.263  1.00  0.00    -0.302 A  
HETATM   16  C   UNL     1      -9.848  18.477  66.398  1.00  0.00    -0.376 A  
HETATM   17  C   UNL     1      -8.683  19.241  66.503  1.00  0.00    -0.362 A  
HETATM   18  C   UNL     1      -7.434  18.622  66.466  1.00  0.00    -0.267 A  
HETATM   19  C   UNL     1      -7.347  17.239  66.318  1.00  0.00    -0.342 A  
HETATM   20  C   UNL     1      -8.509  16.474  66.214  1.00  0.00    -0.363 A  
ENDBRANCH  14  15
ENDBRANCH  13  14
ENDBRANCH   4  10
ENDBRANCH   3   4
ENDBRANCH   2   3
TORSDOF 6
ENDMDL
