MODEL       26
REMARK 921   NORMALIZED FREE ENERGY PREDICTED BY IDOCK:   -6.27 KCAL/MOL
REMARK 922        TOTAL FREE ENERGY PREDICTED BY IDOCK:  -10.59 KCAL/MOL
REMARK 923 INTER-LIGAND FREE ENERGY PREDICTED BY IDOCK:   -9.21 KCAL/MOL
REMARK 924 INTRA-LIGAND FREE ENERGY PREDICTED BY IDOCK:   -1.39 KCAL/MOL
REMARK 927      BINDING AFFINITY PREDICTED BY RF-SCORE:    0.00 PKD
ROOT
HETATM    1  C   UNL     1      -9.942   9.356  68.707  1.00  0.00    -0.179 C  
HETATM    2  S   UNL     1      -8.447   8.630  69.322  1.00  0.00    -0.124 SA 
HETATM    3  C   UNL     1      -8.876   8.140  71.016  1.00  0.00    -0.143 C  
HETATM    4  C   UNL     1     -10.286   8.329  71.499  1.00  0.00    -0.277 C  
HETATM    5  CA  UNL     1     -10.239  10.836  68.169  1.00  0.00    -0.172 C  
HETATM    6  CA  UNL     1     -11.278   8.939  70.823  1.00  0.00    -0.272 C  
HETATM    7  C   UNL     1     -11.573  10.593  68.927  1.00  0.00    -0.249 C  
HETATM    8  C   UNL     1     -12.665   8.978  71.399  1.00  0.00    -0.304 C  
HETATM    9  N   UNL     1     -11.023   9.578  69.624  1.00  0.00    -0.232 N  
HETATM   10  OXT UNL     1     -13.120   8.028  72.018  1.00  0.00    -0.313 OA 
HETATM   11  O   UNL     1     -12.606  11.178  69.066  1.00  0.00    -0.370 OA 
HETATM   12  O   UNL     1     -13.398  10.081  71.187  1.00  0.00    -0.380 OA 
ENDROOT
BRANCH   4  13
HETATM   13  C   UNL     1     -10.445   7.872  72.952  1.00  0.00    -0.355 C  
BRANCH  13  14
HETATM   14  O   UNL     1      -9.841   6.586  73.193  1.00  0.00    -0.161 OA 
BRANCH  14  15
HETATM   15  C   UNL     1     -10.527   5.501  72.782  1.00  0.00    -0.212 C  
HETATM   16  O   UNL     1     -10.074   4.526  72.203  1.00  0.00    -0.183 OA 
HETATM   17  N   UNL     1     -11.844   5.653  73.057  1.00  0.00    -0.532 N  
HETATM   18  H2  UNL     1     -12.256   6.469  73.509  1.00  0.00     0.000 HD 
HETATM   19  H1  UNL     1     -12.363   4.832  72.746  1.00  0.00     0.000 HD 
ENDBRANCH  14  15
ENDBRANCH  13  14
ENDBRANCH   4  13
BRANCH   5  20
HETATM   20  N   UNL     1      -9.703  12.218  68.489  1.00  0.00    -0.340 N  
HETATM   21  H   UNL     1      -8.799  12.178  68.958  1.00  0.00     0.000 HD 
HETATM   22  C   UNL     1     -10.142  13.542  68.301  1.00  0.00    -0.247 C  
HETATM   23  O   UNL     1      -9.390  14.449  68.622  1.00  0.00    -0.201 OA 
BRANCH  22  24
HETATM   24  C   UNL     1     -11.568  13.889  67.905  1.00  0.00    -0.342 C  
BRANCH  24  25
HETATM   25  C   UNL     1     -11.998  13.718  66.522  1.00  0.00    -0.434 A  
HETATM   26  O   UNL     1     -12.512  12.534  66.062  1.00  0.00    -0.565 OA 
HETATM   27  C   UNL     1     -11.731  14.536  65.430  1.00  0.00    -0.354 A  
HETATM   28  C   UNL     1     -12.453  12.571  64.700  1.00  0.00    -0.463 A  
HETATM   29  C   UNL     1     -11.967  13.779  64.262  1.00  0.00    -0.481 A  
ENDBRANCH  24  25
BRANCH  24  30
HETATM   30  N   UNL     1     -12.440  14.521  68.633  1.00  0.00    -0.566 NA 
HETATM   31  H   UNL     1     -13.144  15.072  68.144  1.00  0.00     0.000 HD 
BRANCH  30  32
HETATM   32  O   UNL     1     -12.490  14.508  70.024  1.00  0.00    -0.334 OA 
HETATM   33  C   UNL     1     -12.341  15.692  70.773  1.00  0.00    -0.419 C  
ENDBRANCH  30  32
ENDBRANCH  24  30
ENDBRANCH  22  24
ENDBRANCH   5  20
TORSDOF 8
ENDMDL
