MODEL        4
REMARK 921   NORMALIZED FREE ENERGY PREDICTED BY IDOCK:   -6.76 KCAL/MOL
REMARK 922        TOTAL FREE ENERGY PREDICTED BY IDOCK:  -10.61 KCAL/MOL
REMARK 923 INTER-LIGAND FREE ENERGY PREDICTED BY IDOCK:   -9.63 KCAL/MOL
REMARK 924 INTRA-LIGAND FREE ENERGY PREDICTED BY IDOCK:   -0.98 KCAL/MOL
REMARK 927      BINDING AFFINITY PREDICTED BY RF-SCORE:    0.00 PKD
ROOT
HETATM    1  C   UNL     1     -10.207   5.463  69.923  1.00  0.00    -0.351 C  
HETATM    2  C   UNL     1      -9.401   4.897  71.088  1.00  0.00    -0.150 C  
ENDROOT
BRANCH   2   3
HETATM    3  N   UNL     1     -10.181   4.621  72.307  1.00  0.00    -0.189 NA 
BRANCH   3   4
HETATM    4  C   UNL     1     -10.388   3.183  72.568  1.00  0.00    -0.106 C  
HETATM    5  C   UNL     1      -9.537   2.209  71.752  1.00  0.00    -0.205 C  
ENDBRANCH   3   4
BRANCH   3   6
HETATM    6  C   UNL     1      -9.588   5.287  73.492  1.00  0.00    -0.134 C  
BRANCH   6   7
HETATM    7  C   UNL     1     -10.409   6.440  74.096  1.00  0.00    -0.317 C  
BRANCH   7   8
HETATM    8  N   UNL     1     -11.061   7.240  73.084  1.00  0.00    -0.526 N  
HETATM    9  C   UNL     1     -10.442   8.339  72.543  1.00  0.00    -0.336 C  
HETATM   10  H   UNL     1     -11.996   6.985  72.767  1.00  0.00     0.000 HD 
HETATM   11  O   UNL     1      -9.309   8.680  72.875  1.00  0.00    -0.241 OA 
BRANCH   9  12
HETATM   12  C   UNL     1     -11.204   9.056  71.517  1.00  0.00    -0.418 A  
HETATM   13  C   UNL     1     -12.537   9.453  71.540  1.00  0.00    -0.362 A  
HETATM   14  C   UNL     1     -13.618   9.331  72.557  1.00  0.00    -0.478 C  
HETATM   15  N   UNL     1     -12.795  10.126  70.364  1.00  0.00    -0.566 NA 
HETATM   16  H   UNL     1     -13.706  10.504  70.102  1.00  0.00     0.000 HD 
HETATM   17  C   UNL     1     -11.667  10.218  69.596  1.00  0.00    -0.160 A  
HETATM   18  C   UNL     1     -10.653   9.561  70.282  1.00  0.00    -0.317 A  
HETATM   19  C   UNL     1      -9.231   9.395  69.847  1.00  0.00    -0.226 C  
BRANCH  17  20
HETATM   20  C   UNL     1     -11.631  10.891  68.348  1.00  0.00    -0.346 C  
HETATM   21  C   UNL     1     -11.766  12.191  68.055  1.00  0.00    -0.409 C  
HETATM   22  C   UNL     1     -12.011  13.401  68.920  1.00  0.00    -0.324 C  
HETATM   23  N   UNL     1     -12.062  14.474  68.037  1.00  0.00    -0.574 N  
HETATM   24  O   UNL     1     -12.140  13.445  70.127  1.00  0.00    -0.333 OA 
HETATM   25  C   UNL     1     -11.875  14.063  66.720  1.00  0.00    -0.424 A  
HETATM   26  H   UNL     1     -12.217  15.442  68.319  1.00  0.00     0.000 HD 
HETATM   27  C   UNL     1     -11.686  12.679  66.666  1.00  0.00    -0.464 A  
HETATM   28  C   UNL     1     -11.475  12.044  65.454  1.00  0.00    -0.361 A  
HETATM   29  C   UNL     1     -11.465  12.830  64.306  1.00  0.00    -0.373 A  
HETATM   30  F   UNL     1     -11.267  12.244  63.118  1.00  0.00    -0.455 F  
HETATM   31  C   UNL     1     -11.659  14.217  64.361  1.00  0.00    -0.358 A  
HETATM   32  C   UNL     1     -11.867  14.855  65.587  1.00  0.00    -0.131 A  
ENDBRANCH  17  20
ENDBRANCH   9  12
ENDBRANCH   7   8
ENDBRANCH   6   7
ENDBRANCH   3   6
ENDBRANCH   2   3
TORSDOF 7
ENDMDL
