MODEL       93
REMARK 921   NORMALIZED FREE ENERGY PREDICTED BY IDOCK:   -4.78 KCAL/MOL
REMARK 922        TOTAL FREE ENERGY PREDICTED BY IDOCK:   -6.71 KCAL/MOL
REMARK 923 INTER-LIGAND FREE ENERGY PREDICTED BY IDOCK:   -5.85 KCAL/MOL
REMARK 924 INTRA-LIGAND FREE ENERGY PREDICTED BY IDOCK:   -0.85 KCAL/MOL
REMARK 927      BINDING AFFINITY PREDICTED BY RF-SCORE:    0.00 PKD
ROOT
HETATM    1  C   UNL     1     -11.828  16.181  67.104  1.00  0.00     0.821 C  
HETATM    2  N   UNL     1     -11.172  14.906  66.845  1.00  0.00    -0.342 N  
HETATM    3  C   UNL     1     -11.852  14.088  65.966  1.00  0.00    -0.388 C  
HETATM    4  O   UNL     1     -12.944  14.339  65.451  1.00  0.00    -0.654 OA 
HETATM    5  C   UNL     1     -11.233  12.804  65.615  1.00  0.00    -0.301 C  
HETATM    6  O   UNL     1     -11.908  12.030  64.688  1.00  0.00    -0.330 OA 
HETATM    7  C   UNL     1     -10.084  12.489  66.227  1.00  0.00    -0.250 C  
HETATM    8  N   UNL     1      -9.464  13.307  67.161  1.00  0.00    -0.231 NA 
HETATM    9  H   UNL     1      -9.441  17.507  68.522  1.00  0.00     0.000 HD 
HETATM   10  H   UNL     1     -11.508  11.199  64.461  1.00  0.00     0.000 HD 
HETATM   11  C   UNL     1      -9.994  14.471  67.441  1.00  0.00    -0.227 C  
HETATM   12  C   UNL     1      -7.943  17.045  67.178  1.00  0.00    -0.188 C  
HETATM   13  C   UNL     1     -10.210  15.521  69.793  1.00  0.00    -0.301 C  
HETATM   14  C   UNL     1      -8.025  14.645  69.105  1.00  0.00    -0.097 C  
HETATM   15  C   UNL     1      -9.281  15.368  68.564  1.00  0.00    -0.198 C  
HETATM   16  O   UNL     1      -7.400  16.183  66.493  1.00  0.00    -0.187 OA 
HETATM   17  N   UNL     1      -8.923  16.730  68.112  1.00  0.00    -0.218 N  
ENDROOT
BRANCH   7  18
HETATM   18  C   UNL     1      -9.453  11.159  65.823  1.00  0.00    -0.221 C  
HETATM   19  H   UNL     1      -9.930  10.317  67.676  1.00  0.00     0.000 HD 
HETATM   20  N   UNL     1      -9.523  10.148  66.756  1.00  0.00    -0.163 N  
HETATM   21  O   UNL     1      -8.919  10.958  64.735  1.00  0.00    -0.191 OA 
BRANCH  20  22
HETATM   22  C   UNL     1      -9.008   8.838  66.405  1.00  0.00    -0.158 C  
BRANCH  22  23
HETATM   23  C   UNL     1      -8.070   8.235  67.420  1.00  0.00    -0.121 A  
HETATM   24  C   UNL     1      -8.279   6.910  67.847  1.00  0.00    -0.114 A  
HETATM   25  C   UNL     1      -6.932   8.920  67.875  1.00  0.00    -0.078 A  
HETATM   26  C   UNL     1      -7.406   6.310  68.756  1.00  0.00    -0.086 A  
HETATM   27  C   UNL     1      -6.315   7.027  69.230  1.00  0.00    -0.035 A  
HETATM   28  C   UNL     1      -6.065   8.321  68.790  1.00  0.00    -0.044 A  
HETATM   29  F   UNL     1      -5.487   6.460  70.116  1.00  0.00    -0.013 F  
ENDBRANCH  22  23
ENDBRANCH  20  22
ENDBRANCH   7  18
BRANCH  12  30
HETATM   30  C   UNL     1      -7.643  18.469  67.102  1.00  0.00    -0.223 A  
HETATM   31  N   UNL     1      -8.422  19.445  67.534  1.00  0.00    -0.286 NA 
HETATM   32  C   UNL     1      -6.635  20.291  66.660  1.00  0.00    -0.224 A  
HETATM   33  N   UNL     1      -7.765  20.624  67.246  1.00  0.00    -0.337 NA 
HETATM   34  C   UNL     1      -5.566  21.156  66.123  1.00  0.00    -0.285 C  
HETATM   35  O   UNL     1      -6.478  18.933  66.538  1.00  0.00    -0.185 OA 
ENDBRANCH  12  30
TORSDOF 4
ENDMDL
