MODEL      350
REMARK 921   NORMALIZED FREE ENERGY PREDICTED BY IDOCK:    1.05 KCAL/MOL
REMARK 922        TOTAL FREE ENERGY PREDICTED BY IDOCK:    0.35 KCAL/MOL
REMARK 923 INTER-LIGAND FREE ENERGY PREDICTED BY IDOCK:   -0.97 KCAL/MOL
REMARK 924 INTRA-LIGAND FREE ENERGY PREDICTED BY IDOCK:    1.32 KCAL/MOL
REMARK 927      BINDING AFFINITY PREDICTED BY RF-SCORE:    0.00 PKD
ROOT
HETATM    1  C   UNL     1     -12.072  19.826  66.430  1.00  0.00     2.896 C  
HETATM    2  C   UNL     1     -10.760  19.779  67.195  1.00  0.00    -0.547 C  
ENDROOT
BRANCH   2   3
HETATM    3  C   UNL     1     -10.057  18.438  67.003  1.00  0.00    -0.382 C  
BRANCH   3   4
HETATM    4  C   UNL     1      -8.652  18.630  66.443  1.00  0.00    -0.284 C  
BRANCH   4   5
HETATM    5  C   UNL     1      -7.820  17.365  66.628  1.00  0.00    -0.292 C  
BRANCH   5   6
HETATM    6  C   UNL     1      -8.128  16.708  67.968  1.00  0.00    -0.181 C  
BRANCH   6   7
HETATM    7  C   UNL     1      -8.744  15.331  67.757  1.00  0.00    -0.168 C  
BRANCH   7   8
HETATM    8  C   UNL     1      -8.838  14.582  69.080  1.00  0.00    -0.039 C  
BRANCH   8   9
HETATM    9  C   UNL     1     -10.289  14.486  69.526  1.00  0.00    -0.028 C  
BRANCH   9  10
HETATM   10  C   UNL     1     -11.098  13.654  68.545  1.00  0.00    -0.301 C  
BRANCH  10  11
HETATM   11  C   UNL     1     -10.197  13.151  67.428  1.00  0.00    -0.232 C  
BRANCH  11  12
HETATM   12  C   UNL     1     -10.619  11.760  66.990  1.00  0.00    -0.267 C  
BRANCH  12  13
HETATM   13  C   UNL     1      -9.716  10.714  67.630  1.00  0.00    -0.186 C  
BRANCH  13  14
HETATM   14  C   UNL     1      -8.419  11.365  68.067  1.00  0.00    -0.145 C  
BRANCH  14  15
HETATM   15  C   UNL     1      -7.335  11.208  67.010  1.00  0.00    -0.128 C  
BRANCH  15  16
HETATM   16  C   UNL     1      -7.337   9.768  66.548  1.00  0.00    -0.095 C  
BRANCH  16  17
HETATM   17  O   UNL     1      -6.433   9.595  65.464  1.00  0.00    -0.072 OA 
BRANCH  17  18
HETATM   18  P   UNL     1      -5.832   7.977  65.352  1.00  0.00    -0.037 P  
HETATM   19  O   UNL     1      -6.674   7.782  64.087  1.00  0.00    -0.055 OA 
HETATM   20  O   UNL     1      -6.314   7.633  66.760  1.00  0.00    -0.047 OA 
BRANCH  18  21
HETATM   21  O   UNL     1      -5.230   6.359  65.241  1.00  0.00    -0.013 OA 
BRANCH  21  22
HETATM   22  C   UNL     1      -6.202   5.353  65.515  1.00  0.00    -0.034 C  
BRANCH  22  23
HETATM   23  C   UNL     1      -6.046   4.766  66.901  1.00  0.00    -0.031 C  
BRANCH  23  24
HETATM   24  N   UNL     1      -7.256   4.969  67.839  1.00  0.00    -0.066 N  
HETATM   25  C   UNL     1      -6.935   6.156  68.727  1.00  0.00    -0.076 C  
HETATM   26  C   UNL     1      -7.456   3.724  68.705  1.00  0.00    -0.054 C  
HETATM   27  C   UNL     1      -8.521   5.243  67.045  1.00  0.00    -0.106 C  
ENDBRANCH  23  24
ENDBRANCH  22  23
ENDBRANCH  21  22
ENDBRANCH  18  21
ENDBRANCH  17  18
ENDBRANCH  16  17
ENDBRANCH  15  16
ENDBRANCH  14  15
ENDBRANCH  13  14
ENDBRANCH  12  13
ENDBRANCH  11  12
ENDBRANCH  10  11
ENDBRANCH   9  10
ENDBRANCH   8   9
ENDBRANCH   7   8
ENDBRANCH   6   7
ENDBRANCH   5   6
ENDBRANCH   4   5
ENDBRANCH   3   4
ENDBRANCH   2   3
TORSDOF 20
ENDMDL
