MODEL      172
REMARK 921   NORMALIZED FREE ENERGY PREDICTED BY IDOCK:   -0.34 KCAL/MOL
REMARK 922        TOTAL FREE ENERGY PREDICTED BY IDOCK:   -0.65 KCAL/MOL
REMARK 923 INTER-LIGAND FREE ENERGY PREDICTED BY IDOCK:   -1.77 KCAL/MOL
REMARK 924 INTRA-LIGAND FREE ENERGY PREDICTED BY IDOCK:    1.12 KCAL/MOL
REMARK 927      BINDING AFFINITY PREDICTED BY RF-SCORE:    0.00 PKD
ROOT
HETATM    1  F   UNL     1     -12.281  18.782  66.134  1.00  0.00     2.646 F  
HETATM    2  C   UNL     1     -11.129  18.389  66.692  1.00  0.00     0.385 A  
HETATM    3  C   UNL     1     -10.499  17.242  66.225  1.00  0.00    -0.268 A  
HETATM    4  C   UNL     1      -9.317  16.810  66.831  1.00  0.00    -0.250 A  
HETATM    5  C   UNL     1      -8.754  17.526  67.908  1.00  0.00    -0.247 A  
HETATM    6  C   UNL     1      -9.390  18.708  68.329  1.00  0.00    -0.359 A  
HETATM    7  C   UNL     1     -10.579  19.131  67.730  1.00  0.00    -0.498 A  
ENDROOT
BRANCH   5   8
HETATM    8  C   UNL     1      -7.464  17.023  68.575  1.00  0.00    -0.221 C  
BRANCH   8   9
HETATM    9  N   UNL     1      -6.592  16.265  67.624  1.00  0.00    -0.134 NA 
HETATM   10  C   UNL     1      -7.312  15.132  66.981  1.00  0.00     0.020 C  
HETATM   11  C   UNL     1      -5.392  15.689  68.279  1.00  0.00    -0.108 C  
HETATM   12  C   UNL     1      -7.571  13.905  67.894  1.00  0.00    -0.156 C  
HETATM   13  N   UNL     1      -6.389  13.388  68.624  1.00  0.00    -0.084 NA 
HETATM   14  C   UNL     1      -5.683  14.522  69.252  1.00  0.00    -0.092 C  
BRANCH  13  15
HETATM   15  C   UNL     1      -5.457  12.625  67.777  1.00  0.00    -0.116 C  
BRANCH  15  16
HETATM   16  C   UNL     1      -6.164  11.596  66.957  1.00  0.00    -0.144 C  
HETATM   17  C   UNL     1      -5.726  11.178  65.760  1.00  0.00    -0.005 C  
BRANCH  17  18
HETATM   18  C   UNL     1      -6.587  10.334  64.941  1.00  0.00    -0.105 A  
HETATM   19  C   UNL     1      -6.102   9.887  63.706  1.00  0.00    -0.123 A  
HETATM   20  C   UNL     1      -6.931   9.169  62.847  1.00  0.00    -0.091 A  
HETATM   21  C   UNL     1      -8.244   8.893  63.224  1.00  0.00    -0.182 A  
HETATM   22  C   UNL     1      -8.726   9.325  64.461  1.00  0.00    -0.218 A  
HETATM   23  C   UNL     1      -7.898  10.046  65.322  1.00  0.00    -0.138 A  
ENDBRANCH  17  18
ENDBRANCH  15  16
ENDBRANCH  13  15
ENDBRANCH   8   9
BRANCH   8  24
HETATM   24  C   UNL     1      -6.740  18.170  69.312  1.00  0.00    -0.217 A  
HETATM   25  C   UNL     1      -6.345  20.569  69.568  1.00  0.00    -0.191 A  
HETATM   26  F   UNL     1      -5.127  21.354  71.429  1.00  0.00    -0.101 F  
HETATM   27  C   UNL     1      -6.900  19.496  68.861  1.00  0.00    -0.376 A  
HETATM   28  C   UNL     1      -5.409  19.029  71.170  1.00  0.00    -0.271 A  
HETATM   29  C   UNL     1      -5.947  17.951  70.456  1.00  0.00     0.178 A  
HETATM   30  C   UNL     1      -5.619  20.326  70.725  1.00  0.00    -0.298 A  
ENDBRANCH   8  24
ENDBRANCH   5   8
TORSDOF 6
ENDMDL
