MODEL       75
REMARK 921   NORMALIZED FREE ENERGY PREDICTED BY IDOCK:   -4.53 KCAL/MOL
REMARK 922        TOTAL FREE ENERGY PREDICTED BY IDOCK:  -10.06 KCAL/MOL
REMARK 923 INTER-LIGAND FREE ENERGY PREDICTED BY IDOCK:   -9.29 KCAL/MOL
REMARK 924 INTRA-LIGAND FREE ENERGY PREDICTED BY IDOCK:   -0.76 KCAL/MOL
REMARK 927      BINDING AFFINITY PREDICTED BY RF-SCORE:    0.00 PKD
ROOT
HETATM    1  C   UNL     1      -8.035  17.478  65.835  1.00  0.00    -0.036 C  
HETATM    2  O   UNL     1      -9.414  17.808  65.747  1.00  0.00    -0.518 OA 
ENDROOT
BRANCH   2   3
HETATM    3  C   UNL     1     -10.321  16.807  66.091  1.00  0.00    -0.330 C  
HETATM    4  C   UNL     1     -10.434  16.466  67.388  1.00  0.00    -0.309 C  
HETATM    5  C   UNL     1     -11.384  15.377  67.765  1.00  0.00    -0.306 C  
HETATM    6  O   UNL     1     -11.307  16.515  63.920  1.00  0.00    -1.057 OA 
HETATM    7  O   UNL     1     -11.839  15.245  68.896  1.00  0.00    -0.338 OA 
HETATM    8  C   UNL     1     -11.123  16.079  65.050  1.00  0.00    -0.336 C  
HETATM    9  C   UNL     1     -11.742  14.394  66.704  1.00  0.00    -0.410 C  
HETATM   10  C   UNL     1     -12.058  13.879  64.248  1.00  0.00    -0.477 C  
HETATM   11  C   UNL     1     -11.651  14.740  65.410  1.00  0.00    -0.316 C  
BRANCH   4  12
HETATM   12  O   UNL     1      -9.665  17.153  68.326  1.00  0.00    -0.259 OA 
HETATM   13  C   UNL     1     -10.157  18.389  68.830  1.00  0.00    -0.363 C  
ENDBRANCH   4  12
BRANCH   9  14
HETATM   14  C   UNL     1     -12.170  13.046  67.197  1.00  0.00    -0.200 C  
BRANCH  14  15
HETATM   15  C   UNL     1     -11.003  12.070  67.358  1.00  0.00    -0.311 C  
BRANCH  15  16
HETATM   16  C   UNL     1     -10.633  11.868  68.827  1.00  0.00    -0.234 C  
BRANCH  16  17
HETATM   17  C   UNL     1     -11.857  11.971  69.729  1.00  0.00    -0.401 C  
BRANCH  17  18
HETATM   18  C   UNL     1     -12.400  10.608  70.116  1.00  0.00    -0.370 C  
BRANCH  18  19
HETATM   19  C   UNL     1     -12.999  10.692  71.514  1.00  0.00    -0.566 C  
BRANCH  19  20
HETATM   20  C   UNL     1     -13.070   9.313  72.145  1.00  0.00    -0.520 C  
BRANCH  20  21
HETATM   21  C   UNL     1     -11.863   8.479  71.741  1.00  0.00    -0.395 C  
BRANCH  21  22
HETATM   22  C   UNL     1     -12.234   7.004  71.722  1.00  0.00    -0.387 C  
BRANCH  22  23
HETATM   23  C   UNL     1     -11.221   6.181  72.508  1.00  0.00    -0.327 C  
BRANCH  23  24
HETATM   24  C   UNL     1     -10.207   5.543  71.568  1.00  0.00    -0.270 C  
BRANCH  24  25
HETATM   25  C   UNL     1      -8.829   6.160  71.747  1.00  0.00    -0.138 C  
HETATM   26  O   UNL     1      -8.413   6.016  73.097  1.00  0.00    -0.119 OA 
HETATM   27  H   UNL     1      -7.552   6.402  73.209  1.00  0.00     0.000 HD 
ENDBRANCH  24  25
ENDBRANCH  23  24
ENDBRANCH  22  23
ENDBRANCH  21  22
ENDBRANCH  20  21
ENDBRANCH  19  20
ENDBRANCH  18  19
ENDBRANCH  17  18
ENDBRANCH  16  17
ENDBRANCH  15  16
ENDBRANCH  14  15
ENDBRANCH   9  14
ENDBRANCH   2   3
TORSDOF 14
ENDMDL
