MODEL       17
REMARK 921   NORMALIZED FREE ENERGY PREDICTED BY IDOCK:   -6.32 KCAL/MOL
REMARK 922        TOTAL FREE ENERGY PREDICTED BY IDOCK:  -12.35 KCAL/MOL
REMARK 923 INTER-LIGAND FREE ENERGY PREDICTED BY IDOCK:  -11.02 KCAL/MOL
REMARK 924 INTRA-LIGAND FREE ENERGY PREDICTED BY IDOCK:   -1.34 KCAL/MOL
REMARK 927      BINDING AFFINITY PREDICTED BY RF-SCORE:    0.00 PKD
ROOT
HETATM    1  C   UNL     1     -12.169  12.195  63.409  1.00  0.00    -0.635 C  
HETATM    2  C   UNL     1     -11.106  12.154  64.524  1.00  0.00    -0.375 C  
HETATM    3  C   UNL     1     -10.412  10.787  64.484  1.00  0.00    -0.351 C  
HETATM    4  C   UNL     1     -10.081  13.267  64.256  1.00  0.00    -0.089 C  
ENDROOT
BRANCH   2   5
HETATM    5  C   UNL     1     -11.796  12.408  65.874  1.00  0.00    -0.405 C  
HETATM    6  O   UNL     1     -11.942  11.540  66.729  1.00  0.00    -0.470 OA 
BRANCH   5   7
HETATM    7  O   UNL     1     -12.314  13.664  65.979  1.00  0.00    -0.432 OA 
BRANCH   7   8
HETATM    8  C   UNL     1     -12.349  14.181  67.323  1.00  0.00    -0.147 C  
BRANCH   8   9
HETATM    9  O   UNL     1     -11.072  14.565  67.824  1.00  0.00    -0.267 OA 
HETATM   10  P   UNL     1     -11.047  15.967  68.651  1.00  0.00    -0.373 P  
HETATM   11  C   UNL     1     -12.098  15.674  70.094  1.00  0.00    -0.377 C  
HETATM   12  O   UNL     1     -11.402  17.161  67.825  1.00  0.00    -0.051 OA 
HETATM   13  O   UNL     1      -9.619  16.020  69.392  1.00  0.00    -0.247 OA 
BRANCH  13  14
HETATM   14  C   UNL     1      -8.423  16.335  68.740  1.00  0.00    -0.240 C  
BRANCH  14  15
HETATM   15  O   UNL     1      -8.309  17.772  68.613  1.00  0.00    -0.298 OA 
BRANCH  15  16
HETATM   16  C   UNL     1      -8.350  18.261  67.341  1.00  0.00    -0.244 C  
HETATM   17  O   UNL     1      -7.927  17.657  66.362  1.00  0.00    -0.247 OA 
BRANCH  16  18
HETATM   18  C   UNL     1      -8.980  19.669  67.273  1.00  0.00    -0.387 C  
HETATM   19  C   UNL     1      -9.873  19.774  66.020  1.00  0.00    -0.497 C  
HETATM   20  C   UNL     1      -7.884  20.738  67.174  1.00  0.00    -0.288 C  
HETATM   21  C   UNL     1      -9.857  19.935  68.505  1.00  0.00    -0.463 C  
ENDBRANCH  16  18
ENDBRANCH  15  16
ENDBRANCH  14  15
ENDBRANCH  13  14
BRANCH  11  22
HETATM   22  O   UNL     1     -11.503  14.548  70.744  1.00  0.00    -0.242 OA 
BRANCH  22  23
HETATM   23  C   UNL     1     -12.423  13.507  71.000  1.00  0.00    -0.369 C  
BRANCH  23  24
HETATM   24  C   UNL     1     -12.025  12.297  70.168  1.00  0.00    -0.298 C  
BRANCH  24  25
HETATM   25  N   UNL     1     -12.201  11.089  70.930  1.00  0.00    -0.362 NA 
HETATM   26  C   UNL     1     -11.654   9.882  70.615  1.00  0.00    -0.335 A  
HETATM   27  N   UNL     1     -10.729   9.619  69.677  1.00  0.00    -0.229 NA 
HETATM   28  H2  UNL     1     -13.635   6.700  71.780  1.00  0.00     0.000 HD 
HETATM   29  H1  UNL     1     -12.405   5.610  71.780  1.00  0.00     0.000 HD 
HETATM   30  C   UNL     1     -13.105  10.895  71.940  1.00  0.00    -0.432 A  
HETATM   31  N   UNL     1     -13.202   9.624  72.265  1.00  0.00    -0.434 NA 
HETATM   32  C   UNL     1     -12.316   8.975  71.422  1.00  0.00    -0.318 A  
HETATM   33  C   UNL     1     -12.007   7.621  71.228  1.00  0.00    -0.306 A  
HETATM   34  N   UNL     1     -12.630   6.595  71.921  1.00  0.00    -0.324 NA 
HETATM   35  N   UNL     1     -11.054   7.301  70.319  1.00  0.00    -0.264 NA 
HETATM   36  C   UNL     1     -10.479   8.298  69.609  1.00  0.00    -0.221 A  
ENDBRANCH  24  25
ENDBRANCH  23  24
ENDBRANCH  22  23
ENDBRANCH  11  22
ENDBRANCH   8   9
ENDBRANCH   7   8
ENDBRANCH   5   7
ENDBRANCH   2   5
TORSDOF 12
ENDMDL
