MODEL       25
REMARK 921   NORMALIZED FREE ENERGY PREDICTED BY IDOCK:   -6.62 KCAL/MOL
REMARK 922        TOTAL FREE ENERGY PREDICTED BY IDOCK:   -8.73 KCAL/MOL
REMARK 923 INTER-LIGAND FREE ENERGY PREDICTED BY IDOCK:   -8.06 KCAL/MOL
REMARK 924 INTRA-LIGAND FREE ENERGY PREDICTED BY IDOCK:   -0.67 KCAL/MOL
REMARK 927      BINDING AFFINITY PREDICTED BY RF-SCORE:    0.00 PKD
ROOT
HETATM    1  O   UNL     1     -12.930   9.090  73.188  1.00  0.00    -0.142 OA 
HETATM    2  N   UNL     1     -12.057   8.526  72.515  1.00  0.00    -0.375 N  
HETATM    3  O   UNL     1     -11.445   7.509  72.866  1.00  0.00    -0.328 OA 
HETATM    4  C   UNL     1     -11.725   9.105  71.205  1.00  0.00    -0.326 A  
HETATM    5  C   UNL     1     -12.391  10.253  70.772  1.00  0.00    -0.445 A  
HETATM    6  C   UNL     1     -12.097  10.788  69.514  1.00  0.00    -0.344 A  
HETATM    7  C   UNL     1     -11.144  10.193  68.665  1.00  0.00    -0.254 A  
HETATM    8  C   UNL     1     -10.472   9.049  69.128  1.00  0.00    -0.239 A  
HETATM    9  C   UNL     1     -10.759   8.503  70.391  1.00  0.00    -0.246 A  
ENDROOT
BRANCH   7  10
HETATM   10  C   UNL     1     -10.907  10.765  67.337  1.00  0.00    -0.290 A  
HETATM   11  C   UNL     1      -9.826  10.742  66.475  1.00  0.00    -0.246 A  
HETATM   12  C   UNL     1     -10.177  11.517  65.346  1.00  0.00    -0.311 A  
HETATM   13  C   UNL     1     -11.460  11.974  65.565  1.00  0.00    -0.313 A  
HETATM   14  O   UNL     1     -11.910  11.513  66.778  1.00  0.00    -0.511 OA 
BRANCH  13  15
HETATM   15  C   UNL     1     -12.328  12.813  64.783  1.00  0.00    -0.478 C  
BRANCH  15  16
HETATM   16  N   UNL     1     -12.847  13.893  65.285  1.00  0.00    -0.749 NA 
HETATM   17  H   UNL     1     -13.857  14.037  65.298  1.00  0.00     0.000 HD 
BRANCH  16  18
HETATM   18  N   UNL     1     -11.987  14.833  65.795  1.00  0.00    -0.224 N  
HETATM   19  C   UNL     1     -11.090  15.557  64.921  1.00  0.00    -0.416 C  
HETATM   20  C   UNL     1     -10.151  16.173  65.940  1.00  0.00    -0.354 C  
HETATM   21  N   UNL     1     -10.550  15.825  67.189  1.00  0.00    -0.310 NA 
HETATM   22  O   UNL     1      -9.172  16.861  65.687  1.00  0.00    -0.512 OA 
HETATM   23  C   UNL     1     -11.586  14.950  67.138  1.00  0.00    -0.315 C  
HETATM   24  O   UNL     1     -12.031  14.359  68.111  1.00  0.00    -0.328 OA 
ENDBRANCH  16  18
ENDBRANCH  15  16
ENDBRANCH  13  15
ENDBRANCH   7  10
TORSDOF 4
ENDMDL
