MODEL       10
REMARK 921   NORMALIZED FREE ENERGY PREDICTED BY IDOCK:   -7.06 KCAL/MOL
REMARK 922        TOTAL FREE ENERGY PREDICTED BY IDOCK:  -12.54 KCAL/MOL
REMARK 923 INTER-LIGAND FREE ENERGY PREDICTED BY IDOCK:  -11.65 KCAL/MOL
REMARK 924 INTRA-LIGAND FREE ENERGY PREDICTED BY IDOCK:   -0.89 KCAL/MOL
REMARK 927      BINDING AFFINITY PREDICTED BY RF-SCORE:    0.00 PKD
ROOT
HETATM    1  C   UNL     1     -12.177  12.372  64.725  1.00  0.00    -0.423 C  
HETATM    2  O   UNL     1     -12.149  12.583  66.130  1.00  0.00    -0.571 OA 
ENDROOT
BRANCH   2   3
HETATM    3  C   UNL     1     -11.163  13.391  66.633  1.00  0.00    -0.309 A  
HETATM    4  C   UNL     1     -10.946  14.717  66.233  1.00  0.00    -0.330 A  
HETATM    5  C   UNL     1      -9.938  15.493  66.828  1.00  0.00    -0.257 A  
HETATM    6  C   UNL     1     -10.360  12.827  67.645  1.00  0.00    -0.221 A  
HETATM    7  C   UNL     1      -9.200  14.966  67.887  1.00  0.00    -0.183 A  
HETATM    8  C   UNL     1      -9.424  13.651  68.296  1.00  0.00    -0.213 A  
BRANCH   5   9
HETATM    9  C   UNL     1      -9.671  16.849  66.284  1.00  0.00    -0.280 C  
HETATM   10  N   UNL     1      -8.664  17.576  66.935  1.00  0.00    -0.243 N  
HETATM   11  H   UNL     1      -8.238  17.156  67.761  1.00  0.00     0.000 HD 
HETATM   12  O   UNL     1     -10.308  17.280  65.338  1.00  0.00    -0.626 OA 
BRANCH  10  13
HETATM   13  S   UNL     1      -8.111  19.070  66.460  1.00  0.00    -0.297 S  
HETATM   14  O   UNL     1      -9.241  19.977  66.449  1.00  0.00    -0.365 OA 
HETATM   15  O   UNL     1      -7.350  18.838  65.248  1.00  0.00    -0.443 OA 
BRANCH  13  16
HETATM   16  C   UNL     1      -6.963  19.572  67.727  1.00  0.00    -0.242 A  
HETATM   17  C   UNL     1      -7.034  18.910  68.963  1.00  0.00    -0.342 A  
HETATM   18  C   UNL     1      -5.913  21.376  66.236  1.00  0.00    -0.296 C  
HETATM   19  C   UNL     1      -6.174  19.265  70.001  1.00  0.00    -0.238 A  
HETATM   20  C   UNL     1      -6.030  20.609  67.521  1.00  0.00    -0.284 A  
HETATM   21  C   UNL     1      -5.242  20.280  69.809  1.00  0.00    -0.281 A  
HETATM   22  C   UNL     1      -5.170  20.945  68.582  1.00  0.00    -0.354 A  
ENDBRANCH  13  16
ENDBRANCH  10  13
ENDBRANCH   5   9
BRANCH   6  23
HETATM   23  C   UNL     1     -10.505  11.386  68.082  1.00  0.00    -0.212 C  
BRANCH  23  24
HETATM   24  C   UNL     1     -11.462  11.289  69.245  1.00  0.00    -0.369 A  
HETATM   25  N   UNL     1     -12.685  11.915  71.013  1.00  0.00    -0.316 NA 
HETATM   26  C   UNL     1     -12.498  10.558  71.166  1.00  0.00    -0.412 A  
HETATM   27  C   UNL     1     -11.744  10.144  70.069  1.00  0.00    -0.294 A  
HETATM   28  C   UNL     1     -12.153  12.341  69.823  1.00  0.00    -0.229 A  
HETATM   29  C   UNL     1     -13.259  12.784  72.017  1.00  0.00    -0.436 C  
HETATM   30  C   UNL     1     -11.387   8.784  70.002  1.00  0.00    -0.040 A  
HETATM   31  C   UNL     1     -11.835   7.853  70.947  1.00  0.00    -0.229 A  
HETATM   32  C   UNL     1     -12.557   8.310  72.048  1.00  0.00    -0.387 A  
HETATM   33  C   UNL     1     -12.889   9.669  72.185  1.00  0.00    -0.460 A  
BRANCH  31  34
HETATM   34  N   UNL     1     -11.599   6.464  70.813  1.00  0.00    -0.356 N  
HETATM   35  H   UNL     1     -12.407   5.872  70.623  1.00  0.00     0.000 HD 
HETATM   36  C   UNL     1     -10.382   5.844  70.917  1.00  0.00    -0.229 C  
HETATM   37  O   UNL     1      -9.312   6.369  71.180  1.00  0.00    -0.159 OA 
BRANCH  36  38
HETATM   38  O   UNL     1     -10.496   4.506  70.668  1.00  0.00    -0.069 OA 
BRANCH  38  39
HETATM   39  C   UNL     1      -9.476   3.742  71.317  1.00  0.00    -0.159 C  
HETATM   40  C   UNL     1     -10.070   2.752  72.315  1.00  0.00    -0.225 C  
HETATM   41  C   UNL     1      -8.945   1.755  72.510  1.00  0.00    -0.085 C  
HETATM   42  C   UNL     1      -8.352   1.587  71.115  1.00  0.00    -0.060 C  
HETATM   43  C   UNL     1      -8.709   2.858  70.337  1.00  0.00    -0.128 C  
ENDBRANCH  38  39
ENDBRANCH  36  38
ENDBRANCH  31  34
ENDBRANCH  23  24
ENDBRANCH   6  23
ENDBRANCH   2   3
TORSDOF 9
ENDMDL
