MODEL      153
REMARK 921   NORMALIZED FREE ENERGY PREDICTED BY IDOCK:   -6.00 KCAL/MOL
REMARK 922        TOTAL FREE ENERGY PREDICTED BY IDOCK:   -8.22 KCAL/MOL
REMARK 923 INTER-LIGAND FREE ENERGY PREDICTED BY IDOCK:   -8.11 KCAL/MOL
REMARK 924 INTRA-LIGAND FREE ENERGY PREDICTED BY IDOCK:   -0.11 KCAL/MOL
REMARK 927      BINDING AFFINITY PREDICTED BY RF-SCORE:    0.00 PKD
ROOT
HETATM    1  C   UNL     1     -12.246  14.458  64.235  1.00  0.00    -0.423 C  
HETATM    2  N   UNL     1     -10.942  14.354  64.891  1.00  0.00    -0.387 NA 
ENDROOT
BRANCH   2   3
HETATM    3  C   UNL     1     -10.419  15.540  65.486  1.00  0.00    -0.386 A  
HETATM    4  C   UNL     1     -10.807  18.028  65.854  1.00  0.00     0.025 A  
HETATM    5  C   UNL     1      -9.510  20.352  67.571  1.00  0.00    -0.532 C  
HETATM    6  C   UNL     1      -9.240  15.510  66.278  1.00  0.00    -0.364 A  
HETATM    7  C   UNL     1      -8.884  16.740  66.862  1.00  0.00    -0.218 A  
HETATM    8  C   UNL     1      -9.669  17.922  66.640  1.00  0.00    -0.319 A  
HETATM    9  C   UNL     1      -9.105  18.937  67.375  1.00  0.00    -0.279 A  
HETATM   10  N   UNL     1      -7.851  17.042  67.665  1.00  0.00    -0.169 NA 
HETATM   11  N   UNL     1      -8.014  18.348  67.970  1.00  0.00    -0.268 NA 
HETATM   12  C   UNL     1      -7.066  18.974  68.864  1.00  0.00    -0.328 C  
HETATM   13  C   UNL     1     -11.140  16.778  65.283  1.00  0.00     0.005 A  
ENDBRANCH   2   3
BRANCH   2  14
HETATM   14  C   UNL     1     -10.408  13.060  65.078  1.00  0.00    -0.318 A  
HETATM   15  C   UNL     1      -9.539  11.479  66.548  1.00  0.00    -0.205 A  
HETATM   16  N   UNL     1      -9.254  10.608  65.575  1.00  0.00    -0.186 NA 
HETATM   17  C   UNL     1      -9.603  10.980  64.333  1.00  0.00    -0.259 A  
HETATM   18  C   UNL     1     -10.190  12.187  64.030  1.00  0.00    -0.396 A  
HETATM   19  N   UNL     1     -10.084  12.684  66.329  1.00  0.00    -0.248 NA 
BRANCH  15  20
HETATM   20  N   UNL     1      -9.209  11.104  67.849  1.00  0.00    -0.150 NA 
HETATM   21  H   UNL     1      -8.260  11.326  68.150  1.00  0.00     0.000 HD 
BRANCH  20  22
HETATM   22  C   UNL     1     -10.016  10.459  68.795  1.00  0.00    -0.188 A  
HETATM   23  C   UNL     1     -11.157  11.104  69.275  1.00  0.00    -0.318 A  
HETATM   24  C   UNL     1     -12.033  10.454  70.151  1.00  0.00    -0.357 A  
HETATM   25  C   UNL     1     -11.790   9.139  70.588  1.00  0.00    -0.222 A  
HETATM   26  C   UNL     1     -10.621   8.501  70.138  1.00  0.00    -0.232 A  
HETATM   27  C   UNL     1     -12.784   8.502  71.513  1.00  0.00    -0.340 C  
HETATM   28  C   UNL     1      -9.758   9.158  69.245  1.00  0.00    -0.164 A  
BRANCH  26  29
HETATM   29  S   UNL     1     -10.110   6.878  70.690  1.00  0.00    -0.194 S  
HETATM   30  O   UNL     1     -10.298   6.776  72.115  1.00  0.00    -0.198 OA 
HETATM   31  O   UNL     1      -8.842   6.560  70.068  1.00  0.00    -0.141 OA 
HETATM   32  N   UNL     1     -11.253   5.892  69.961  1.00  0.00    -0.346 N  
HETATM   33  H1  UNL     1     -10.961   4.967  70.275  1.00  0.00     0.000 HD 
HETATM   34  H2  UNL     1     -12.035   6.150  69.359  1.00  0.00     0.000 HD 
ENDBRANCH  26  29
ENDBRANCH  20  22
ENDBRANCH  15  20
ENDBRANCH   2  14
TORSDOF 5
ENDMDL
