MODEL       33
REMARK 921   NORMALIZED FREE ENERGY PREDICTED BY IDOCK:   -5.27 KCAL/MOL
REMARK 922        TOTAL FREE ENERGY PREDICTED BY IDOCK:  -15.10 KCAL/MOL
REMARK 923 INTER-LIGAND FREE ENERGY PREDICTED BY IDOCK:  -12.31 KCAL/MOL
REMARK 924 INTRA-LIGAND FREE ENERGY PREDICTED BY IDOCK:   -2.80 KCAL/MOL
REMARK 927      BINDING AFFINITY PREDICTED BY RF-SCORE:    0.00 PKD
ROOT
HETATM    1  C   UNL     1     -11.652  12.996  68.972  1.00  0.00    -0.367 C  
HETATM    2  C   UNL     1     -12.153  12.502  70.304  1.00  0.00    -0.294 C  
HETATM    3  N   UNL     1     -12.240  11.145  70.467  1.00  0.00    -0.357 N  
HETATM    4  O   UNL     1     -12.492  13.303  71.176  1.00  0.00    -0.363 OA 
HETATM    5  O   UNL     1     -11.725  10.205  69.559  1.00  0.00    -0.173 OA 
ENDROOT
BRANCH   3   6
HETATM    6  C   UNL     1     -12.720  10.513  71.689  1.00  0.00    -0.445 C  
BRANCH   6   7
HETATM    7  C   UNL     1     -13.769   9.434  71.415  1.00  0.00    -0.309 C  
BRANCH   7   8
HETATM    8  C   UNL     1     -13.147   8.041  71.535  1.00  0.00    -0.322 C  
BRANCH   8   9
HETATM    9  C   UNL     1     -12.036   7.995  72.585  1.00  0.00    -0.334 C  
BRANCH   9  10
HETATM   10  C   UNL     1     -10.695   7.559  71.992  1.00  0.00    -0.225 C  
BRANCH  10  11
HETATM   11  N   UNL     1     -10.777   7.302  70.562  1.00  0.00    -0.227 N  
HETATM   12  C   UNL     1     -10.714   6.020  70.064  1.00  0.00    -0.311 C  
HETATM   13  H   UNL     1     -10.884   8.086  69.918  1.00  0.00     0.000 HD 
HETATM   14  O   UNL     1     -10.626   5.017  70.766  1.00  0.00    -0.193 OA 
BRANCH  12  15
HETATM   15  C   UNL     1     -10.778   5.963  68.553  1.00  0.00    -0.327 C  
BRANCH  15  16
HETATM   16  C   UNL     1      -9.389   6.161  67.951  1.00  0.00    -0.113 C  
BRANCH  16  17
HETATM   17  C   UNL     1      -9.340   7.324  66.979  1.00  0.00    -0.148 C  
HETATM   18  O   UNL     1      -9.712   7.195  65.815  1.00  0.00     0.252 OA 
HETATM   19  N   UNL     1      -8.831   8.500  67.468  1.00  0.00    -0.135 N  
HETATM   20  O   UNL     1      -8.487   8.724  68.812  1.00  0.00    -0.126 OA 
BRANCH  19  21
HETATM   21  C   UNL     1      -8.643   9.694  66.658  1.00  0.00    -0.130 C  
BRANCH  21  22
HETATM   22  C   UNL     1      -9.932  10.506  66.505  1.00  0.00    -0.266 C  
BRANCH  22  23
HETATM   23  C   UNL     1      -9.839  11.577  65.401  1.00  0.00    -0.271 C  
BRANCH  23  24
HETATM   24  C   UNL     1     -10.506  11.154  64.091  1.00  0.00    -0.442 C  
BRANCH  24  25
HETATM   25  C   UNL     1     -11.674  12.072  63.735  1.00  0.00    -0.481 C  
BRANCH  25  26
HETATM   26  N   UNL     1     -11.306  13.470  63.838  1.00  0.00    -0.596 N  
HETATM   27  H   UNL     1     -10.515  13.815  63.296  1.00  0.00     0.000 HD 
HETATM   28  C   UNL     1     -11.994  14.342  64.648  1.00  0.00    -0.464 C  
HETATM   29  O   UNL     1     -12.969  14.019  65.319  1.00  0.00    -0.743 OA 
BRANCH  28  30
HETATM   30  C   UNL     1     -11.452  15.749  64.658  1.00  0.00    -0.284 C  
BRANCH  30  31
HETATM   31  C   UNL     1     -10.553  15.940  65.869  1.00  0.00    -0.348 C  
BRANCH  31  32
HETATM   32  C   UNL     1     -10.468  17.401  66.254  1.00  0.00    -0.276 C  
HETATM   33  N   UNL     1     -10.417  17.724  67.588  1.00  0.00    -0.378 N  
HETATM   34  O   UNL     1     -10.364  18.254  65.370  1.00  0.00    -0.509 OA 
HETATM   35  O   UNL     1     -10.949  16.834  68.541  1.00  0.00    -0.345 OA 
BRANCH  33  36
HETATM   36  C   UNL     1     -10.407  19.109  68.063  1.00  0.00    -0.393 C  
BRANCH  36  37
HETATM   37  C   UNL     1      -9.173  19.419  68.913  1.00  0.00    -0.391 C  
BRANCH  37  38
HETATM   38  C   UNL     1      -7.874  18.994  68.221  1.00  0.00    -0.350 C  
BRANCH  38  39
HETATM   39  C   UNL     1      -6.879  20.154  68.123  1.00  0.00    -0.326 C  
BRANCH  39  40
HETATM   40  C   UNL     1      -7.028  20.948  66.824  1.00  0.00    -0.251 C  
HETATM   41  N   UNL     1      -7.922  20.282  65.883  1.00  0.00    -0.543 NA 
HETATM   42  H2  UNL     1      -8.830  20.088  66.306  1.00  0.00     0.000 HD 
HETATM   43  H1  UNL     1      -8.021  20.812  65.016  1.00  0.00     0.000 HD 
ENDBRANCH  39  40
ENDBRANCH  38  39
ENDBRANCH  37  38
ENDBRANCH  36  37
ENDBRANCH  33  36
ENDBRANCH  31  32
ENDBRANCH  30  31
ENDBRANCH  28  30
ENDBRANCH  25  26
ENDBRANCH  24  25
ENDBRANCH  23  24
ENDBRANCH  22  23
ENDBRANCH  21  22
ENDBRANCH  19  21
ENDBRANCH  16  17
ENDBRANCH  15  16
ENDBRANCH  12  15
ENDBRANCH  10  11
ENDBRANCH   9  10
ENDBRANCH   8   9
ENDBRANCH   7   8
ENDBRANCH   6   7
ENDBRANCH   3   6
TORSDOF 23
ENDMDL
