MODEL      143
REMARK 921   NORMALIZED FREE ENERGY PREDICTED BY IDOCK:   -4.96 KCAL/MOL
REMARK 922        TOTAL FREE ENERGY PREDICTED BY IDOCK:   -8.62 KCAL/MOL
REMARK 923 INTER-LIGAND FREE ENERGY PREDICTED BY IDOCK:   -8.94 KCAL/MOL
REMARK 924 INTRA-LIGAND FREE ENERGY PREDICTED BY IDOCK:    0.32 KCAL/MOL
REMARK 927      BINDING AFFINITY PREDICTED BY RF-SCORE:    0.00 PKD
ROOT
HETATM    1  C   UNL     1      -9.525  12.924  65.590  1.00  0.00     0.078 C  
ENDROOT
BRANCH   1   2
HETATM    2  N   UNL     1      -9.762  14.025  66.538  1.00  0.00    -0.286 N  
HETATM    3  C   UNL     1      -9.998  17.559  67.191  1.00  0.00    -0.314 A  
HETATM    4  C   UNL     1     -10.172  18.200  68.406  1.00  0.00    -0.401 A  
HETATM    5  O   UNL     1     -10.272  13.001  68.567  1.00  0.00    -0.241 OA 
HETATM    6  C   UNL     1     -10.421  17.445  69.567  1.00  0.00     0.028 A  
HETATM    7  C   UNL     1      -9.812  15.304  66.067  1.00  0.00    -0.328 C  
HETATM    8  C   UNL     1     -10.120  13.990  67.875  1.00  0.00    -0.237 C  
HETATM    9  C   UNL     1     -10.557  16.036  69.551  1.00  0.00    -0.290 A  
HETATM   10  C   UNL     1     -10.286  15.406  68.330  1.00  0.00    -0.229 A  
HETATM   11  C   UNL     1     -10.045  16.182  67.198  1.00  0.00    -0.269 A  
HETATM   12  O   UNL     1      -9.715  15.695  64.917  1.00  0.00    -0.181 OA 
BRANCH   9  13
HETATM   13  N   UNL     1     -10.856  15.316  70.725  1.00  0.00    -0.506 NA 
HETATM   14  H   UNL     1     -10.111  15.221  71.414  1.00  0.00     0.000 HD 
BRANCH  13  15
HETATM   15  C   UNL     1     -11.992  14.764  71.007  1.00  0.00    -0.331 C  
HETATM   16  C   UNL     1     -13.332  15.293  71.431  1.00  0.00    -0.573 C  
HETATM   17  O   UNL     1     -12.025  13.422  70.947  1.00  0.00    -0.484 OA 
HETATM   18  H   UNL     1     -12.859  13.017  71.153  1.00  0.00     0.000 HD 
ENDBRANCH  13  15
ENDBRANCH   9  13
ENDBRANCH   1   2
BRANCH   1  19
HETATM   19  C   UNL     1      -9.061  11.603  66.233  1.00  0.00    -0.219 A  
HETATM   20  C   UNL     1      -7.796  11.500  66.824  1.00  0.00    -0.146 A  
HETATM   21  C   UNL     1      -8.428   9.438  67.945  1.00  0.00    -0.116 A  
HETATM   22  C   UNL     1      -9.973  10.536  66.422  1.00  0.00    -0.271 A  
HETATM   23  C   UNL     1      -7.487  10.434  67.675  1.00  0.00    -0.089 A  
HETATM   24  C   UNL     1      -9.667   9.460  67.275  1.00  0.00    -0.165 A  
BRANCH  24  25
HETATM   25  O   UNL     1     -10.512   8.417  67.566  1.00  0.00    -0.249 OA 
BRANCH  25  26
HETATM   26  C   UNL     1     -10.451   7.235  66.773  1.00  0.00    -0.241 C  
HETATM   27  C   UNL     1     -10.696   6.038  67.681  1.00  0.00    -0.377 C  
ENDBRANCH  25  26
ENDBRANCH  24  25
BRANCH  21  28
HETATM   28  O   UNL     1      -8.235   8.419  68.847  1.00  0.00    -0.112 OA 
HETATM   29  C   UNL     1      -8.156   8.771  70.222  1.00  0.00    -0.116 C  
ENDBRANCH  21  28
ENDBRANCH   1  19
BRANCH   1  30
HETATM   30  C   UNL     1     -10.649  12.616  64.599  1.00  0.00    -0.333 C  
BRANCH  30  31
HETATM   31  S   UNL     1     -12.298  12.719  65.246  1.00  0.00    -0.449 S  
HETATM   32  O   UNL     1     -13.151  12.013  64.309  1.00  0.00    -0.671 OA 
HETATM   33  C   UNL     1     -12.782  14.428  65.175  1.00  0.00    -0.251 C  
HETATM   34  O   UNL     1     -12.271  12.335  66.642  1.00  0.00    -0.574 OA 
ENDBRANCH  30  31
ENDBRANCH   1  30
TORSDOF 9
ENDMDL
