MODEL      110
REMARK 921   NORMALIZED FREE ENERGY PREDICTED BY IDOCK:    2.43 KCAL/MOL
REMARK 922        TOTAL FREE ENERGY PREDICTED BY IDOCK:    2.18 KCAL/MOL
REMARK 923 INTER-LIGAND FREE ENERGY PREDICTED BY IDOCK:    2.48 KCAL/MOL
REMARK 924 INTRA-LIGAND FREE ENERGY PREDICTED BY IDOCK:   -0.30 KCAL/MOL
REMARK 927      BINDING AFFINITY PREDICTED BY RF-SCORE:    0.00 PKD
ROOT
HETATM    1  C   UNL     1     -12.211  15.663  73.145  1.00  0.00    -0.587 C  
HETATM    2  C   UNL     1     -12.593  15.428  71.700  1.00  0.00    -0.389 C  
HETATM    3  O   UNL     1     -13.341  14.514  71.361  1.00  0.00    -0.330 OA 
ENDROOT
BRANCH   2   4
HETATM    4  C   UNL     1     -11.908  16.336  70.705  1.00  0.00    -0.148 C  
HETATM    5  C   UNL     1     -10.498  15.899  70.241  1.00  0.00    -0.186 C  
HETATM    6  C   UNL     1     -10.511  14.501  69.620  1.00  0.00    -0.020 A  
HETATM    7  C   UNL     1      -9.803  16.968  69.378  1.00  0.00    -0.033 C  
HETATM    8  C   UNL     1      -8.507  17.314  69.522  1.00  0.00     0.620 C  
HETATM    9  C   UNL     1     -11.239  14.224  68.452  1.00  0.00    -0.291 A  
HETATM   10  C   UNL     1      -7.965  18.518  68.885  1.00  0.00    -0.232 A  
HETATM   11  C   UNL     1     -11.426  12.910  68.018  1.00  0.00    -0.361 A  
HETATM   12  O   UNL     1      -7.606  16.638  70.321  1.00  0.00     1.217 OA 
HETATM   13  C   UNL     1      -6.674  19.007  69.108  1.00  0.00    -0.337 A  
HETATM   14  C   UNL     1     -10.871  11.853  68.746  1.00  0.00    -0.231 A  
HETATM   15  H   UNL     1      -6.693  16.882  70.422  1.00  0.00     0.000 HD 
HETATM   16  N   UNL     1     -11.189  10.469  68.375  1.00  0.00    -0.280 N  
HETATM   17  C   UNL     1     -10.068  12.110  69.863  1.00  0.00     1.704 A  
HETATM   18  C   UNL     1      -6.258  20.219  68.539  1.00  0.00    -0.336 A  
HETATM   19  O   UNL     1     -10.680   9.560  69.046  1.00  0.00    -0.222 OA 
HETATM   20  C   UNL     1      -7.124  20.950  67.730  1.00  0.00    -0.279 A  
HETATM   21  C   UNL     1      -9.892  13.430  70.293  1.00  0.00     3.210 A  
HETATM   22  O   UNL     1     -11.967  10.292  67.426  1.00  0.00     0.498 OA 
HETATM   23  C   UNL     1      -8.402  20.466  67.477  1.00  0.00    -0.343 A  
HETATM   24  C   UNL     1      -8.797  19.265  68.062  1.00  0.00    -0.317 A  
HETATM   25  O   UNL     1     -10.105  18.853  67.798  1.00  0.00    -0.333 OA 
HETATM   26  C   UNL     1     -10.644  17.736  68.407  1.00  0.00    -0.291 C  
HETATM   27  O   UNL     1     -11.797  17.421  68.137  1.00  0.00     0.776 OA 
ENDBRANCH   2   4
TORSDOF 1
ENDMDL
