MODEL      334
REMARK 921   NORMALIZED FREE ENERGY PREDICTED BY IDOCK:    1.69 KCAL/MOL
REMARK 922        TOTAL FREE ENERGY PREDICTED BY IDOCK:    0.92 KCAL/MOL
REMARK 923 INTER-LIGAND FREE ENERGY PREDICTED BY IDOCK:   -0.25 KCAL/MOL
REMARK 924 INTRA-LIGAND FREE ENERGY PREDICTED BY IDOCK:    1.16 KCAL/MOL
REMARK 927      BINDING AFFINITY PREDICTED BY RF-SCORE:    0.00 PKD
ROOT
HETATM    1  C   UNL     1     -13.135  16.203  65.183  1.00  0.00     3.286 C  
HETATM    2  O   UNL     1     -12.612  15.514  66.316  1.00  0.00     1.080 OA 
ENDROOT
BRANCH   2   3
HETATM    3  C   UNL     1     -11.274  15.206  66.290  1.00  0.00    -0.273 A  
HETATM    4  C   UNL     1     -10.852  13.905  65.990  1.00  0.00    -0.290 A  
HETATM    5  C   UNL     1      -9.499  13.566  65.956  1.00  0.00    -0.109 A  
HETATM    6  C   UNL     1      -8.548  14.546  66.219  1.00  0.00     0.326 A  
HETATM    7  C   UNL     1     -10.315  16.219  66.520  1.00  0.00    -0.307 A  
HETATM    8  C   UNL     1      -8.941  15.870  66.492  1.00  0.00    -0.296 A  
BRANCH   5   9
HETATM    9  C   UNL     1      -9.172  12.153  65.641  1.00  0.00     0.049 C  
HETATM   10  O   UNL     1      -9.809  11.499  64.828  1.00  0.00    -0.242 OA 
BRANCH   9  11
HETATM   11  O   UNL     1      -8.134  11.695  66.384  1.00  0.00    -0.130 OA 
BRANCH  11  12
HETATM   12  C   UNL     1      -8.464  11.444  67.763  1.00  0.00    -0.128 C  
BRANCH  12  13
HETATM   13  C   UNL     1      -8.290   9.959  68.067  1.00  0.00    -0.113 C  
BRANCH  13  14
HETATM   14  C   UNL     1      -7.700   9.733  69.460  1.00  0.00    -0.120 C  
BRANCH  14  15
HETATM   15  N   UNL     1      -8.279   8.567  70.161  1.00  0.00    -0.116 NA 
HETATM   16  C   UNL     1      -8.695   8.916  71.526  1.00  0.00    -0.162 C  
BRANCH  15  17
HETATM   17  C   UNL     1      -9.417   8.044  69.358  1.00  0.00    -0.159 C  
BRANCH  17  18
HETATM   18  C   UNL     1     -10.601   7.519  70.204  1.00  0.00    -0.235 C  
BRANCH  18  19
HETATM   19  N   UNL     1     -10.925   6.081  70.054  1.00  0.00    -0.357 NA 
HETATM   20  C   UNL     1     -10.255   5.509  68.882  1.00  0.00    -0.214 C  
BRANCH  19  21
HETATM   21  C   UNL     1     -10.523   5.327  71.262  1.00  0.00    -0.204 C  
BRANCH  21  22
HETATM   22  C   UNL     1     -11.420   5.597  72.474  1.00  0.00    -0.335 C  
BRANCH  22  23
HETATM   23  C   UNL     1     -11.990   4.309  73.054  1.00  0.00     0.328 C  
BRANCH  23  24
HETATM   24  O   UNL     1     -11.333   3.180  72.455  1.00  0.00     0.431 OA 
BRANCH  24  25
HETATM   25  C   UNL     1     -10.379   2.585  73.215  1.00  0.00    -0.133 C  
HETATM   26  O   UNL     1     -10.518   1.570  73.879  1.00  0.00    -0.084 OA 
BRANCH  25  27
HETATM   27  C   UNL     1      -9.098   3.333  73.118  1.00  0.00    -0.103 A  
HETATM   28  C   UNL     1      -8.036   2.731  72.441  1.00  0.00    -0.055 A  
HETATM   29  C   UNL     1      -6.800   3.374  72.362  1.00  0.00    -0.030 A  
HETATM   30  C   UNL     1      -6.611   4.633  72.982  1.00  0.00    -0.055 A  
HETATM   31  C   UNL     1      -8.930   4.596  73.696  1.00  0.00    -0.103 A  
HETATM   32  C   UNL     1      -7.692   5.253  73.648  1.00  0.00    -0.102 A  
BRANCH  29  33
HETATM   33  O   UNL     1      -5.709   2.812  71.737  1.00  0.00    -0.008 OA 
HETATM   34  C   UNL     1      -5.177   1.632  72.331  1.00  0.00     0.000 C  
ENDBRANCH  29  33
BRANCH  30  35
HETATM   35  O   UNL     1      -5.325   5.115  72.919  1.00  0.00    -0.012 OA 
HETATM   36  C   UNL     1      -5.129   6.522  72.900  1.00  0.00    -0.032 C  
ENDBRANCH  30  35
BRANCH  32  37
HETATM   37  O   UNL     1      -7.483   6.465  74.250  1.00  0.00    -0.092 OA 
HETATM   38  C   UNL     1      -8.603   7.317  74.464  1.00  0.00    -0.195 C  
ENDBRANCH  32  37
ENDBRANCH  25  27
ENDBRANCH  24  25
ENDBRANCH  23  24
ENDBRANCH  22  23
ENDBRANCH  21  22
ENDBRANCH  19  21
ENDBRANCH  18  19
ENDBRANCH  17  18
ENDBRANCH  15  17
ENDBRANCH  14  15
ENDBRANCH  13  14
ENDBRANCH  12  13
ENDBRANCH  11  12
ENDBRANCH   9  11
ENDBRANCH   5   9
BRANCH   8  39
HETATM   39  O   UNL     1      -7.845  16.674  66.705  1.00  0.00    -0.199 OA 
HETATM   40  C   UNL     1      -7.153  16.610  67.942  1.00  0.00    -0.140 C  
ENDBRANCH   8  39
BRANCH   7  41
HETATM   41  O   UNL     1     -10.595  17.533  66.787  1.00  0.00    -0.294 OA 
HETATM   42  C   UNL     1     -10.619  18.019  68.119  1.00  0.00    -0.319 C  
ENDBRANCH   7  41
ENDBRANCH   2   3
TORSDOF 21
ENDMDL
