MODEL        3
REMARK 921   NORMALIZED FREE ENERGY PREDICTED BY IDOCK:   -7.34 KCAL/MOL
REMARK 922        TOTAL FREE ENERGY PREDICTED BY IDOCK:  -11.95 KCAL/MOL
REMARK 923 INTER-LIGAND FREE ENERGY PREDICTED BY IDOCK:  -11.30 KCAL/MOL
REMARK 924 INTRA-LIGAND FREE ENERGY PREDICTED BY IDOCK:   -0.65 KCAL/MOL
REMARK 927      BINDING AFFINITY PREDICTED BY RF-SCORE:    0.00 PKD
ROOT
HETATM    1  C   UNL     1     -11.634   4.982  73.227  1.00  0.00    -0.251 C  
HETATM    2  C   UNL     1     -11.035   6.170  72.447  1.00  0.00    -0.259 C  
HETATM    3  C   UNL     1      -9.586   5.785  72.106  1.00  0.00    -0.167 C  
ENDROOT
BRANCH   2   4
HETATM    4  N   UNL     1     -11.862   6.476  71.256  1.00  0.00    -0.337 NA 
HETATM    5  C   UNL     1     -13.109   7.209  71.605  1.00  0.00    -0.361 C  
HETATM    6  C   UNL     1     -12.904   8.686  72.007  1.00  0.00    -0.379 C  
HETATM    7  N   UNL     1     -12.207   9.399  70.924  1.00  0.00    -0.264 NA 
HETATM    8  C   UNL     1     -11.179   7.271  70.197  1.00  0.00    -0.239 C  
HETATM    9  C   UNL     1     -10.940   8.776  70.512  1.00  0.00    -0.239 C  
BRANCH   7  10
HETATM   10  C   UNL     1     -12.415  10.761  70.769  1.00  0.00    -0.387 A  
HETATM   11  C   UNL     1     -11.897  11.457  69.675  1.00  0.00    -0.431 A  
HETATM   12  C   UNL     1     -11.917  12.850  69.614  1.00  0.00    -0.358 A  
HETATM   13  C   UNL     1     -12.458  13.607  70.652  1.00  0.00    -0.347 A  
HETATM   14  C   UNL     1     -13.041  11.524  71.766  1.00  0.00    -0.503 A  
HETATM   15  C   UNL     1     -13.057  12.931  71.716  1.00  0.00    -0.458 A  
BRANCH  13  16
HETATM   16  O   UNL     1     -12.424  14.984  70.715  1.00  0.00    -0.304 OA 
BRANCH  16  17
HETATM   17  C   UNL     1     -12.155  15.616  69.459  1.00  0.00    -0.286 C  
BRANCH  17  18
HETATM   18  C   UNL     1     -10.766  16.236  69.361  1.00  0.00    -0.318 C  
HETATM   19  C   UNL     1      -9.652  15.275  69.686  1.00  0.00    -0.180 C  
HETATM   20  O   UNL     1      -8.575  15.698  68.850  1.00  0.00    -0.177 OA 
HETATM   21  C   UNL     1      -9.173  16.299  67.674  1.00  0.00    -0.206 C  
HETATM   22  O   UNL     1     -10.543  16.603  67.994  1.00  0.00    -0.311 OA 
BRANCH  21  23
HETATM   23  C   UNL     1      -8.463  17.609  67.322  1.00  0.00    -0.225 A  
HETATM   24  C   UNL     1      -7.167  17.854  67.828  1.00  0.00    -0.211 A  
HETATM   25  C   UNL     1      -9.025  18.604  66.494  1.00  0.00    -0.304 A  
HETATM   26  C   UNL     1      -6.448  19.000  67.482  1.00  0.00    -0.202 A  
HETATM   27  C   UNL     1      -8.295  19.745  66.132  1.00  0.00    -0.368 A  
HETATM   28 CL   UNL     1     -10.648  18.534  65.899  1.00  0.00    -0.439 Cl 
HETATM   29 CL   UNL     1      -6.106  21.320  66.154  1.00  0.00    -0.316 Cl 
HETATM   30  C   UNL     1      -7.008  19.931  66.618  1.00  0.00    -0.221 A  
ENDBRANCH  21  23
BRANCH  21  31
HETATM   31  C   UNL     1      -9.173  15.243  66.545  1.00  0.00    -0.290 C  
BRANCH  31  32
HETATM   32  N   UNL     1     -10.471  14.932  65.989  1.00  0.00    -0.301 NA 
HETATM   33  C   UNL     1     -11.027  15.422  64.846  1.00  0.00    -0.437 A  
HETATM   34  C   UNL     1     -12.182  13.834  65.571  1.00  0.00    -0.442 A  
HETATM   35  N   UNL     1     -12.119  14.754  64.564  1.00  0.00    -0.472 NA 
HETATM   36  N   UNL     1     -11.195  13.905  66.466  1.00  0.00    -0.315 NA 
ENDBRANCH  31  32
ENDBRANCH  21  31
ENDBRANCH  17  18
ENDBRANCH  16  17
ENDBRANCH  13  16
ENDBRANCH   7  10
ENDBRANCH   2   4
TORSDOF 8
ENDMDL
