MODEL        9
REMARK 921   NORMALIZED FREE ENERGY PREDICTED BY IDOCK:   -7.29 KCAL/MOL
REMARK 922        TOTAL FREE ENERGY PREDICTED BY IDOCK:   -9.73 KCAL/MOL
REMARK 923 INTER-LIGAND FREE ENERGY PREDICTED BY IDOCK:   -9.16 KCAL/MOL
REMARK 924 INTRA-LIGAND FREE ENERGY PREDICTED BY IDOCK:   -0.57 KCAL/MOL
REMARK 927      BINDING AFFINITY PREDICTED BY RF-SCORE:    0.00 PKD
ROOT
HETATM    1  C   UNL     1     -11.899  14.984  69.690  1.00  0.00    -0.358 C  
HETATM    2  C   UNL     1     -11.198  15.806  68.640  1.00  0.00    -0.351 C  
HETATM    3  C   UNL     1     -11.118  15.492  67.332  1.00  0.00    -0.285 C  
HETATM    4  C   UNL     1      -8.368  19.669  68.242  1.00  0.00    -0.354 C  
HETATM    5  C   UNL     1     -10.416  16.469  66.455  1.00  0.00    -0.270 C  
HETATM    6  N   UNL     1      -9.942  17.620  67.054  1.00  0.00    -0.307 N  
HETATM    7  O   UNL     1     -10.289  16.240  65.255  1.00  0.00    -0.552 OA 
HETATM    8  C   UNL     1      -9.455  19.006  69.063  1.00  0.00    -0.327 C  
HETATM    9  N   UNL     1     -10.642  16.934  69.183  1.00  0.00    -0.338 NA 
HETATM   10  C   UNL     1      -9.183  18.529  66.206  1.00  0.00    -0.224 C  
HETATM   11  C   UNL     1      -8.884  19.880  66.833  1.00  0.00    -0.419 C  
HETATM   12  C   UNL     1     -10.032  17.768  68.411  1.00  0.00    -0.362 C  
ENDROOT
BRANCH   3  13
HETATM   13  C   UNL     1     -11.707  14.308  66.603  1.00  0.00    -0.417 C  
BRANCH  13  14
HETATM   14  C   UNL     1     -10.782  13.061  66.534  1.00  0.00    -0.278 C  
BRANCH  14  15
HETATM   15  N   UNL     1     -11.425  11.779  66.870  1.00  0.00    -0.477 NA 
HETATM   16  C   UNL     1      -9.977  10.252  69.022  1.00  0.00    -0.223 C  
HETATM   17  C   UNL     1      -9.434  10.484  67.606  1.00  0.00    -0.164 C  
HETATM   18  C   UNL     1     -10.592  10.604  66.620  1.00  0.00    -0.214 C  
HETATM   19  C   UNL     1     -10.971  11.372  69.367  1.00  0.00    -0.260 C  
HETATM   20  C   UNL     1     -11.964  11.735  68.245  1.00  0.00    -0.165 C  
BRANCH  16  21
HETATM   21  C   UNL     1     -10.466   8.827  69.119  1.00  0.00    -0.217 A  
HETATM   22  N   UNL     1     -10.258   7.924  68.151  1.00  0.00    -0.199 NA 
HETATM   23  O   UNL     1     -10.505   6.687  68.730  1.00  0.00    -0.183 OA 
HETATM   24  C   UNL     1     -10.888   6.855  70.024  1.00  0.00    -0.262 A  
HETATM   25  C   UNL     1     -10.963   8.208  70.303  1.00  0.00    -0.240 A  
HETATM   26  C   UNL     1     -11.355   8.620  71.590  1.00  0.00    -0.377 A  
HETATM   27  C   UNL     1     -11.634   7.635  72.546  1.00  0.00    -0.382 A  
HETATM   28  C   UNL     1     -11.505   6.284  72.227  1.00  0.00    -0.306 A  
HETATM   29  C   UNL     1     -11.134   5.849  70.955  1.00  0.00    -0.312 A  
HETATM   30  F   UNL     1     -11.737   5.373  73.182  1.00  0.00    -0.332 F  
ENDBRANCH  16  21
ENDBRANCH  14  15
ENDBRANCH  13  14
ENDBRANCH   3  13
TORSDOF 4
ENDMDL
