MODEL       81
REMARK 921   NORMALIZED FREE ENERGY PREDICTED BY IDOCK:   -6.74 KCAL/MOL
REMARK 922        TOTAL FREE ENERGY PREDICTED BY IDOCK:  -10.01 KCAL/MOL
REMARK 923 INTER-LIGAND FREE ENERGY PREDICTED BY IDOCK:   -8.99 KCAL/MOL
REMARK 924 INTRA-LIGAND FREE ENERGY PREDICTED BY IDOCK:   -1.02 KCAL/MOL
REMARK 927      BINDING AFFINITY PREDICTED BY RF-SCORE:    0.00 PKD
ROOT
HETATM    1  C   UNL     1     -12.557  13.476  65.828  1.00  0.00    -0.490 C  
HETATM    2  C   UNL     1     -11.704  12.698  66.760  1.00  0.00    -0.392 C  
HETATM    3  N   UNL     1     -11.982  11.562  67.330  1.00  0.00    -0.597 NA 
HETATM    4  N   UNL     1     -10.863  11.204  68.108  1.00  0.00    -0.202 N  
HETATM    5  O   UNL     1      -8.705  12.170  68.555  1.00  0.00    -0.157 OA 
HETATM    6  C   UNL     1      -9.811  12.107  68.055  1.00  0.00    -0.202 C  
HETATM    7  C   UNL     1     -10.357  13.168  67.166  1.00  0.00    -0.247 C  
ENDROOT
BRANCH   4   8
HETATM    8  C   UNL     1     -10.912  10.024  68.887  1.00  0.00    -0.207 A  
HETATM    9  C   UNL     1     -10.318   8.843  68.437  1.00  0.00    -0.237 A  
HETATM   10  C   UNL     1     -10.340   7.682  69.211  1.00  0.00    -0.218 A  
HETATM   11  C   UNL     1     -11.545  10.008  70.138  1.00  0.00    -0.320 A  
HETATM   12  C   UNL     1     -12.272   8.926  72.268  1.00  0.00    -0.413 C  
HETATM   13  C   UNL     1     -11.580   8.844  70.934  1.00  0.00    -0.331 A  
HETATM   14  C   UNL     1     -10.965   7.669  70.465  1.00  0.00    -0.259 A  
HETATM   15  C   UNL     1     -10.960   6.388  71.249  1.00  0.00    -0.321 C  
ENDBRANCH   4   8
BRANCH   7  16
HETATM   16  N   UNL     1      -9.829  14.295  66.805  1.00  0.00    -0.261 NA 
HETATM   17  H   UNL     1      -9.506  14.454  65.851  1.00  0.00     0.000 HD 
BRANCH  16  18
HETATM   18  N   UNL     1      -9.727  15.258  67.767  1.00  0.00    -0.214 NA 
HETATM   19  H   UNL     1     -10.555  15.538  68.294  1.00  0.00     0.000 HD 
BRANCH  18  20
HETATM   20  C   UNL     1      -8.483  15.868  68.037  1.00  0.00    -0.162 A  
HETATM   21  C   UNL     1      -8.004  16.950  67.272  1.00  0.00    -0.174 A  
HETATM   22  C   UNL     1      -6.811  17.636  67.572  1.00  0.00    -0.185 A  
HETATM   23  O   UNL     1      -8.751  17.349  66.182  1.00  0.00    -0.439 OA 
HETATM   24  C   UNL     1      -7.684  15.408  69.086  1.00  0.00    -0.207 A  
HETATM   25  C   UNL     1      -6.025  17.118  68.612  1.00  0.00    -0.150 A  
HETATM   26  H   UNL     1      -8.427  18.078  65.666  1.00  0.00     0.000 HD 
HETATM   27  C   UNL     1      -6.453  16.013  69.357  1.00  0.00    -0.176 A  
BRANCH  22  28
HETATM   28  C   UNL     1      -6.472  18.916  66.915  1.00  0.00    -0.198 A  
HETATM   29  C   UNL     1      -6.308  20.123  67.610  1.00  0.00    -0.260 A  
HETATM   30  C   UNL     1      -6.047  21.317  66.923  1.00  0.00    -0.401 A  
HETATM   31  C   UNL     1      -5.908  21.317  65.534  1.00  0.00    -0.198 A  
HETATM   32  C   UNL     1      -6.034  20.122  64.829  1.00  0.00    -0.289 A  
HETATM   33  C   UNL     1      -6.361  18.953  65.512  1.00  0.00    -0.307 A  
HETATM   34  C   UNL     1      -5.858  20.112  63.358  1.00  0.00    -0.234 C  
HETATM   35  O   UNL     1      -5.288  18.975  62.891  1.00  0.00    -0.296 OA 
HETATM   36  O   UNL     1      -6.163  21.047  62.648  1.00  0.00    -0.238 OA 
ENDBRANCH  22  28
ENDBRANCH  18  20
ENDBRANCH  16  18
ENDBRANCH   7  16
TORSDOF 5
ENDMDL
