MODEL       21
REMARK 921   NORMALIZED FREE ENERGY PREDICTED BY IDOCK:   -6.99 KCAL/MOL
REMARK 922        TOTAL FREE ENERGY PREDICTED BY IDOCK:  -12.53 KCAL/MOL
REMARK 923 INTER-LIGAND FREE ENERGY PREDICTED BY IDOCK:  -11.32 KCAL/MOL
REMARK 924 INTRA-LIGAND FREE ENERGY PREDICTED BY IDOCK:   -1.21 KCAL/MOL
REMARK 927      BINDING AFFINITY PREDICTED BY RF-SCORE:    0.00 PKD
ROOT
HETATM    1  C   UNL     1      -6.634   7.327  74.172  1.00  0.00    -0.077 C  
HETATM    2  O   UNL     1      -6.206   6.810  72.910  1.00  0.00    -0.056 OA 
ENDROOT
BRANCH   2   3
HETATM    3  C   UNL     1      -7.228   6.426  72.076  1.00  0.00    -0.090 A  
HETATM    4  C   UNL     1      -7.893   7.397  71.304  1.00  0.00    -0.095 A  
HETATM    5  C   UNL     1      -9.002   7.099  70.522  1.00  0.00    -0.155 A  
HETATM    6  C   UNL     1      -9.412   5.764  70.507  1.00  0.00    -0.201 A  
HETATM    7  C   UNL     1      -8.736   4.752  71.210  1.00  0.00    -0.123 A  
HETATM    8  C   UNL     1      -7.601   5.070  71.986  1.00  0.00    -0.096 A  
BRANCH   5   9
HETATM    9  N   UNL     1      -9.714   8.059  69.795  1.00  0.00    -0.175 NA 
HETATM   10  H   UNL     1      -9.471   8.074  68.805  1.00  0.00     0.000 HD 
BRANCH   9  11
HETATM   11  C   UNL     1     -10.685   9.000  70.137  1.00  0.00    -0.233 A  
HETATM   12  N   UNL     1     -11.257   8.785  71.330  1.00  0.00    -0.269 NA 
HETATM   13  N   UNL     1     -11.017  10.037  69.338  1.00  0.00    -0.238 NA 
HETATM   14  C   UNL     1     -11.978  10.905  69.747  1.00  0.00    -0.351 A  
HETATM   15  F   UNL     1     -13.446  11.647  71.484  1.00  0.00    -0.395 F  
HETATM   16  C   UNL     1     -12.184   9.680  71.731  1.00  0.00    -0.384 A  
HETATM   17  C   UNL     1     -12.554  10.778  70.992  1.00  0.00    -0.420 A  
BRANCH  14  18
HETATM   18  N   UNL     1     -12.261  11.954  68.855  1.00  0.00    -0.265 NA 
HETATM   19  H   UNL     1     -12.874  11.689  68.084  1.00  0.00     0.000 HD 
BRANCH  18  20
HETATM   20  C   UNL     1     -11.853  13.307  68.829  1.00  0.00    -0.334 A  
HETATM   21  N   UNL     1     -11.351  13.894  67.721  1.00  0.00    -0.293 NA 
HETATM   22  C   UNL     1     -11.049  15.228  67.744  1.00  0.00    -0.318 A  
HETATM   23  C   UNL     1     -11.152  15.993  68.904  1.00  0.00    -0.331 A  
HETATM   24  O   UNL     1     -10.756  17.302  69.005  1.00  0.00    -0.292 OA 
HETATM   25  C   UNL     1     -11.660  15.391  70.043  1.00  0.00    -0.343 A  
HETATM   26  C   UNL     1      -9.850  17.699  67.979  1.00  0.00    -0.310 C  
HETATM   27  C   UNL     1     -12.008  14.042  70.005  1.00  0.00    -0.404 A  
HETATM   28  C   UNL     1     -10.287  17.237  66.581  1.00  0.00    -0.305 C  
HETATM   29  C   UNL     1      -9.721  19.225  68.009  1.00  0.00    -0.430 C  
HETATM   30  C   UNL     1      -8.446  17.086  68.212  1.00  0.00    -0.233 C  
HETATM   31  N   UNL     1     -10.657  15.903  66.556  1.00  0.00    -0.309 N  
HETATM   32  O   UNL     1     -10.145  17.916  65.565  1.00  0.00    -0.530 OA 
BRANCH  31  33
HETATM   33  C   UNL     1     -10.440  15.212  65.329  1.00  0.00    -0.409 C  
BRANCH  33  34
HETATM   34  O   UNL     1     -11.650  15.059  64.660  1.00  0.00    -0.410 OA 
HETATM   35  P   UNL     1     -11.890  13.394  64.250  1.00  0.00    -0.441 P  
HETATM   36  O   UNL     1     -12.417  14.021  62.836  1.00  0.00    -0.515 OA 
HETATM   37  O   UNL     1     -13.284  13.557  65.085  1.00  0.00    -0.720 OA 
HETATM   38  O   UNL     1     -12.104  11.906  63.884  1.00  0.00    -0.420 OA 
ENDBRANCH  33  34
ENDBRANCH  31  33
ENDBRANCH  18  20
ENDBRANCH  14  18
ENDBRANCH   9  11
ENDBRANCH   5   9
BRANCH   7  39
HETATM   39  O   UNL     1      -9.361   3.537  71.065  1.00  0.00    -0.117 OA 
HETATM   40  C   UNL     1      -9.395   2.898  69.800  1.00  0.00    -0.137 C  
ENDBRANCH   7  39
BRANCH   8  41
HETATM   41  O   UNL     1      -6.948   4.012  72.549  1.00  0.00    -0.047 OA 
HETATM   42  C   UNL     1      -7.331   3.425  73.780  1.00  0.00    -0.052 C  
ENDBRANCH   8  41
ENDBRANCH   2   3
TORSDOF 9
ENDMDL
