MODEL       44
REMARK 921   NORMALIZED FREE ENERGY PREDICTED BY IDOCK:   -7.47 KCAL/MOL
REMARK 922        TOTAL FREE ENERGY PREDICTED BY IDOCK:  -13.10 KCAL/MOL
REMARK 923 INTER-LIGAND FREE ENERGY PREDICTED BY IDOCK:  -11.03 KCAL/MOL
REMARK 924 INTRA-LIGAND FREE ENERGY PREDICTED BY IDOCK:   -2.08 KCAL/MOL
REMARK 927      BINDING AFFINITY PREDICTED BY RF-SCORE:    0.00 PKD
ROOT
HETATM    1  C   UNL     1      -7.004  11.131  68.170  1.00  0.00    -0.069 C  
HETATM    2  C   UNL     1      -7.455   9.833  68.867  1.00  0.00    -0.075 C  
HETATM    3  C   UNL     1      -9.120   9.689  68.977  1.00  0.00    -0.148 C  
HETATM    4  N   UNL     1      -6.881   9.847  70.243  1.00  0.00    -0.123 NA 
HETATM    5  C   UNL     1      -6.731   8.693  68.098  1.00  0.00    -0.065 C  
HETATM    6  H2  UNL     1      -7.125  10.687  70.769  1.00  0.00     0.000 HD 
HETATM    7  N   UNL     1      -9.743  10.250  70.098  1.00  0.00    -0.387 N  
HETATM    8  H1  UNL     1      -7.181   8.987  70.704  1.00  0.00     0.000 HD 
HETATM    9  O   UNL     1      -9.777   9.148  68.089  1.00  0.00    -0.149 OA 
HETATM   10  H   UNL     1      -9.078  10.536  70.815  1.00  0.00     0.000 HD 
ENDROOT
BRANCH   7  11
HETATM   11  C   UNL     1     -11.231  10.540  70.504  1.00  0.00    -0.265 C  
BRANCH  11  12
HETATM   12  C   UNL     1     -12.285   9.425  70.958  1.00  0.00    -0.354 C  
BRANCH  12  13
HETATM   13  C   UNL     1     -11.776   8.035  71.576  1.00  0.00    -0.321 A  
HETATM   14  C   UNL     1     -11.705   7.654  72.903  1.00  0.00    -0.152 A  
HETATM   15  C   UNL     1     -10.514   5.291  69.089  1.00  0.00    -0.227 A  
HETATM   16  C   UNL     1      -9.880   4.487  70.032  1.00  0.00    -0.296 A  
HETATM   17  C   UNL     1      -9.981   4.798  71.388  1.00  0.00    -0.267 A  
HETATM   18  N   UNL     1     -11.043   6.430  73.008  1.00  0.00    -0.393 NA 
HETATM   19  C   UNL     1     -11.194   6.465  69.477  1.00  0.00    -0.477 A  
HETATM   20  C   UNL     1     -11.262   6.853  70.842  1.00  0.00    -0.332 A  
HETATM   21  C   UNL     1     -10.706   5.962  71.761  1.00  0.00    -0.245 A  
HETATM   22  H   UNL     1     -10.839   5.952  73.885  1.00  0.00     0.000 HD 
ENDBRANCH  12  13
ENDBRANCH  11  12
BRANCH  11  23
HETATM   23  C   UNL     1     -11.788  11.565  69.479  1.00  0.00    -0.351 C  
HETATM   24  N   UNL     1     -11.718  12.902  69.818  1.00  0.00    -0.440 N  
HETATM   25  H   UNL     1     -11.191  13.188  70.644  1.00  0.00     0.000 HD 
HETATM   26  O   UNL     1     -12.345  11.174  68.449  1.00  0.00    -0.556 OA 
BRANCH  24  27
HETATM   27  C   UNL     1     -12.385  13.897  69.011  1.00  0.00    -0.087 C  
BRANCH  27  28
HETATM   28  N   UNL     1     -12.827  14.966  69.869  1.00  0.00    -0.606 N  
HETATM   29  O   UNL     1     -10.727  15.491  70.677  1.00  0.00    -0.325 OA 
HETATM   30  C   UNL     1     -11.933  15.678  70.636  1.00  0.00    -0.402 C  
HETATM   31  H   UNL     1     -13.820  15.198  69.910  1.00  0.00     0.000 HD 
ENDBRANCH  27  28
BRANCH  27  32
HETATM   32  C   UNL     1     -11.703  14.352  67.703  1.00  0.00    -0.421 C  
BRANCH  32  33
HETATM   33  C   UNL     1     -11.685  13.666  66.347  1.00  0.00    -0.403 A  
HETATM   34  C   UNL     1     -11.466  12.505  64.369  1.00  0.00    -0.349 A  
HETATM   35  H   UNL     1     -13.143  13.434  63.472  1.00  0.00     0.000 HD 
HETATM   36  C   UNL     1     -10.988  11.618  63.392  1.00  0.00    -0.442 A  
HETATM   37  C   UNL     1     -12.683  14.031  65.447  1.00  0.00    -0.471 A  
HETATM   38  C   UNL     1      -9.847  10.883  63.691  1.00  0.00    -0.403 A  
HETATM   39  N   UNL     1     -12.537  13.340  64.287  1.00  0.00    -0.653 NA 
HETATM   40  C   UNL     1      -9.214  11.043  64.923  1.00  0.00    -0.210 A  
HETATM   41  C   UNL     1      -9.716  11.931  65.899  1.00  0.00    -0.258 A  
HETATM   42  C   UNL     1     -10.878  12.688  65.637  1.00  0.00    -0.305 A  
ENDBRANCH  32  33
ENDBRANCH  27  32
ENDBRANCH  24  27
ENDBRANCH  11  23
ENDBRANCH   7  11
TORSDOF 8
ENDMDL
