MODEL      187
REMARK 921   NORMALIZED FREE ENERGY PREDICTED BY IDOCK:   -3.43 KCAL/MOL
REMARK 922        TOTAL FREE ENERGY PREDICTED BY IDOCK:   -3.26 KCAL/MOL
REMARK 923 INTER-LIGAND FREE ENERGY PREDICTED BY IDOCK:   -5.13 KCAL/MOL
REMARK 924 INTRA-LIGAND FREE ENERGY PREDICTED BY IDOCK:    1.87 KCAL/MOL
REMARK 927      BINDING AFFINITY PREDICTED BY RF-SCORE:    0.00 PKD
ROOT
HETATM    1  N   UNL     1      -8.821   9.571  71.025  1.00  0.00    -0.343 NA 
HETATM    2  C   UNL     1      -9.693  10.209  70.158  1.00  0.00    -0.016 A  
HETATM    3  H2  UNL     1      -9.040   8.575  71.043  1.00  0.00     0.000 HD 
HETATM    4  H1  UNL     1      -7.818   9.687  70.880  1.00  0.00     0.000 HD 
HETATM    5  N   UNL     1     -11.020  10.055  70.350  1.00  0.00    -0.301 NA 
HETATM    6  C   UNL     1     -11.866  10.632  69.474  1.00  0.00    -0.273 A  
HETATM    7  N   UNL     1     -11.555  11.356  68.378  1.00  0.00    -0.356 NA 
HETATM    8  F   UNL     1     -13.175  10.454  69.709  1.00  0.00    -0.154 F  
HETATM    9  C   UNL     1     -10.226  11.512  68.246  1.00  0.00    -0.196 A  
HETATM   10  C   UNL     1      -9.253  11.005  69.089  1.00  0.00    -0.005 A  
HETATM   11  N   UNL     1      -8.003  11.409  68.687  1.00  0.00    -0.141 NA 
HETATM   12  C   UNL     1      -8.214  12.140  67.611  1.00  0.00    -0.163 A  
HETATM   13  N   UNL     1      -9.533  12.149  67.238  1.00  0.00    -0.181 NA 
ENDROOT
BRANCH  13  14
HETATM   14  C1* UNL     1     -10.117  12.786  66.070  1.00  0.00    -0.268 C  
HETATM   15  O4* UNL     1     -10.210  14.215  66.298  1.00  0.00    -0.279 OA 
HETATM   16  C4* UNL     1     -11.539  14.519  66.774  1.00  0.00    -0.376 C  
HETATM   17  H2* UNL     1     -12.873  10.875  65.621  1.00  0.00     0.000 HD 
HETATM   18  C3* UNL     1     -12.458  13.495  66.126  1.00  0.00    -0.365 C  
HETATM   19  C2* UNL     1     -11.531  12.406  65.587  1.00  0.00    -0.367 C  
HETATM   20  O3* UNL     1     -13.179  14.067  65.030  1.00  0.00    -0.720 OA 
HETATM   21  H3* UNL     1     -13.754  13.427  64.626  1.00  0.00     0.000 HD 
HETATM   22  O2* UNL     1     -12.002  11.109  65.919  1.00  0.00     0.291 OA 
BRANCH  16  23
HETATM   23  C5* UNL     1     -11.599  14.442  68.308  1.00  0.00    -0.328 C  
HETATM   24  O5* UNL     1     -12.356  15.528  68.826  1.00  0.00    -0.587 OA 
HETATM   25  H5* UNL     1     -12.394  15.481  69.773  1.00  0.00     0.000 HD 
ENDBRANCH  16  23
ENDBRANCH  13  14
TORSDOF 2
ENDMDL
