MODEL       72
REMARK 921   NORMALIZED FREE ENERGY PREDICTED BY IDOCK:   -5.51 KCAL/MOL
REMARK 922        TOTAL FREE ENERGY PREDICTED BY IDOCK:   -9.57 KCAL/MOL
REMARK 923 INTER-LIGAND FREE ENERGY PREDICTED BY IDOCK:   -8.54 KCAL/MOL
REMARK 924 INTRA-LIGAND FREE ENERGY PREDICTED BY IDOCK:   -1.04 KCAL/MOL
REMARK 927      BINDING AFFINITY PREDICTED BY RF-SCORE:    0.00 PKD
ROOT
HETATM    1  C   UNL     1     -11.682   6.762  70.477  1.00  0.00    -0.430 C  
HETATM    2  C   UNL     1     -12.087   8.042  71.170  1.00  0.00    -0.284 C  
HETATM    3  C   UNL     1     -13.512   8.005  71.667  1.00  0.00    -0.375 C  
HETATM    4  C   UNL     1     -11.080   8.839  71.989  1.00  0.00    -0.441 C  
HETATM    5  C   UNL     1     -11.506   9.342  70.622  1.00  0.00    -0.327 C  
ENDROOT
BRANCH   4   6
HETATM    6  C   UNL     1      -9.721   8.314  72.190  1.00  0.00    -0.344 C  
HETATM    7  C   UNL     1      -9.344   7.403  73.105  1.00  0.00    -0.188 C  
HETATM    8 CL   UNL     1     -10.464   6.713  74.222  1.00  0.00    -0.298 Cl 
HETATM    9 CL   UNL     1      -7.704   6.875  73.188  1.00  0.00    -0.092 Cl 
ENDBRANCH   4   6
BRANCH   5  10
HETATM   10  C   UNL     1     -12.339  10.580  70.481  1.00  0.00    -0.343 C  
HETATM   11  O   UNL     1     -12.729  11.192  71.462  1.00  0.00    -0.403 OA 
BRANCH  10  12
HETATM   12  O   UNL     1     -12.556  10.906  69.181  1.00  0.00    -0.361 OA 
BRANCH  12  13
HETATM   13  C   UNL     1     -11.413  10.962  68.322  1.00  0.00    -0.305 C  
BRANCH  13  14
HETATM   14  C   UNL     1     -11.404  12.229  67.497  1.00  0.00    -0.388 A  
HETATM   15  C   UNL     1     -11.109  13.445  68.123  1.00  0.00    -0.284 A  
HETATM   16  C   UNL     1     -11.508  14.653  67.563  1.00  0.00    -0.361 A  
HETATM   17  C   UNL     1     -11.931  14.668  66.234  1.00  0.00    -0.262 A  
HETATM   18  C   UNL     1     -11.853  12.250  66.173  1.00  0.00    -0.398 A  
HETATM   19  C   UNL     1     -12.066  13.470  65.527  1.00  0.00    -0.454 A  
BRANCH  16  20
HETATM   20  O   UNL     1     -11.504  15.861  68.221  1.00  0.00    -0.363 OA 
BRANCH  20  21
HETATM   21  C   UNL     1     -10.548  16.836  67.995  1.00  0.00    -0.347 A  
HETATM   22  C   UNL     1     -10.725  18.093  67.408  1.00  0.00    -0.355 A  
HETATM   23  C   UNL     1      -9.684  19.026  67.373  1.00  0.00    -0.371 A  
HETATM   24  C   UNL     1      -8.419  18.673  67.824  1.00  0.00    -0.293 A  
HETATM   25  C   UNL     1      -8.197  17.386  68.306  1.00  0.00    -0.247 A  
HETATM   26  C   UNL     1      -9.259  16.480  68.404  1.00  0.00    -0.222 A  
ENDBRANCH  20  21
ENDBRANCH  16  20
ENDBRANCH  13  14
ENDBRANCH  12  13
ENDBRANCH  10  12
ENDBRANCH   5  10
TORSDOF 7
ENDMDL
