MODEL      112
REMARK 921   NORMALIZED FREE ENERGY PREDICTED BY IDOCK:   -3.64 KCAL/MOL
REMARK 922        TOTAL FREE ENERGY PREDICTED BY IDOCK:   -4.45 KCAL/MOL
REMARK 923 INTER-LIGAND FREE ENERGY PREDICTED BY IDOCK:   -4.20 KCAL/MOL
REMARK 924 INTRA-LIGAND FREE ENERGY PREDICTED BY IDOCK:   -0.26 KCAL/MOL
REMARK 927      BINDING AFFINITY PREDICTED BY RF-SCORE:    0.00 PKD
ROOT
HETATM    1  C   UNL     1     -11.766  16.304  67.530  1.00  0.00     0.451 C  
HETATM    2  C   UNL     1     -10.883  15.634  66.486  1.00  0.00    -0.260 C  
ENDROOT
BRANCH   2   3
HETATM    3  N   UNL     1      -9.886  14.743  67.110  1.00  0.00    -0.230 NA 
HETATM    4  C   UNL     1     -10.054  13.365  67.085  1.00  0.00    -0.240 C  
HETATM    5  C   UNL     1      -9.231  12.452  67.624  1.00  0.00    -0.185 C  
HETATM    6  C   UNL     1      -9.557  11.017  67.496  1.00  0.00    -0.164 C  
HETATM    7  C   UNL     1      -8.031  12.962  68.311  1.00  0.00    -0.151 C  
HETATM    8  C   UNL     1      -7.771  14.420  68.283  1.00  0.00    -0.129 A  
HETATM    9  O   UNL     1      -7.269  12.180  68.876  1.00  0.00    -0.110 OA 
HETATM   10  O   UNL     1     -10.541  10.601  66.900  1.00  0.00    -0.246 OA 
HETATM   11  O   UNL     1      -8.673  10.186  68.090  1.00  0.00    -0.120 OA 
HETATM   12  C   UNL     1      -6.578  14.902  68.829  1.00  0.00    -0.087 A  
HETATM   13  C   UNL     1      -6.294  16.262  68.762  1.00  0.00    -0.125 A  
HETATM   14  F   UNL     1      -5.128  16.678  69.280  1.00  0.00    -0.121 F  
HETATM   15  C   UNL     1      -7.188  17.174  68.182  1.00  0.00    -0.193 A  
HETATM   16  C   UNL     1      -8.710  15.280  67.683  1.00  0.00    -0.172 A  
HETATM   17  C   UNL     1      -8.392  16.648  67.665  1.00  0.00    -0.183 A  
BRANCH  15  18
HETATM   18  N   UNL     1      -6.935  18.530  68.001  1.00  0.00    -0.223 NA 
HETATM   19  C   UNL     1      -6.742  19.421  69.159  1.00  0.00    -0.333 C  
HETATM   20  C   UNL     1      -5.902  20.643  68.708  1.00  0.00    -0.349 C  
HETATM   21  N   UNL     1      -6.475  21.373  67.556  1.00  0.00    -0.548 NA 
HETATM   22  H   UNL     1      -5.881  22.147  67.259  1.00  0.00     0.000 HD 
HETATM   23  C   UNL     1      -6.752  20.433  66.452  1.00  0.00    -0.245 C  
HETATM   24  C   UNL     1      -7.604  19.214  66.877  1.00  0.00    -0.235 C  
ENDBRANCH  15  18
ENDBRANCH   2   3
TORSDOF 2
ENDMDL
