MODEL       54
REMARK 921   NORMALIZED FREE ENERGY PREDICTED BY IDOCK:   -6.07 KCAL/MOL
REMARK 922        TOTAL FREE ENERGY PREDICTED BY IDOCK:  -11.58 KCAL/MOL
REMARK 923 INTER-LIGAND FREE ENERGY PREDICTED BY IDOCK:  -10.46 KCAL/MOL
REMARK 924 INTRA-LIGAND FREE ENERGY PREDICTED BY IDOCK:   -1.12 KCAL/MOL
REMARK 927      BINDING AFFINITY PREDICTED BY RF-SCORE:    0.00 PKD
ROOT
HETATM    1  C   UNL     1     -10.690   4.968  72.275  1.00  0.00    -0.180 C  
HETATM    2  O   UNL     1     -11.650   6.005  72.548  1.00  0.00    -0.295 OA 
ENDROOT
BRANCH   2   3
HETATM    3  C   UNL     1     -11.763   6.925  71.546  1.00  0.00    -0.311 C  
HETATM    4  N   UNL     1     -10.973   8.025  71.799  1.00  0.00    -0.240 N  
HETATM    5  O   UNL     1     -12.485   6.775  70.571  1.00  0.00    -0.273 OA 
HETATM    6  H   UNL     1     -10.410   8.039  72.650  1.00  0.00     0.000 HD 
BRANCH   4   7
HETATM    7  C   UNL     1     -10.907   9.184  70.890  1.00  0.00    -0.278 C  
HETATM    8  C   UNL     1     -10.529   8.658  69.468  1.00  0.00    -0.222 C  
BRANCH   7   9
HETATM    9  C   UNL     1     -12.230  10.045  70.727  1.00  0.00    -0.315 C  
BRANCH   9  10
HETATM   10  N   UNL     1     -12.405  11.422  71.298  1.00  0.00    -0.289 NA 
HETATM   11  H   UNL     1     -12.648  11.505  72.286  1.00  0.00     0.000 HD 
BRANCH  10  12
HETATM   12  C   UNL     1     -12.254  12.604  70.548  1.00  0.00    -0.299 A  
HETATM   13  N   UNL     1     -12.600  13.745  71.147  1.00  0.00    -0.360 NA 
HETATM   14  C   UNL     1     -12.571  14.841  70.381  1.00  0.00    -0.346 A  
HETATM   15  C   UNL     1     -12.126  14.892  69.074  1.00  0.00    -0.248 A  
HETATM   16  C   UNL     1     -11.739  13.707  68.474  1.00  0.00    -0.357 A  
HETATM   17  N   UNL     1     -11.867  12.535  69.215  1.00  0.00    -0.313 NA 
BRANCH  16  18
HETATM   18  C   UNL     1     -11.212  13.791  67.028  1.00  0.00    -0.326 A  
HETATM   19  C   UNL     1     -11.504  12.773  66.101  1.00  0.00    -0.351 A  
HETATM   20  N   UNL     1     -11.026  13.133  64.872  1.00  0.00    -0.304 NA 
HETATM   21  C   UNL     1     -10.525  14.762  66.159  1.00  0.00    -0.304 A  
HETATM   22  N   UNL     1     -10.404  14.302  64.893  1.00  0.00    -0.429 NA 
BRANCH  20  23
HETATM   23  C   UNL     1     -11.167  12.434  63.582  1.00  0.00    -0.474 C  
HETATM   24  C   UNL     1     -12.559  11.819  63.383  1.00  0.00    -0.458 C  
HETATM   25  C   UNL     1     -10.111  11.333  63.392  1.00  0.00    -0.445 C  
ENDBRANCH  20  23
BRANCH  21  26
HETATM   26  C   UNL     1      -9.911  16.072  66.385  1.00  0.00    -0.312 A  
HETATM   27  C   UNL     1     -10.526  17.293  66.014  1.00  0.00    -0.285 A  
HETATM   28  C   UNL     1      -9.820  18.499  66.090  1.00  0.00    -0.283 A  
HETATM   29 CL   UNL     1     -10.596  20.003  65.789  1.00  0.00    -0.526 Cl 
HETATM   30  C   UNL     1      -8.456  18.495  66.411  1.00  0.00    -0.275 A  
HETATM   31  C   UNL     1      -7.890  17.286  66.770  1.00  0.00    -0.243 A  
HETATM   32  C   UNL     1      -8.653  16.143  66.911  1.00  0.00    -0.221 A  
HETATM   33  F   UNL     1      -8.134  15.144  67.621  1.00  0.00    -0.128 F  
BRANCH  31  34
HETATM   34  N   UNL     1      -6.500  17.147  67.057  1.00  0.00    -0.171 N  
HETATM   35  H   UNL     1      -5.819  16.868  66.350  1.00  0.00     0.000 HD 
BRANCH  34  36
HETATM   36  S   UNL     1      -6.063  17.475  68.655  1.00  0.00    -0.180 S  
HETATM   37  O   UNL     1      -7.236  17.776  69.442  1.00  0.00    -0.133 OA 
HETATM   38  O   UNL     1      -5.145  16.414  69.013  1.00  0.00    -0.108 OA 
HETATM   39  C   UNL     1      -5.146  18.966  68.363  1.00  0.00    -0.181 C  
ENDBRANCH  34  36
ENDBRANCH  31  34
ENDBRANCH  21  26
ENDBRANCH  16  18
ENDBRANCH  10  12
ENDBRANCH   9  10
ENDBRANCH   7   9
ENDBRANCH   4   7
ENDBRANCH   2   3
TORSDOF 10
ENDMDL
