MODEL       26
REMARK 921   NORMALIZED FREE ENERGY PREDICTED BY IDOCK:   -6.62 KCAL/MOL
REMARK 922        TOTAL FREE ENERGY PREDICTED BY IDOCK:  -11.52 KCAL/MOL
REMARK 923 INTER-LIGAND FREE ENERGY PREDICTED BY IDOCK:  -10.13 KCAL/MOL
REMARK 924 INTRA-LIGAND FREE ENERGY PREDICTED BY IDOCK:   -1.39 KCAL/MOL
REMARK 927      BINDING AFFINITY PREDICTED BY RF-SCORE:    0.00 PKD
ROOT
HETATM    1  C   UNK A   0     -12.111  13.795  64.231  1.00  0.00    -0.481 C  
HETATM    2  C   UNK A   0     -10.929  13.161  64.942  1.00  0.00    -0.318 C  
ENDROOT
BRANCH   2   3
HETATM    3  O   UNK A   0     -10.660  13.802  66.198  1.00  0.00    -0.284 OA 
BRANCH   3   4
HETATM    4  C   UNK A   0     -11.055  13.128  67.313  1.00  0.00    -0.279 C  
HETATM    5  O   UNK A   0     -11.926  12.265  67.351  1.00  0.00    -0.530 OA 
BRANCH   4   6
HETATM    6  C   UNK A   0     -10.250  13.588  68.543  1.00  0.00    -0.229 C  
BRANCH   6   7
HETATM    7  C   UNK A   0     -10.733  14.990  68.963  1.00  0.00    -0.239 C  
BRANCH   7   8
HETATM    8  C   UNK A   0     -12.257  15.088  69.119  1.00  0.00    -0.186 C  
BRANCH   8   9
HETATM    9  C   UNK A   0     -12.626  15.343  70.562  1.00  0.00    -0.471 A  
HETATM   10  C   UNK A   0     -11.709  15.938  71.438  1.00  0.00    -0.530 A  
HETATM   11  C   UNK A   0     -12.070  16.216  72.759  1.00  0.00    -0.653 A  
HETATM   12  C   UNK A   0     -13.912  15.037  71.028  1.00  0.00    -0.343 A  
HETATM   13  C   UNK A   0     -13.350  15.905  73.213  1.00  0.00    -0.660 A  
HETATM   14  C   UNK A   0     -14.271  15.314  72.349  1.00  0.00    -0.579 A  
ENDBRANCH   8   9
ENDBRANCH   7   8
ENDBRANCH   6   7
BRANCH   6  15
ATOM     15  N   ALA A   1      -8.814  13.553  68.160  1.00  0.00    -0.175 NA 
ATOM     16  H   ALA A   1      -8.727  13.503  67.145  1.00  0.00     0.000 HD 
BRANCH  15  17
ATOM     17  CA  ALA A   1      -7.984  14.657  68.683  1.00  0.00    -0.141 C  
ATOM     18  CB  ALA A   1      -7.019  14.163  69.763  1.00  0.00     0.041 C  
BRANCH  17  19
ATOM     19  C   ALA A   1      -7.197  15.312  67.507  1.00  0.00    -0.197 C  
ATOM     20  O   ALA A   1      -6.239  14.744  66.980  1.00  0.00    -0.109 OA 
HETATM   21  C   UNK A   2      -6.443  18.742  66.639  1.00  0.00    -0.209 A  
HETATM   22  C   UNK A   2      -5.555  19.547  65.910  1.00  0.00    -0.170 A  
HETATM   23  N   UNK A   2      -7.616  16.573  67.068  1.00  0.00    -0.182 N  
HETATM   24  C   UNK A   2      -5.281  20.854  66.320  1.00  0.00    -0.227 A  
HETATM   25  C   UNK A   2      -6.723  17.328  66.165  1.00  0.00    -0.169 C  
HETATM   26  C   UNK A   2      -5.877  21.368  67.468  1.00  0.00    -0.421 A  
HETATM   27  C   UNK A   2      -6.768  20.585  68.197  1.00  0.00    -0.310 A  
HETATM   28  C   UNK A   2      -7.076  19.287  67.771  1.00  0.00    -0.264 A  
HETATM   29  C   UNK A   2      -8.070  18.478  68.557  1.00  0.00    -0.354 C  
HETATM   30  C   UNK A   2      -8.685  17.373  67.706  1.00  0.00    -0.232 C  
HETATM   31  C   UNK A   2      -9.725  17.873  66.692  1.00  0.00    -0.319 C  
HETATM   32  O   UNK A   2      -9.782  17.104  65.573  1.00  0.00    -0.532 OA 
HETATM   33  O   UNK A   2     -10.520  18.773  66.901  1.00  0.00    -0.378 OA 
ENDBRANCH  17  19
ENDBRANCH  15  17
ENDBRANCH   6  15
ENDBRANCH   4   6
ENDBRANCH   3   4
ENDBRANCH   2   3
TORSDOF 9
ENDMDL
