MODEL       50
REMARK 921   NORMALIZED FREE ENERGY PREDICTED BY IDOCK:   -4.13 KCAL/MOL
REMARK 922        TOTAL FREE ENERGY PREDICTED BY IDOCK:  -10.21 KCAL/MOL
REMARK 923 INTER-LIGAND FREE ENERGY PREDICTED BY IDOCK:   -9.16 KCAL/MOL
REMARK 924 INTRA-LIGAND FREE ENERGY PREDICTED BY IDOCK:   -1.05 KCAL/MOL
REMARK 927      BINDING AFFINITY PREDICTED BY RF-SCORE:    0.00 PKD
ROOT
HETATM    1  C   UNL     1     -11.894  10.796  68.231  1.00  0.00    -0.001 C  
HETATM    2  S   UNL     1     -11.944  10.474  70.000  1.00  0.00    -0.275 SA 
HETATM    3  C   UNL     1     -12.052  12.201  70.461  1.00  0.00    -0.293 C  
HETATM    4  C   UNL     1     -11.099  13.169  69.801  1.00  0.00     0.098 C  
HETATM    5  CA  UNL     1     -10.650  12.964  68.523  1.00  0.00    -0.253 C  
HETATM    6  O   UNL     1      -9.347  11.220  66.158  1.00  0.00    -0.198 OA 
HETATM    7  C   UNL     1      -9.913  14.111  67.677  1.00  0.00    -0.233 C  
HETATM    8  CA  UNL     1     -11.080   9.779  67.378  1.00  0.00     0.022 C  
HETATM    9  N   UNL     1     -10.893  11.769  67.897  1.00  0.00    -0.201 N  
HETATM   10  C   UNL     1     -10.275  11.050  66.935  1.00  0.00    -0.222 C  
HETATM   11  O   UNL     1     -10.237  14.135  66.457  1.00  0.00    -0.267 OA 
HETATM   12  OXT UNL     1      -9.297  14.981  68.357  1.00  0.00    -0.182 OA 
ENDROOT
BRANCH   4  13
HETATM   13  C   UNL     1     -10.693  14.426  70.570  1.00  0.00     0.540 C  
BRANCH  13  14
HETATM   14  N   UNL     1     -11.794  15.445  71.132  1.00  0.00    -0.333 N  
HETATM   15  C   UNL     1     -13.155  14.066  72.555  1.00  0.00    -0.547 C  
HETATM   16  C   UNL     1     -13.130  15.110  70.388  1.00  0.00    -0.194 C  
HETATM   17  C   UNL     1     -14.059  14.508  71.436  1.00  0.00    -0.428 C  
HETATM   18  C   UNL     1     -12.110  15.165  72.593  1.00  0.00    -0.385 C  
BRANCH  14  19
HETATM   19  C   UNL     1     -11.298  16.865  70.694  1.00  0.00     0.575 C  
BRANCH  19  20
HETATM   20  C   UNL     1     -10.998  17.054  69.183  1.00  0.00    -0.054 C  
BRANCH  20  21
HETATM   21  N   UNL     1      -9.776  17.790  68.801  1.00  0.00    -0.325 N  
HETATM   22  C   UNL     1      -9.688  18.715  67.779  1.00  0.00    -0.314 C  
HETATM   23  O   UNL     1     -10.700  19.155  67.247  1.00  0.00    -0.460 OA 
HETATM   24  H   UNL     1      -8.927  17.600  69.335  1.00  0.00     0.000 HD 
BRANCH  22  25
HETATM   25  C   UNL     1      -8.339  19.142  67.246  1.00  0.00    -0.301 A  
HETATM   26  C   UNL     1      -7.510  18.381  66.401  1.00  0.00    -0.247 A  
HETATM   27  C   UNL     1      -8.008  20.505  67.449  1.00  0.00    -0.349 A  
HETATM   28  H   UNL     1      -4.973  21.879  65.352  1.00  0.00     0.000 HD 
HETATM   29  C   UNL     1      -6.911  21.101  66.812  1.00  0.00    -0.274 A  
HETATM   30  O   UNL     1      -5.169  20.959  65.213  1.00  0.00    -0.185 OA 
HETATM   31  H   UNL     1      -4.940  18.768  64.350  1.00  0.00     0.000 HD 
HETATM   32  C   UNL     1      -6.431  18.998  65.741  1.00  0.00    -0.245 A  
HETATM   33 CL   UNL     1      -7.815  16.723  65.993  1.00  0.00    -0.233 Cl 
HETATM   34  C   UNL     1      -6.144  20.346  65.943  1.00  0.00    -0.203 A  
HETATM   35  O   UNL     1      -5.668  18.352  64.796  1.00  0.00    -0.179 OA 
ENDBRANCH  22  25
ENDBRANCH  20  21
ENDBRANCH  19  20
ENDBRANCH  14  19
ENDBRANCH  13  14
ENDBRANCH   4  13
BRANCH   8  36
HETATM   36  N   UNL     1     -10.331   8.698  68.122  1.00  0.00    -0.227 N  
HETATM   37  H   UNL     1      -9.812   8.953  68.963  1.00  0.00     0.000 HD 
HETATM   38  C   UNL     1     -10.318   7.374  67.712  1.00  0.00    -0.213 C  
HETATM   39  O   UNL     1     -11.009   6.872  66.842  1.00  0.00    -0.377 OA 
BRANCH  38  40
HETATM   40  C   UNL     1      -9.330   6.482  68.418  1.00  0.00    -0.122 C  
BRANCH  40  41
HETATM   41  C   UNL     1      -8.509   5.518  67.716  1.00  0.00    -0.098 A  
HETATM   42  H2  UNL     1      -5.149   4.148  65.547  1.00  0.00     0.000 HD 
HETATM   43  C   UNL     1      -6.714   4.911  66.614  1.00  0.00    -0.051 A  
HETATM   44  C   UNL     1      -8.481   4.174  68.058  1.00  0.00    -0.094 A  
HETATM   45  H1  UNL     1      -5.587   5.795  65.117  1.00  0.00     0.000 HD 
HETATM   46  S   UNL     1      -6.980   3.518  67.569  1.00  0.00    -0.055 SA 
HETATM   47  N   UNL     1      -5.746   4.964  65.686  1.00  0.00    -0.017 NA 
HETATM   48  N   UNL     1      -7.537   5.904  66.812  1.00  0.00    -0.097 NA 
ENDBRANCH  40  41
BRANCH  40  49
HETATM   49  N   UNL     1      -9.032   6.531  69.679  1.00  0.00    -0.141 NA 
HETATM   50  H   UNL     1      -8.078   6.391  70.010  1.00  0.00     0.000 HD 
BRANCH  49  51
HETATM   51  O   UNL     1     -10.074   6.784  70.555  1.00  0.00    -0.183 OA 
HETATM   52  O   UNL     1     -10.572   6.999  74.040  1.00  0.00    -0.341 OA 
HETATM   53  C   UNL     1      -8.311   7.128  72.251  1.00  0.00    -0.117 C  
HETATM   54  O   UNL     1     -11.934   7.019  72.240  1.00  0.00    -0.276 OA 
HETATM   55  C   UNL     1      -9.464   4.890  71.941  1.00  0.00    -0.194 C  
HETATM   56  C   UNL     1     -10.727   6.839  72.837  1.00  0.00    -0.261 C  
HETATM   57  C   UNL     1      -9.620   6.410  71.877  1.00  0.00    -0.151 C  
ENDBRANCH  49  51
ENDBRANCH  40  49
ENDBRANCH  38  40
ENDBRANCH   8  36
TORSDOF 11
ENDMDL
