MODEL       11
REMARK 921   NORMALIZED FREE ENERGY PREDICTED BY IDOCK:   -6.53 KCAL/MOL
REMARK 922        TOTAL FREE ENERGY PREDICTED BY IDOCK:  -10.72 KCAL/MOL
REMARK 923 INTER-LIGAND FREE ENERGY PREDICTED BY IDOCK:   -9.96 KCAL/MOL
REMARK 924 INTRA-LIGAND FREE ENERGY PREDICTED BY IDOCK:   -0.76 KCAL/MOL
REMARK 927      BINDING AFFINITY PREDICTED BY RF-SCORE:    0.00 PKD
ROOT
HETATM    1  C   UNL     1     -12.113  13.725  68.560  1.00  0.00    -0.292 C  
HETATM    2  S   UNL     1     -11.082  14.344  69.882  1.00  0.00    -0.052 SA 
HETATM    3  C   UNL     1     -11.128  16.036  69.317  1.00  0.00    -0.331 C  
HETATM    4  C   UNL     1     -11.029  16.264  67.814  1.00  0.00    -0.281 C  
HETATM    5  CA  UNL     1     -11.850  12.245  68.151  1.00  0.00    -0.311 C  
HETATM    6  CA  UNL     1     -11.237  15.324  66.855  1.00  0.00    -0.256 C  
HETATM    7  OXT UNL     1     -11.756  14.942  64.518  1.00  0.00    -0.412 OA 
HETATM    8  N   UNL     1     -11.574  14.052  67.245  1.00  0.00    -0.348 N  
HETATM    9  C   UNL     1     -11.107  15.553  65.357  1.00  0.00    -0.298 C  
HETATM   10  O   UNL     1     -12.200  12.448  65.615  1.00  0.00    -0.599 OA 
HETATM   11  C   UNL     1     -11.902  12.860  66.707  1.00  0.00    -0.385 C  
HETATM   12  O   UNL     1     -10.211  16.488  64.972  1.00  0.00    -0.564 OA 
ENDROOT
BRANCH   4  13
HETATM   13  C   UNL     1     -10.671  17.660  67.597  1.00  0.00    -0.318 C  
HETATM   14  C   UNL     1      -9.461  18.229  67.507  1.00  0.00    -0.267 C  
BRANCH  14  15
HETATM   15  C   UNL     1      -8.190  17.591  67.587  1.00  0.00    -0.215 A  
HETATM   16  C   UNL     1      -7.148  17.620  66.660  1.00  0.00    -0.223 A  
HETATM   17  N   UNL     1      -6.132  16.702  66.873  1.00  0.00    -0.256 NA 
HETATM   18  S   UNL     1      -7.757  16.491  68.849  1.00  0.00    -0.232 SA 
HETATM   19  C   UNL     1      -7.025  18.495  65.459  1.00  0.00    -0.187 C  
HETATM   20  C   UNL     1      -6.356  16.044  67.984  1.00  0.00    -0.131 A  
ENDBRANCH  14  15
ENDBRANCH   4  13
BRANCH   5  21
HETATM   21  N   UNL     1     -10.620  11.599  68.712  1.00  0.00    -0.211 N  
HETATM   22  C   UNL     1     -10.411  10.468  69.482  1.00  0.00    -0.235 C  
HETATM   23  O   UNL     1      -9.256  10.052  69.593  1.00  0.00    -0.210 OA 
HETATM   24  H   UNL     1      -9.760  12.096  68.479  1.00  0.00     0.000 HD 
BRANCH  22  25
HETATM   25  C   UNL     1     -11.472   9.803  70.339  1.00  0.00    -0.280 C  
BRANCH  25  26
HETATM   26  C   UNL     1     -11.145   8.612  71.164  1.00  0.00    -0.266 A  
HETATM   27  H2  UNL     1      -9.859   6.319  74.538  1.00  0.00     0.000 HD 
HETATM   28  H1  UNL     1      -9.325   8.000  74.623  1.00  0.00     0.000 HD 
HETATM   29  C   UNL     1     -11.600   7.334  70.862  1.00  0.00    -0.300 A  
HETATM   30  N   UNL     1     -10.376   8.654  72.330  1.00  0.00    -0.328 NA 
HETATM   31  S   UNL     1     -11.183   6.228  72.093  1.00  0.00    -0.296 SA 
HETATM   32  N   UNL     1      -9.807   7.250  74.126  1.00  0.00    -0.219 NA 
HETATM   33  C   UNL     1     -10.373   7.487  72.930  1.00  0.00    -0.296 A  
ENDBRANCH  25  26
BRANCH  25  34
HETATM   34  N   UNL     1     -12.678  10.256  70.543  1.00  0.00    -0.505 NA 
HETATM   35  H   UNL     1     -13.346  10.245  69.773  1.00  0.00     0.000 HD 
BRANCH  34  36
HETATM   36  O   UNL     1     -13.083  10.755  71.786  1.00  0.00    -0.458 OA 
HETATM   37  C   UNL     1     -13.171  12.148  72.006  1.00  0.00    -0.391 C  
ENDBRANCH  34  36
ENDBRANCH  25  34
ENDBRANCH  22  25
ENDBRANCH   5  21
TORSDOF 7
ENDMDL
