MODEL       16
REMARK 921   NORMALIZED FREE ENERGY PREDICTED BY IDOCK:   -5.74 KCAL/MOL
REMARK 922        TOTAL FREE ENERGY PREDICTED BY IDOCK:  -16.39 KCAL/MOL
REMARK 923 INTER-LIGAND FREE ENERGY PREDICTED BY IDOCK:  -14.83 KCAL/MOL
REMARK 924 INTRA-LIGAND FREE ENERGY PREDICTED BY IDOCK:   -1.57 KCAL/MOL
REMARK 927      BINDING AFFINITY PREDICTED BY RF-SCORE:    0.00 PKD
ROOT
HETATM    1  C   UNL     1     -10.155  12.538  64.448  1.00  0.00    -0.284 C  
HETATM    2  C   UNL     1     -11.529  12.070  64.912  1.00  0.00    -0.352 C  
HETATM    3  C   UNL     1     -12.036  12.735  66.215  1.00  0.00    -0.395 C  
HETATM    4  C   UNL     1     -12.522  12.186  63.749  1.00  0.00    -0.620 C  
ENDROOT
BRANCH   3   5
HETATM    5  N   UNL     1     -12.253  14.191  66.175  1.00  0.00    -0.442 N  
HETATM    6  H   UNL     1     -13.131  14.561  66.540  1.00  0.00     0.000 HD 
BRANCH   5   7
HETATM    7  C   UNL     1     -11.335  15.072  65.673  1.00  0.00    -0.297 C  
HETATM    8  O   UNL     1     -11.381  15.458  64.507  1.00  0.00    -0.385 OA 
BRANCH   7   9
HETATM    9  N   UNL     1     -10.308  15.446  66.516  1.00  0.00    -0.280 N  
HETATM   10  C   UNL     1      -8.894  15.132  66.379  1.00  0.00    -0.242 C  
BRANCH   9  11
HETATM   11  C   UNL     1     -10.656  16.296  67.663  1.00  0.00    -0.311 C  
BRANCH  11  12
HETATM   12  C   UNL     1     -10.122  17.694  67.498  1.00  0.00    -0.337 A  
HETATM   13  C   UNL     1     -10.861  18.811  67.148  1.00  0.00    -0.306 A  
HETATM   14  N   UNL     1      -8.779  17.967  67.778  1.00  0.00    -0.248 NA 
HETATM   15  S   UNL     1      -9.884  20.212  67.174  1.00  0.00    -0.467 SA 
HETATM   16  C   UNL     1      -6.136  19.452  66.972  1.00  0.00    -0.183 C  
HETATM   17  C   UNL     1      -8.536  19.258  67.664  1.00  0.00    -0.296 A  
HETATM   18  C   UNL     1      -7.208  19.920  67.954  1.00  0.00    -0.317 C  
HETATM   19  C   UNL     1      -6.772  19.647  69.395  1.00  0.00    -0.389 C  
ENDBRANCH  11  12
ENDBRANCH   9  11
ENDBRANCH   7   9
ENDBRANCH   5   7
ENDBRANCH   3   5
BRANCH   3  20
HETATM   20  C   UNL     1     -11.269  12.226  67.476  1.00  0.00    -0.297 C  
HETATM   21  O   UNL     1     -10.047  12.293  67.602  1.00  0.00    -0.196 OA 
HETATM   22  N   UNL     1     -12.071  11.635  68.433  1.00  0.00    -0.176 N  
HETATM   23  H   UNL     1     -13.058  11.486  68.224  1.00  0.00     0.000 HD 
BRANCH  22  24
HETATM   24  C   UNL     1     -11.554  11.216  69.733  1.00  0.00    -0.334 C  
BRANCH  24  25
HETATM   25  C   UNL     1     -11.026   9.766  69.755  1.00  0.00    -0.287 C  
BRANCH  25  26
HETATM   26  C   UNL     1      -9.712   9.463  70.489  1.00  0.00    -0.271 C  
HETATM   27  H   UNL     1      -7.827   9.866  70.193  1.00  0.00     0.000 HD 
HETATM   28  O   UNL     1      -8.640  10.053  69.739  1.00  0.00    -0.186 OA 
BRANCH  26  29
HETATM   29  C   UNL     1      -9.394   7.962  70.761  1.00  0.00    -0.157 C  
BRANCH  29  30
HETATM   30  N   UNL     1     -10.591   7.157  71.012  1.00  0.00    -0.220 N  
HETATM   31  C   UNL     1     -11.031   6.926  72.287  1.00  0.00    -0.242 C  
HETATM   32  H   UNL     1     -11.104   6.762  70.224  1.00  0.00     0.000 HD 
HETATM   33  O   UNL     1     -10.817   7.664  73.229  1.00  0.00    -0.394 OA 
BRANCH  31  34
HETATM   34  O   UNL     1     -11.685   5.746  72.349  1.00  0.00    -0.301 OA 
BRANCH  34  35
HETATM   35  C   UNL     1     -11.225   4.820  73.354  1.00  0.00    -0.343 C  
BRANCH  35  36
HETATM   36  C   UNL     1     -10.122   3.956  72.840  1.00  0.00    -0.156 A  
HETATM   37  N   UNL     1      -8.740   2.816  71.328  1.00  0.00    -0.064 NA 
HETATM   38  C   UNL     1      -9.849   3.612  71.528  1.00  0.00    -0.157 A  
HETATM   39  C   UNL     1      -8.184   2.556  72.490  1.00  0.00    -0.055 A  
HETATM   40  S   UNL     1      -8.915   3.289  73.859  1.00  0.00    -0.082 SA 
ENDBRANCH  35  36
ENDBRANCH  34  35
ENDBRANCH  31  34
ENDBRANCH  29  30
BRANCH  29  41
HETATM   41  C   UNL     1      -8.503   7.322  69.645  1.00  0.00    -0.133 C  
BRANCH  41  42
HETATM   42  C   UNL     1      -9.200   6.464  68.609  1.00  0.00    -0.125 A  
HETATM   43  C   UNL     1     -10.592   6.255  66.619  1.00  0.00    -0.268 A  
HETATM   44  C   UNL     1     -10.072   7.014  67.662  1.00  0.00    -0.218 A  
HETATM   45  C   UNL     1      -8.954   5.089  68.549  1.00  0.00    -0.125 A  
HETATM   46  C   UNL     1      -9.495   4.313  67.514  1.00  0.00    -0.216 A  
HETATM   47  C   UNL     1     -10.300   4.902  66.540  1.00  0.00    -0.311 A  
ENDBRANCH  41  42
ENDBRANCH  29  41
ENDBRANCH  26  29
ENDBRANCH  25  26
ENDBRANCH  24  25
BRANCH  24  48
HETATM   48  C   UNL     1     -12.603  11.519  70.823  1.00  0.00    -0.390 C  
BRANCH  48  49
HETATM   49  C   UNL     1     -12.729  12.969  71.224  1.00  0.00    -0.385 A  
HETATM   50  C   UNL     1     -13.737  14.681  72.623  1.00  0.00    -0.545 A  
HETATM   51  C   UNL     1     -13.593  13.342  72.262  1.00  0.00    -0.703 A  
HETATM   52  C   UNL     1     -13.023  15.666  71.945  1.00  0.00    -0.541 A  
HETATM   53  C   UNL     1     -12.164  15.311  70.907  1.00  0.00    -0.409 A  
HETATM   54  C   UNL     1     -12.023  13.971  70.541  1.00  0.00    -0.390 A  
ENDBRANCH  48  49
ENDBRANCH  24  48
ENDBRANCH  22  24
ENDBRANCH   3  20
TORSDOF 18
ENDMDL
