MODEL      133
REMARK 921   NORMALIZED FREE ENERGY PREDICTED BY IDOCK:   -4.52 KCAL/MOL
REMARK 922        TOTAL FREE ENERGY PREDICTED BY IDOCK:   -9.66 KCAL/MOL
REMARK 923 INTER-LIGAND FREE ENERGY PREDICTED BY IDOCK:   -8.98 KCAL/MOL
REMARK 924 INTRA-LIGAND FREE ENERGY PREDICTED BY IDOCK:   -0.69 KCAL/MOL
REMARK 927      BINDING AFFINITY PREDICTED BY RF-SCORE:    0.00 PKD
ROOT
HETATM    1  C   UNL     1     -12.026   6.595  70.818  1.00  0.00    -0.412 C  
HETATM    2  C   UNL     1     -12.863   7.409  71.794  1.00  0.00    -0.365 C  
ENDROOT
BRANCH   2   3
HETATM    3  C   UNL     1     -12.152   8.700  72.195  1.00  0.00    -0.451 C  
BRANCH   3   4
HETATM    4  C   UNL     1     -11.314   9.274  71.046  1.00  0.00    -0.390 C  
BRANCH   4   5
HETATM    5  C   UNL     1     -11.884  10.616  70.582  1.00  0.00    -0.463 C  
BRANCH   5   6
HETATM    6  C   UNL     1     -11.130  11.231  69.408  1.00  0.00    -0.257 C  
BRANCH   6   7
HETATM    7  O   UNL     1     -10.918  12.642  69.493  1.00  0.00    -0.065 OA 
BRANCH   7   8
HETATM    8  C   UNL     1     -11.965  13.416  69.110  1.00  0.00    -0.317 C  
HETATM    9  O   UNL     1     -12.897  13.767  69.821  1.00  0.00    -0.030 OA 
BRANCH   8  10
HETATM   10  C   UNL     1     -11.645  14.059  67.803  1.00  0.00    -0.378 A  
HETATM   11  C   UNL     1     -11.963  13.274  66.674  1.00  0.00    -0.446 A  
HETATM   12  C   UNL     1     -11.785  13.761  65.379  1.00  0.00    -0.346 A  
HETATM   13  C   UNL     1     -11.240  15.026  65.190  1.00  0.00    -0.391 A  
HETATM   14  C   UNL     1     -10.908  15.812  66.293  1.00  0.00    -0.232 A  
HETATM   15  C   UNL     1     -11.156  15.364  67.605  1.00  0.00    -0.316 A  
BRANCH  15  16
HETATM   16  C   UNL     1     -10.797  16.281  68.715  1.00  0.00    -0.317 C  
HETATM   17  O   UNL     1     -11.503  16.250  69.722  1.00  0.00    -0.299 OA 
BRANCH  16  18
HETATM   18  C   UNL     1      -9.576  17.162  68.696  1.00  0.00    -0.281 A  
HETATM   19  C   UNL     1      -9.788  18.535  68.512  1.00  0.00    -0.414 A  
HETATM   20  C   UNL     1      -8.713  19.439  68.415  1.00  0.00    -0.397 A  
HETATM   21  C   UNL     1      -7.380  19.017  68.480  1.00  0.00    -0.306 A  
HETATM   22  O   UNL     1      -7.952  15.405  68.972  1.00  0.00    -0.166 OA 
HETATM   23  C   UNL     1      -7.181  17.645  68.711  1.00  0.00    -0.268 A  
HETATM   24  H   UNL     1      -7.051  15.113  69.044  1.00  0.00     0.000 HD 
HETATM   25  C   UNL     1      -8.250  16.730  68.803  1.00  0.00    -0.250 A  
BRANCH  21  26
HETATM   26  N   UNL     1      -6.299  19.882  68.330  1.00  0.00    -0.262 NA 
BRANCH  26  27
HETATM   27  C   UNL     1      -6.409  20.997  67.375  1.00  0.00    -0.350 C  
HETATM   28  C   UNL     1      -6.362  20.485  65.942  1.00  0.00    -0.265 C  
ENDBRANCH  26  27
BRANCH  26  29
HETATM   29  C   UNL     1      -5.264  20.016  69.365  1.00  0.00    -0.201 C  
HETATM   30  C   UNL     1      -5.905  20.222  70.729  1.00  0.00    -0.341 C  
ENDBRANCH  26  29
ENDBRANCH  21  26
ENDBRANCH  16  18
ENDBRANCH  15  16
ENDBRANCH   8  10
ENDBRANCH   7   8
ENDBRANCH   6   7
ENDBRANCH   5   6
ENDBRANCH   4   5
ENDBRANCH   3   4
ENDBRANCH   2   3
TORSDOF 12
ENDMDL
