MODEL      111
REMARK 921   NORMALIZED FREE ENERGY PREDICTED BY IDOCK:   -2.54 KCAL/MOL
REMARK 922        TOTAL FREE ENERGY PREDICTED BY IDOCK:   -3.95 KCAL/MOL
REMARK 923 INTER-LIGAND FREE ENERGY PREDICTED BY IDOCK:   -3.35 KCAL/MOL
REMARK 924 INTRA-LIGAND FREE ENERGY PREDICTED BY IDOCK:   -0.60 KCAL/MOL
REMARK 927      BINDING AFFINITY PREDICTED BY RF-SCORE:    0.00 PKD
ROOT
HETATM    1  C   UNL     1     -11.246   6.271  71.079  1.00  0.00    -0.312 C  
HETATM    2  N   UNL     1     -10.692   7.254  70.158  1.00  0.00    -0.239 N  
HETATM    3  C   UNL     1     -11.241   8.514  70.279  1.00  0.00    -0.179 C  
HETATM    4  O   UNL     1     -12.154   8.829  71.045  1.00  0.00    -0.289 OA 
HETATM    5  C   UNL     1     -10.702   9.576  69.419  1.00  0.00    -0.225 C  
HETATM    6  O   UNL     1     -11.230  10.841  69.602  1.00  0.00    -0.248 OA 
HETATM    7  C   UNL     1      -9.762   9.227  68.531  1.00  0.00    -0.150 C  
HETATM    8  N   UNL     1      -9.283   7.932  68.390  1.00  0.00    -0.135 NA 
HETATM    9  H   UNL     1      -9.111   4.110  70.591  1.00  0.00     0.000 HD 
HETATM   10  H   UNL     1     -10.881  11.528  69.045  1.00  0.00     0.000 HD 
HETATM   11  C   UNL     1      -9.732   6.996  69.186  1.00  0.00    -0.156 C  
HETATM   12  C   UNL     1      -7.408   5.264  70.766  1.00  0.00    -0.073 C  
HETATM   13  C   UNL     1     -10.358   4.583  68.500  1.00  0.00     0.222 C  
HETATM   14  C   UNL     1      -8.183   5.468  67.793  1.00  0.00    -0.100 C  
HETATM   15  C   UNL     1      -9.199   5.500  68.960  1.00  0.00    -0.119 C  
HETATM   16  O   UNL     1      -6.821   6.294  70.447  1.00  0.00    -0.051 OA 
HETATM   17  N   UNL     1      -8.602   4.883  70.164  1.00  0.00    -0.090 N  
ENDROOT
BRANCH   7  18
HETATM   18  C   UNL     1      -9.204  10.357  67.669  1.00  0.00    -0.148 C  
HETATM   19  H   UNL     1     -10.925  10.364  66.482  1.00  0.00     0.000 HD 
HETATM   20  N   UNL     1     -10.024  10.809  66.659  1.00  0.00    -0.199 N  
HETATM   21  O   UNL     1      -8.101  10.870  67.843  1.00  0.00    -0.109 OA 
BRANCH  20  22
HETATM   22  C   UNL     1      -9.583  11.930  65.851  1.00  0.00    -0.231 C  
BRANCH  22  23
HETATM   23  C   UNL     1     -10.648  12.957  65.559  1.00  0.00    -0.298 A  
HETATM   24  C   UNL     1     -10.745  14.098  66.377  1.00  0.00    -0.288 A  
HETATM   25  C   UNL     1     -11.479  12.861  64.432  1.00  0.00    -0.405 A  
HETATM   26  C   UNL     1     -11.695  15.085  66.110  1.00  0.00    -0.091 A  
HETATM   27  C   UNL     1     -12.540  14.941  65.017  1.00  0.00     0.030 A  
HETATM   28  C   UNL     1     -12.433  13.845  64.171  1.00  0.00    -0.286 A  
HETATM   29  F   UNL     1     -13.464  15.879  64.769  1.00  0.00     1.017 F  
ENDBRANCH  22  23
ENDBRANCH  20  22
ENDBRANCH   7  18
BRANCH  12  30
HETATM   30  C   UNL     1      -6.945   4.335  71.789  1.00  0.00    -0.035 A  
HETATM   31  N   UNL     1      -5.708   3.890  71.922  1.00  0.00    -0.008 NA 
HETATM   32  C   UNL     1      -6.957   2.998  73.446  1.00  0.00    -0.039 A  
HETATM   33  N   UNL     1      -5.719   3.024  72.997  1.00  0.00    -0.003 NA 
HETATM   34  C   UNL     1      -7.534   2.222  74.560  1.00  0.00    -0.041 C  
HETATM   35  O   UNL     1      -7.799   3.815  72.733  1.00  0.00    -0.070 OA 
ENDBRANCH  12  30
TORSDOF 4
ENDMDL
