MODEL        4
REMARK 921   NORMALIZED FREE ENERGY PREDICTED BY IDOCK:   -8.00 KCAL/MOL
REMARK 922        TOTAL FREE ENERGY PREDICTED BY IDOCK:  -11.33 KCAL/MOL
REMARK 923 INTER-LIGAND FREE ENERGY PREDICTED BY IDOCK:  -10.72 KCAL/MOL
REMARK 924 INTRA-LIGAND FREE ENERGY PREDICTED BY IDOCK:   -0.60 KCAL/MOL
REMARK 927      BINDING AFFINITY PREDICTED BY RF-SCORE:    0.00 PKD
ROOT
HETATM    1  O   UNL     1     -13.354   6.455  72.236  1.00  0.00    -0.000 OA 
HETATM    2  C   UNL     1     -12.268   7.047  71.692  1.00  0.00    -0.357 C  
HETATM    3  C   UNL     1     -12.405   8.513  71.484  1.00  0.00    -0.354 A  
HETATM    4  O   UNL     1     -11.278   6.423  71.345  1.00  0.00    -0.264 OA 
HETATM    5  C   UNL     1     -11.631   9.101  70.467  1.00  0.00    -0.238 A  
HETATM    6  C   UNL     1     -11.676  10.485  70.234  1.00  0.00    -0.332 A  
HETATM    7  C   UNL     1     -12.523  11.263  71.037  1.00  0.00    -0.503 A  
HETATM    8  O   UNL     1     -14.000   8.758  73.258  1.00  0.00    -1.160 OA 
HETATM    9  C   UNL     1     -13.233   9.320  72.272  1.00  0.00    -0.460 A  
HETATM   10  H   UNL     1     -14.562   9.305  73.794  1.00  0.00     0.000 HD 
HETATM   11  C   UNL     1     -13.295  10.693  72.054  1.00  0.00    -0.409 A  
ENDROOT
BRANCH   6  12
HETATM   12  N   UNL     1     -10.929  11.161  69.243  1.00  0.00    -0.237 NA 
HETATM   13  H   UNL     1      -9.973  11.488  69.385  1.00  0.00     0.000 HD 
BRANCH  12  14
HETATM   14  N   UNL     1     -11.557  11.317  68.175  1.00  0.00    -0.460 NA 
HETATM   15  H   UNL     1     -12.135  10.594  67.747  1.00  0.00     0.000 HD 
BRANCH  14  16
HETATM   16  C   UNL     1     -11.379  12.607  67.628  1.00  0.00    -0.310 A  
HETATM   17  C   UNL     1     -10.526  13.933  65.765  1.00  0.00    -0.313 A  
HETATM   18  C   UNL     1     -10.790  12.694  66.359  1.00  0.00    -0.295 A  
HETATM   19  C   UNL     1     -10.892  15.109  66.424  1.00  0.00    -0.326 A  
HETATM   20  C   UNL     1     -11.747  13.801  68.272  1.00  0.00    -0.394 A  
HETATM   21  C   UNL     1     -11.501  15.048  67.680  1.00  0.00    -0.344 A  
BRANCH  19  22
HETATM   22  S   UNL     1     -10.396  16.680  65.736  1.00  0.00    -0.262 S  
HETATM   23  O   UNL     1     -11.218  16.922  64.572  1.00  0.00    -1.057 OA 
HETATM   24  O   UNL     1      -8.950  16.644  65.626  1.00  0.00    -0.463 OA 
BRANCH  22  25
HETATM   25  N   UNL     1     -10.736  17.793  66.957  1.00  0.00    -0.253 N  
HETATM   26  H   UNL     1     -11.637  17.814  67.434  1.00  0.00     0.000 HD 
BRANCH  25  27
HETATM   27  C   UNL     1      -9.699  18.691  67.278  1.00  0.00    -0.302 A  
HETATM   28  N   UNL     1      -8.878  18.242  68.240  1.00  0.00    -0.281 NA 
HETATM   29  C   UNL     1      -7.817  19.029  68.532  1.00  0.00    -0.340 A  
HETATM   30  C   UNL     1      -7.567  20.248  67.921  1.00  0.00    -0.279 A  
HETATM   31  C   UNL     1      -8.460  20.694  66.952  1.00  0.00    -0.202 A  
HETATM   32  C   UNL     1      -9.554  19.899  66.618  1.00  0.00    -0.527 A  
ENDBRANCH  25  27
ENDBRANCH  22  25
ENDBRANCH  19  22
ENDBRANCH  14  16
ENDBRANCH  12  14
ENDBRANCH   6  12
TORSDOF 6
ENDMDL
