MODEL      227
REMARK 921   NORMALIZED FREE ENERGY PREDICTED BY IDOCK:   -3.68 KCAL/MOL
REMARK 922        TOTAL FREE ENERGY PREDICTED BY IDOCK:   -8.11 KCAL/MOL
REMARK 923 INTER-LIGAND FREE ENERGY PREDICTED BY IDOCK:   -6.86 KCAL/MOL
REMARK 924 INTRA-LIGAND FREE ENERGY PREDICTED BY IDOCK:   -1.25 KCAL/MOL
REMARK 927      BINDING AFFINITY PREDICTED BY RF-SCORE:    0.00 PKD
ROOT
HETATM    1  C   UNL     1     -10.159  20.281  67.116  1.00  0.00    -0.556 C  
HETATM    2  C   UNL     1      -9.209  19.445  66.272  1.00  0.00    -0.388 C  
ENDROOT
BRANCH   2   3
HETATM    3  C   UNL     1      -8.530  18.380  67.086  1.00  0.00    -0.254 C  
HETATM    4  C   UNL     1      -9.051  17.182  67.397  1.00  0.00    -0.226 C  
BRANCH   4   5
HETATM    5  C   UNL     1     -10.428  16.726  67.007  1.00  0.00    -0.285 C  
BRANCH   5   6
HETATM    6  C   UNL     1     -10.542  16.437  65.537  1.00  0.00    -0.346 C  
HETATM    7  C   UNL     1     -10.515  15.212  64.984  1.00  0.00    -0.418 C  
BRANCH   7   8
HETATM    8  C   UNL     1     -10.322  13.946  65.769  1.00  0.00    -0.326 C  
BRANCH   8   9
HETATM    9  C   UNL     1     -11.590  13.153  65.895  1.00  0.00    -0.391 C  
HETATM   10  C   UNL     1     -12.281  12.985  67.037  1.00  0.00    -0.217 C  
BRANCH  10  11
HETATM   11  C   UNL     1     -11.903  13.639  68.335  1.00  0.00    -0.407 C  
BRANCH  11  12
HETATM   12  C   UNL     1     -11.672  12.630  69.456  1.00  0.00    -0.374 C  
BRANCH  12  13
HETATM   13  C   UNL     1     -10.550  11.663  69.075  1.00  0.00    -0.188 C  
BRANCH  13  14
HETATM   14  C   UNL     1     -10.929  10.228  69.428  1.00  0.00    -0.289 C  
BRANCH  14  15
HETATM   15  C   UNL     1     -10.766   9.958  70.923  1.00  0.00    -0.305 C  
BRANCH  15  16
HETATM   16  C   UNL     1     -12.082   9.467  71.523  1.00  0.00    -0.456 C  
BRANCH  16  17
HETATM   17  C   UNL     1     -11.872   8.267  72.441  1.00  0.00    -0.461 C  
HETATM   18  C   UNL     1     -12.027   6.960  71.695  1.00  0.00    -0.339 C  
HETATM   19  O   UNL     1     -12.281   6.847  70.507  1.00  0.00    -0.340 OA 
HETATM   20  O   UNL     1     -11.851   5.886  72.500  1.00  0.00    -0.295 OA 
ENDBRANCH  16  17
ENDBRANCH  15  16
ENDBRANCH  14  15
ENDBRANCH  13  14
ENDBRANCH  12  13
ENDBRANCH  11  12
ENDBRANCH  10  11
ENDBRANCH   8   9
ENDBRANCH   7   8
ENDBRANCH   5   6
ENDBRANCH   4   5
ENDBRANCH   2   3
TORSDOF 12
ENDMDL
