MODEL      149
REMARK 921   NORMALIZED FREE ENERGY PREDICTED BY IDOCK:   16.87 KCAL/MOL
REMARK 922        TOTAL FREE ENERGY PREDICTED BY IDOCK:   18.71 KCAL/MOL
REMARK 923 INTER-LIGAND FREE ENERGY PREDICTED BY IDOCK:   19.03 KCAL/MOL
REMARK 924 INTRA-LIGAND FREE ENERGY PREDICTED BY IDOCK:   -0.31 KCAL/MOL
REMARK 927      BINDING AFFINITY PREDICTED BY RF-SCORE:    0.00 PKD
ROOT
HETATM    1  C   UNL     1     -13.581  17.814  65.773  1.00  0.00    15.167 C  
HETATM    2  N   UNL     1     -12.947  16.584  66.168  1.00  0.00     4.761 N  
HETATM    3  C   UNL     1     -12.085  15.918  65.325  1.00  0.00     0.852 C  
HETATM    4  H   UNL     1     -13.140  16.198  67.092  1.00  0.00     0.000 HD 
HETATM    5  O   UNL     1     -11.751  16.347  64.226  1.00  0.00    -0.739 OA 
ENDROOT
BRANCH   3   6
HETATM    6  C   UNL     1     -11.562  14.610  65.793  1.00  0.00    -0.328 A  
HETATM    7  C   UNL     1     -10.257  14.531  66.284  1.00  0.00    -0.306 A  
HETATM    8  C   UNL     1      -9.687  13.286  66.594  1.00  0.00    -0.270 A  
HETATM    9  C   UNL     1     -10.408  12.089  66.436  1.00  0.00    -0.216 A  
HETATM   10  C   UNL     1     -11.748  12.207  66.066  1.00  0.00    -0.388 A  
HETATM   11  F   UNL     1     -13.573  13.445  65.278  1.00  0.00    -0.130 F  
HETATM   12  C   UNL     1     -12.303  13.439  65.717  1.00  0.00    -0.460 A  
BRANCH   9  13
HETATM   13  N   UNL     1      -9.781  10.811  66.580  1.00  0.00    -0.185 N  
HETATM   14  N   UNL     1      -8.917   9.126  67.899  1.00  0.00    -0.128 N  
HETATM   15  S   UNL     1     -11.642   9.546  68.162  1.00  0.00     1.315 S  
HETATM   16  C   UNL     1     -10.084   9.869  67.614  1.00  0.00    -0.197 C  
HETATM   17  C   UNL     1      -8.049   9.173  66.817  1.00  0.00    -0.111 C  
HETATM   18  C   UNL     1      -8.541  10.185  64.381  1.00  0.00    -0.199 C  
HETATM   19  C   UNL     1      -7.670  11.451  64.201  1.00  0.00     1.421 C  
HETATM   20  O   UNL     1      -7.110   8.420  66.578  1.00  0.00    -0.070 OA 
HETATM   21  C   UNL     1      -8.495  10.391  65.913  1.00  0.00    -0.156 C  
HETATM   22  C   UNL     1      -7.344  11.408  65.698  1.00  0.00     0.539 C  
BRANCH  14  23
HETATM   23  C   UNL     1      -8.592   8.480  69.148  1.00  0.00    -0.133 A  
HETATM   24  C   UNL     1      -7.998   7.208  69.216  1.00  0.00    -0.119 A  
HETATM   25  C   UNL     1      -7.818   7.345  71.602  1.00  0.00    -0.087 A  
HETATM   26  C   UNL     1      -6.953   5.273  70.493  1.00  0.00    -0.052 C  
HETATM   27  F   UNL     1      -5.713   5.322  71.055  1.00  0.00    -0.013 F  
HETATM   28  F   UNL     1      -6.777   4.713  69.268  1.00  0.00    -0.040 F  
HETATM   29  F   UNL     1      -7.669   4.376  71.215  1.00  0.00    -0.069 F  
HETATM   30  C   UNL     1      -7.483   6.843  72.910  1.00  0.00    -0.082 C  
HETATM   31  N   UNL     1      -8.355   8.586  71.590  1.00  0.00    -0.155 NA 
HETATM   32  C   UNL     1      -7.602   6.624  70.441  1.00  0.00    -0.096 A  
HETATM   33  N   UNL     1      -7.202   6.405  73.951  1.00  0.00    -0.086 NA 
HETATM   34  C   UNL     1      -8.706   9.116  70.386  1.00  0.00    -0.215 A  
ENDBRANCH  14  23
ENDBRANCH   9  13
ENDBRANCH   3   6
TORSDOF 3
ENDMDL
