MODEL       61
REMARK 921   NORMALIZED FREE ENERGY PREDICTED BY IDOCK:   -4.19 KCAL/MOL
REMARK 922        TOTAL FREE ENERGY PREDICTED BY IDOCK:   -5.41 KCAL/MOL
REMARK 923 INTER-LIGAND FREE ENERGY PREDICTED BY IDOCK:   -4.98 KCAL/MOL
REMARK 924 INTRA-LIGAND FREE ENERGY PREDICTED BY IDOCK:   -0.43 KCAL/MOL
REMARK 927      BINDING AFFINITY PREDICTED BY RF-SCORE:    0.00 PKD
ROOT
HETATM    1  C   UNL     1     -12.131  12.941  63.691  1.00  0.00    -0.535 C  
HETATM    2  C   UNL     1     -12.358  13.988  64.756  1.00  0.00    -0.413 C  
HETATM    3  O   UNL     1     -13.029  12.202  63.282  1.00  0.00    -0.735 OA 
HETATM    4  F   UNL     1     -11.920  15.214  64.366  1.00  0.00    -0.418 F  
ENDROOT
BRANCH   2   5
HETATM    5  C   UNL     1     -11.721  13.619  66.100  1.00  0.00    -0.364 C  
HETATM    6  O   UNL     1     -12.504  14.106  67.212  1.00  0.00    -0.569 OA 
HETATM    7  H   UNL     1     -12.109  13.877  68.046  1.00  0.00     0.000 HD 
BRANCH   5   8
HETATM    8  C   UNL     1     -11.473  12.119  66.376  1.00  0.00    -0.370 C  
HETATM    9  O   UNL     1     -12.154  11.821  67.625  1.00  0.00    -0.598 OA 
HETATM   10  H   UNL     1     -12.002  10.898  67.795  1.00  0.00     0.000 HD 
BRANCH   8  11
HETATM   11  C   UNL     1     -10.008  11.636  66.480  1.00  0.00    -0.203 C  
HETATM   12  H   UNL     1      -8.855  10.407  65.473  1.00  0.00     0.000 HD 
HETATM   13  O   UNL     1      -9.755  10.703  65.409  1.00  0.00    -0.217 OA 
BRANCH  11  14
HETATM   14  C   UNL     1      -9.632  10.945  67.799  1.00  0.00    -0.164 C  
HETATM   15  O   UNL     1      -9.533  11.883  68.872  1.00  0.00    -0.400 OA 
HETATM   16  H   UNL     1      -9.300  11.455  69.688  1.00  0.00     0.000 HD 
ENDBRANCH  11  14
ENDBRANCH   8  11
ENDBRANCH   5   8
ENDBRANCH   2   5
TORSDOF 4
ENDMDL
