MODEL       31
REMARK 921   NORMALIZED FREE ENERGY PREDICTED BY IDOCK:   -4.84 KCAL/MOL
REMARK 922        TOTAL FREE ENERGY PREDICTED BY IDOCK:  -13.56 KCAL/MOL
REMARK 923 INTER-LIGAND FREE ENERGY PREDICTED BY IDOCK:  -13.64 KCAL/MOL
REMARK 924 INTRA-LIGAND FREE ENERGY PREDICTED BY IDOCK:    0.09 KCAL/MOL
REMARK 927      BINDING AFFINITY PREDICTED BY RF-SCORE:    0.00 PKD
ROOT
HETATM    1  C   UNL     1     -11.907  15.359  72.358  1.00  0.00    -0.558 C  
HETATM    2  C   UNL     1     -13.025  14.503  71.755  1.00  0.00    -0.413 C  
HETATM    3  C   UNL     1     -12.835  14.163  70.261  1.00  0.00    -0.183 C  
HETATM    4  C   UNL     1     -14.368  15.206  71.981  1.00  0.00    -0.682 C  
ENDROOT
BRANCH   3   5
HETATM    5  C   UNL     1     -11.560  13.365  69.914  1.00  0.00    -0.200 C  
BRANCH   5   6
HETATM    6  C   UNL     1     -11.714  11.842  69.680  1.00  0.00    -0.343 C  
HETATM    7  H   UNL     1      -9.686  11.575  69.928  1.00  0.00     0.000 HD 
HETATM    8  N   UNL     1     -10.582  11.091  69.875  1.00  0.00    -0.018 N  
HETATM    9  O   UNL     1     -12.811  11.339  69.448  1.00  0.00    -0.083 OA 
BRANCH   8  10
HETATM   10  C   UNL     1     -10.592   9.632  70.012  1.00  0.00    -0.260 C  
BRANCH  10  11
HETATM   11  C   UNL     1     -11.890   9.033  70.600  1.00  0.00    -0.193 C  
BRANCH  11  12
HETATM   12  C   UNL     1     -11.606   8.020  71.684  1.00  0.00    -0.317 A  
HETATM   13  C   UNL     1     -10.545   8.216  72.578  1.00  0.00    -0.411 A  
HETATM   14  C   UNL     1     -11.870   5.766  72.518  1.00  0.00    -0.222 A  
HETATM   15  C   UNL     1     -12.298   6.806  71.699  1.00  0.00    -0.409 A  
HETATM   16  C   UNL     1     -10.767   5.943  73.351  1.00  0.00    -0.293 A  
HETATM   17  C   UNL     1     -10.119   7.176  73.399  1.00  0.00    -0.345 A  
ENDBRANCH  11  12
ENDBRANCH  10  11
BRANCH  10  18
HETATM   18  C   UNL     1     -10.260   9.022  68.622  1.00  0.00    -0.205 C  
HETATM   19  N   UNL     1      -9.050   8.368  68.565  1.00  0.00    -0.136 N  
HETATM   20  O   UNL     1     -10.992   9.138  67.641  1.00  0.00    -0.173 OA 
HETATM   21  H   UNL     1      -8.512   8.283  69.428  1.00  0.00     0.000 HD 
BRANCH  19  22
HETATM   22  C   UNL     1      -8.487   7.787  67.347  1.00  0.00    -0.119 C  
BRANCH  22  23
HETATM   23  C   UNL     1      -7.934   8.975  66.547  1.00  0.00    -0.103 C  
HETATM   24  O   UNL     1      -8.408   9.312  65.464  1.00  0.00    -0.122 OA 
BRANCH  23  25
HETATM   25  C   UNL     1      -6.792   9.752  67.113  1.00  0.00    -0.083 C  
HETATM   26  O   UNL     1      -5.532   9.564  66.450  1.00  0.00    -0.043 OA 
HETATM   27  C   UNL     1      -7.009  11.137  67.637  1.00  0.00    -0.084 C  
HETATM   28  C   UNL     1      -5.664   8.940  67.733  1.00  0.00    -0.039 C  
ENDBRANCH  23  25
ENDBRANCH  22  23
BRANCH  22  29
HETATM   29  C   UNL     1      -9.502   6.962  66.535  1.00  0.00    -0.199 C  
HETATM   30  C   UNL     1      -9.520   5.432  66.762  1.00  0.00    -0.144 C  
HETATM   31  C   UNL     1     -10.636   4.796  65.922  1.00  0.00    -0.290 C  
HETATM   32  C   UNL     1      -8.208   4.718  66.427  1.00  0.00    -0.107 C  
ENDBRANCH  22  29
ENDBRANCH  19  22
ENDBRANCH  10  18
ENDBRANCH   8  10
ENDBRANCH   5   6
BRANCH   5  33
HETATM   33  N   UNL     1     -10.813  13.943  68.792  1.00  0.00    -0.258 N  
HETATM   34  H   UNL     1     -10.967  13.556  67.860  1.00  0.00     0.000 HD 
HETATM   35  O   UNL     1      -9.656  15.513  70.003  1.00  0.00    -0.228 OA 
HETATM   36  C   UNL     1      -9.915  14.978  68.927  1.00  0.00    -0.236 C  
BRANCH  36  37
HETATM   37  C   UNL     1      -9.274  15.446  67.605  1.00  0.00    -0.187 C  
BRANCH  37  38
HETATM   38  N   UNL     1     -10.315  15.800  66.634  1.00  0.00    -0.285 N  
HETATM   39  O   UNL     1      -9.567  14.219  65.183  1.00  0.00    -0.071 OA 
HETATM   40  C   UNL     1     -10.379  15.116  65.446  1.00  0.00    -0.388 C  
HETATM   41  H   UNL     1     -10.981  16.544  66.839  1.00  0.00     0.000 HD 
BRANCH  40  42
HETATM   42  C   UNL     1     -11.509  15.440  64.462  1.00  0.00    -0.311 C  
BRANCH  42  43
HETATM   43  N   UNL     1     -12.637  14.479  64.408  1.00  0.00    -0.663 NA 
HETATM   44  C   UNL     1     -11.511  12.307  63.591  1.00  0.00    -0.490 C  
HETATM   45  C   UNL     1     -12.712  13.744  65.705  1.00  0.00    -0.478 C  
HETATM   46  O   UNL     1     -11.611  11.734  64.899  1.00  0.00    -0.261 OA 
HETATM   47  C   UNL     1     -11.561  12.741  65.911  1.00  0.00    -0.382 C  
HETATM   48  C   UNL     1     -12.515  13.454  63.344  1.00  0.00    -0.151 C  
ENDBRANCH  42  43
ENDBRANCH  40  42
ENDBRANCH  37  38
BRANCH  37  49
HETATM   49  C   UNL     1      -8.321  16.607  67.903  1.00  0.00    -0.187 C  
BRANCH  49  50
HETATM   50  C   UNL     1      -8.841  17.910  67.275  1.00  0.00    -0.243 C  
BRANCH  50  51
HETATM   51  C   UNL     1      -7.868  19.047  67.426  1.00  0.00    -0.263 A  
HETATM   52  C   UNL     1      -7.537  19.847  66.326  1.00  0.00    -0.327 A  
HETATM   53  C   UNL     1      -6.636  20.902  66.470  1.00  0.00    -0.327 A  
HETATM   54  C   UNL     1      -6.393  20.381  68.814  1.00  0.00    -0.338 A  
HETATM   55  C   UNL     1      -7.292  19.323  68.673  1.00  0.00    -0.373 A  
HETATM   56  C   UNL     1      -6.065  21.169  67.714  1.00  0.00    -0.423 A  
ENDBRANCH  50  51
ENDBRANCH  49  50
ENDBRANCH  37  49
ENDBRANCH  36  37
ENDBRANCH   5  33
ENDBRANCH   3   5
TORSDOF 18
ENDMDL
