MODEL       65
REMARK 921   NORMALIZED FREE ENERGY PREDICTED BY IDOCK:   -6.49 KCAL/MOL
REMARK 922        TOTAL FREE ENERGY PREDICTED BY IDOCK:  -12.78 KCAL/MOL
REMARK 923 INTER-LIGAND FREE ENERGY PREDICTED BY IDOCK:  -10.32 KCAL/MOL
REMARK 924 INTRA-LIGAND FREE ENERGY PREDICTED BY IDOCK:   -2.46 KCAL/MOL
REMARK 927      BINDING AFFINITY PREDICTED BY RF-SCORE:    0.00 PKD
ROOT
HETATM    1 CA   UNL     1      -9.626  13.006  69.455  1.00  0.00    -0.371 Ca 
HETATM    2  O   UNL     2      -9.365   7.482  67.925  1.00  0.00    -0.138 OA 
HETATM    3  O   UNL     3      -7.506  18.592  67.492  1.00  0.00    -0.225 OA 
HETATM    4  H   UNL     2      -8.730   7.142  68.544  1.00  0.00     0.000 HD 
HETATM    5  C   UNL     2      -9.501   8.888  68.129  1.00  0.00    -0.143 C  
HETATM    6  C   UNL     3      -7.200  17.543  68.406  1.00  0.00    -0.226 C  
HETATM    7  H   UNL     3      -7.523  19.427  67.945  1.00  0.00     0.000 HD 
ENDROOT
BRANCH   5   8
HETATM    8  C   UNL     2     -10.533   9.441  67.124  1.00  0.00    -0.244 C  
HETATM    9  O   UNL     2     -11.595  10.034  67.863  1.00  0.00    -0.629 OA 
HETATM   10  H   UNL     2     -12.231  10.375  67.244  1.00  0.00     0.000 HD 
BRANCH   8  11
HETATM   11  C   UNL     2      -9.913  10.525  66.227  1.00  0.00    -0.221 C  
HETATM   12  H   UNL     2      -8.124  11.388  65.923  1.00  0.00     0.000 HD 
HETATM   13  O   UNL     2      -8.507  10.718  66.478  1.00  0.00    -0.136 OA 
BRANCH  11  14
HETATM   14  C   UNL     2     -10.145  10.476  64.696  1.00  0.00    -0.338 C  
HETATM   15  O   UNL     2      -9.402   9.411  64.126  1.00  0.00    -0.426 OA 
HETATM   16  H   UNL     2      -9.545   9.381  63.187  1.00  0.00     0.000 HD 
BRANCH  14  17
HETATM   17  C   UNL     2     -10.089  11.802  63.914  1.00  0.00    -0.368 C  
HETATM   18  H   UNL     2      -9.201  12.411  62.284  1.00  0.00     0.000 HD 
HETATM   19  O   UNL     2      -9.236  11.593  62.767  1.00  0.00    -0.346 OA 
BRANCH  17  20
HETATM   20  C   UNL     2     -11.437  12.403  63.517  1.00  0.00    -0.483 C  
HETATM   21  O   UNL     2     -12.338  11.393  63.012  1.00  0.00    -0.952 OA 
HETATM   22  C   UNL     2     -12.049  13.059  64.786  1.00  0.00    -0.415 C  
HETATM   23  H   UNL     2     -13.176  11.766  62.765  1.00  0.00     0.000 HD 
HETATM   24  O   UNL     2     -11.214  13.667  65.507  1.00  0.00    -0.292 OA 
HETATM   25  O   UNL     2     -13.287  12.856  64.907  1.00  0.00    -0.716 OA 
ENDBRANCH  17  20
ENDBRANCH  14  17
ENDBRANCH  11  14
ENDBRANCH   8  11
ENDBRANCH   5   8
BRANCH   6  26
HETATM   26  C   UNL     3      -7.174  16.194  67.674  1.00  0.00    -0.146 C  
HETATM   27  H   UNL     3      -5.838  14.850  67.369  1.00  0.00     0.000 HD 
HETATM   28  O   UNL     3      -5.854  15.684  67.821  1.00  0.00    -0.131 OA 
BRANCH  26  29
HETATM   29  C   UNL     3      -8.267  15.222  68.191  1.00  0.00    -0.141 C  
HETATM   30  O   UNL     3      -7.778  14.558  69.438  1.00  0.00    -0.306 OA 
HETATM   31  H   UNL     3      -8.447  13.963  69.754  1.00  0.00     0.000 HD 
BRANCH  29  32
HETATM   32  C   UNL     3      -9.559  15.918  68.671  1.00  0.00    -0.209 C  
HETATM   33  H   UNL     3     -10.729  15.736  70.245  1.00  0.00     0.000 HD 
HETATM   34  O   UNL     3      -9.935  15.307  69.949  1.00  0.00    -0.244 OA 
BRANCH  32  35
HETATM   35  C   UNL     3     -10.743  16.302  67.771  1.00  0.00    -0.325 C  
HETATM   36  H   UNL     3     -12.631  15.884  67.752  1.00  0.00     0.000 HD 
HETATM   37  O   UNL     3     -11.899  15.646  68.308  1.00  0.00    -0.318 OA 
BRANCH  35  38
HETATM   38  C   UNL     3     -10.976  17.792  67.544  1.00  0.00    -0.080 C  
HETATM   39  C   UNL     3     -10.366  18.241  66.191  1.00  0.00    -0.398 C  
HETATM   40  O   UNL     3     -10.380  18.573  68.599  1.00  0.00    -0.380 OA 
HETATM   41  O   UNL     3      -9.864  17.321  65.472  1.00  0.00    -0.541 OA 
HETATM   42  O   UNL     3     -10.237  19.492  66.082  1.00  0.00    -0.428 OA 
HETATM   43  H   UNL     3     -10.526  19.502  68.458  1.00  0.00     0.000 HD 
ENDBRANCH  35  38
ENDBRANCH  32  35
ENDBRANCH  29  32
ENDBRANCH  26  29
ENDBRANCH   6  26
TORSDOF 10
ENDMDL
