MODEL      101
REMARK 921   NORMALIZED FREE ENERGY PREDICTED BY IDOCK:   -4.85 KCAL/MOL
REMARK 922        TOTAL FREE ENERGY PREDICTED BY IDOCK:   -7.21 KCAL/MOL
REMARK 923 INTER-LIGAND FREE ENERGY PREDICTED BY IDOCK:   -7.20 KCAL/MOL
REMARK 924 INTRA-LIGAND FREE ENERGY PREDICTED BY IDOCK:   -0.00 KCAL/MOL
REMARK 927      BINDING AFFINITY PREDICTED BY RF-SCORE:    0.00 PKD
ROOT
HETATM    1  C   UNL     1     -12.501  13.836  65.693  1.00  0.00    -0.503 C  
HETATM    2  N   UNL     1     -11.769  13.974  66.949  1.00  0.00    -0.388 N  
HETATM    3  C   UNL     1     -12.076  12.990  67.972  1.00  0.00    -0.174 C  
HETATM    4  C   UNL     1     -11.095  15.183  67.149  1.00  0.00    -0.335 C  
HETATM    5  O   UNL     1     -11.131  16.028  66.239  1.00  0.00    -0.144 OA 
ENDROOT
BRANCH   4   6
HETATM    6  C   UNL     1     -10.276  15.492  68.493  1.00  0.00    -0.215 C  
BRANCH   6   7
HETATM    7  C   UNL     1      -9.251  14.269  68.614  1.00  0.00    -0.167 C  
BRANCH   7   8
HETATM    8  C   UNL     1      -8.744  13.625  67.311  1.00  0.00    -0.218 C  
BRANCH   8   9
HETATM    9  N   UNL     1      -7.979  12.370  67.467  1.00  0.00    -0.161 NA 
HETATM   10  C   UNL     1      -8.191  11.660  68.736  1.00  0.00    -0.055 C  
HETATM   11  C   UNL     1      -9.546  10.955  68.819  1.00  0.00    -0.195 C  
HETATM   12  C   UNL     1      -9.713   9.936  67.670  1.00  0.00    -0.155 C  
HETATM   13  H   UNL     1     -11.161   8.809  67.004  1.00  0.00     0.000 HD 
HETATM   14  O   UNL     1     -11.058   9.436  67.710  1.00  0.00    -0.148 OA 
HETATM   15  C   UNL     1      -9.541  10.733  66.359  1.00  0.00    -0.226 C  
HETATM   16  C   UNL     1      -8.196  11.465  66.323  1.00  0.00    -0.088 C  
BRANCH  12  17
HETATM   17  C   UNL     1      -8.838   8.676  67.785  1.00  0.00    -0.137 A  
HETATM   18  C   UNL     1      -8.453   8.160  69.038  1.00  0.00    -0.129 A  
HETATM   19  C   UNL     1      -7.684   6.996  69.150  1.00  0.00    -0.105 A  
HETATM   20  C   UNL     1      -7.300   6.307  68.008  1.00  0.00    -0.089 A  
HETATM   21  C   UNL     1      -7.680   6.774  66.756  1.00  0.00    -0.106 A  
HETATM   22 CL   UNL     1      -6.378   4.863  68.146  1.00  0.00    -0.035 Cl 
HETATM   23  C   UNL     1      -8.447   7.941  66.649  1.00  0.00    -0.131 A  
ENDBRANCH  12  17
ENDBRANCH   8   9
ENDBRANCH   7   8
ENDBRANCH   6   7
BRANCH   6  24
HETATM   24  C   UNL     1      -9.468  16.818  68.285  1.00  0.00    -0.240 A  
HETATM   25  C   UNL     1      -9.997  18.049  68.726  1.00  0.00    -0.380 A  
HETATM   26  C   UNL     1      -8.203  16.859  67.673  1.00  0.00    -0.196 A  
HETATM   27  C   UNL     1      -9.318  19.254  68.507  1.00  0.00    -0.443 A  
HETATM   28  C   UNL     1      -8.089  19.261  67.855  1.00  0.00    -0.325 A  
HETATM   29  C   UNL     1      -7.530  18.059  67.444  1.00  0.00    -0.212 A  
ENDBRANCH   6  24
BRANCH   6  30
HETATM   30  C   UNL     1     -11.206  15.482  69.756  1.00  0.00    -0.307 A  
HETATM   31  C   UNL     1     -11.589  15.122  72.149  1.00  0.00    -0.490 A  
HETATM   32  C   UNL     1     -12.603  15.661  69.635  1.00  0.00     0.033 A  
HETATM   33  C   UNL     1     -10.721  15.256  71.057  1.00  0.00    -0.058 A  
HETATM   34  C   UNL     1     -12.959  15.286  71.986  1.00  0.00    -0.455 A  
HETATM   35  C   UNL     1     -13.466  15.580  70.729  1.00  0.00    -0.226 A  
ENDBRANCH   6  30
ENDBRANCH   4   6
TORSDOF 7
ENDMDL
