MODEL      143
REMARK 921   NORMALIZED FREE ENERGY PREDICTED BY IDOCK:    3.46 KCAL/MOL
REMARK 922        TOTAL FREE ENERGY PREDICTED BY IDOCK:    3.82 KCAL/MOL
REMARK 923 INTER-LIGAND FREE ENERGY PREDICTED BY IDOCK:    3.65 KCAL/MOL
REMARK 924 INTRA-LIGAND FREE ENERGY PREDICTED BY IDOCK:    0.17 KCAL/MOL
REMARK 927      BINDING AFFINITY PREDICTED BY RF-SCORE:    0.00 PKD
ROOT
HETATM    1  C   UNL     1     -11.162  17.158  64.992  1.00  0.00     0.358 C  
HETATM    2  C   UNL     1     -10.130  17.074  66.083  1.00  0.00    -0.332 A  
HETATM    3  C   UNL     1      -8.785  17.328  65.746  1.00  0.00     0.209 A  
HETATM    4  C   UNL     1      -7.746  17.254  66.692  1.00  0.00    -0.298 A  
HETATM    5  C   UNL     1      -8.086  16.921  68.006  1.00  0.00    -0.194 A  
HETATM    6  C   UNL     1      -9.411  16.674  68.374  1.00  0.00    -0.231 A  
HETATM    7  S   UNL     1      -6.854  16.720  69.263  1.00  0.00    -0.200 S  
HETATM    8  O   UNL     1      -6.874  17.931  70.060  1.00  0.00     0.222 OA 
HETATM    9  C   UNL     1      -5.325  16.663  68.365  1.00  0.00    -0.117 C  
HETATM   10  O   UNL     1      -7.066  15.414  69.856  1.00  0.00    -0.163 OA 
HETATM   11  C   UNL     1     -10.429  16.730  67.412  1.00  0.00    -0.310 A  
HETATM   12  C   UNL     1      -6.332  17.462  66.210  1.00  0.00    -0.253 C  
HETATM   13  C   UNL     1      -5.300  17.743  67.301  1.00  0.00    -0.141 C  
ENDROOT
BRANCH  11  14
HETATM   14  S   UNL     1     -12.060  16.288  67.968  1.00  0.00     1.104 S  
HETATM   15  O   UNL     1     -13.064  17.110  67.338  1.00  0.00     4.770 OA 
HETATM   16  N   UNL     1     -12.217  14.761  67.284  1.00  0.00    -0.464 N  
HETATM   17  O   UNL     1     -12.033  16.078  69.395  1.00  0.00    -0.311 OA 
HETATM   18  H1  UNL     1     -13.152  14.507  67.603  1.00  0.00     0.000 HD 
HETATM   19  H2  UNL     1     -11.560  14.234  66.708  1.00  0.00     0.000 HD 
ENDBRANCH  11  14
TORSDOF 1
ENDMDL
