MODEL        1
REMARK 921   NORMALIZED FREE ENERGY PREDICTED BY IDOCK:   -8.70 KCAL/MOL
REMARK 922        TOTAL FREE ENERGY PREDICTED BY IDOCK:  -11.26 KCAL/MOL
REMARK 923 INTER-LIGAND FREE ENERGY PREDICTED BY IDOCK:  -10.74 KCAL/MOL
REMARK 924 INTRA-LIGAND FREE ENERGY PREDICTED BY IDOCK:   -0.53 KCAL/MOL
REMARK 927      BINDING AFFINITY PREDICTED BY RF-SCORE:    0.00 PKD
ROOT
HETATM    1  C   UNL     1      -7.469   5.558  72.019  1.00  0.00    -0.095 C  
HETATM    2  O   UNL     1      -7.827   6.637  72.880  1.00  0.00    -0.099 OA 
ENDROOT
BRANCH   2   3
HETATM    3  C   UNL     1      -8.994   7.284  72.567  1.00  0.00    -0.127 A  
HETATM    4  C   UNL     1     -10.122   7.116  73.378  1.00  0.00    -0.303 A  
HETATM    5  C   UNL     1     -11.279   7.840  73.070  1.00  0.00    -0.380 A  
HETATM    6  C   UNL     1     -10.225   8.847  71.136  1.00  0.00    -0.266 A  
HETATM    7  C   UNL     1     -11.326   8.730  71.971  1.00  0.00    -0.441 A  
HETATM    8  C   UNL     1      -9.092   8.109  71.429  1.00  0.00    -0.194 A  
HETATM    9  C   UNL     1     -12.396   9.558  71.634  1.00  0.00    -0.398 A  
HETATM   10  N   UNL     1     -13.582   9.561  72.381  1.00  0.00    -0.645 NA 
HETATM   11  N   UNL     1     -12.372  10.396  70.591  1.00  0.00    -0.323 NA 
HETATM   12  H1  UNL     1     -14.365  10.167  72.134  1.00  0.00     0.000 HD 
HETATM   13  C   UNL     1     -11.262  10.442  69.839  1.00  0.00    -0.306 A  
HETATM   14  H2  UNL     1     -13.340   9.743  73.355  1.00  0.00     0.000 HD 
HETATM   15  N   UNL     1     -10.198   9.670  70.082  1.00  0.00    -0.247 NA 
BRANCH   4  16
HETATM   16  O   UNL     1     -10.282   6.336  74.490  1.00  0.00    -0.330 OA 
HETATM   17  C   UNL     1     -10.413   4.932  74.342  1.00  0.00    -0.280 C  
ENDBRANCH   4  16
BRANCH  13  18
HETATM   18  N   UNL     1     -11.162  11.391  68.850  1.00  0.00    -0.224 NA 
HETATM   19  C   UNL     1     -11.279  11.819  66.447  1.00  0.00    -0.323 C  
HETATM   20  C   UNL     1     -10.553  11.049  67.565  1.00  0.00    -0.227 C  
HETATM   21  N   UNL     1     -11.339  13.262  66.727  1.00  0.00    -0.314 N  
HETATM   22  C   UNL     1     -10.934  14.160  65.750  1.00  0.00    -0.301 C  
HETATM   23  C   UNL     1     -11.902  13.593  68.049  1.00  0.00    -0.362 C  
HETATM   24  C   UNL     1     -11.189  12.819  69.181  1.00  0.00    -0.237 C  
HETATM   25  O   UNL     1     -10.509  13.759  64.663  1.00  0.00    -0.416 OA 
BRANCH  22  26
HETATM   26  C   UNL     1     -11.066  15.665  66.027  1.00  0.00    -0.136 C  
HETATM   27  C   UNL     1     -10.710  16.454  64.768  1.00  0.00    -0.076 C  
HETATM   28  O   UNL     1     -10.956  17.856  64.956  1.00  0.00    -0.776 OA 
HETATM   29  C   UNL     1     -10.472  18.288  66.162  1.00  0.00    -0.383 A  
HETATM   30  C   UNL     1     -10.362  19.667  66.335  1.00  0.00    -0.609 A  
HETATM   31  C   UNL     1      -9.871  20.179  67.536  1.00  0.00    -0.574 A  
HETATM   32  C   UNL     1      -9.495  19.313  68.563  1.00  0.00    -0.447 A  
HETATM   33  C   UNL     1      -9.610  17.933  68.393  1.00  0.00    -0.320 A  
HETATM   34  C   UNL     1     -10.108  17.420  67.197  1.00  0.00    -0.307 A  
HETATM   35  O   UNL     1     -10.199  16.056  67.098  1.00  0.00    -0.266 OA 
ENDBRANCH  22  26
ENDBRANCH  13  18
ENDBRANCH   2   3
TORSDOF 4
ENDMDL
