MODEL       58
REMARK 921   NORMALIZED FREE ENERGY PREDICTED BY IDOCK:   -6.05 KCAL/MOL
REMARK 922        TOTAL FREE ENERGY PREDICTED BY IDOCK:   -9.79 KCAL/MOL
REMARK 923 INTER-LIGAND FREE ENERGY PREDICTED BY IDOCK:   -9.82 KCAL/MOL
REMARK 924 INTRA-LIGAND FREE ENERGY PREDICTED BY IDOCK:    0.02 KCAL/MOL
REMARK 927      BINDING AFFINITY PREDICTED BY RF-SCORE:    0.00 PKD
ROOT
HETATM    1  C   UNL     1     -12.493  12.649  65.102  1.00  0.00    -0.531 C  
HETATM    2  C   UNL     1     -12.103  13.089  66.517  1.00  0.00    -0.341 C  
ENDROOT
BRANCH   2   3
HETATM    3  C   UNL     1     -11.062  12.128  67.115  1.00  0.00    -0.291 C  
BRANCH   3   4
HETATM    4  N   UNL     1     -11.419  11.686  68.451  1.00  0.00    -0.270 NA 
HETATM    5  C   UNL     1     -12.072  12.412  69.401  1.00  0.00    -0.180 A  
HETATM    6  N   UNL     1     -11.084  10.451  68.862  1.00  0.00    -0.239 NA 
HETATM    7  C   UNL     1     -11.531  10.375  70.128  1.00  0.00    -0.319 A  
HETATM    8  C   UNL     1     -12.178  11.588  70.494  1.00  0.00    -0.469 A  
BRANCH   7   9
HETATM    9  C   UNL     1     -11.314   9.175  70.946  1.00  0.00    -0.359 A  
HETATM   10  C   UNL     1     -10.125   9.022  71.676  1.00  0.00    -0.405 A  
HETATM   11  C   UNL     1     -12.287   8.170  71.036  1.00  0.00    -0.152 A  
HETATM   12  N   UNL     1     -10.640   4.805  74.074  1.00  0.00    -0.273 NA 
HETATM   13  C   UNL     1     -12.081   7.047  71.845  1.00  0.00    -0.358 A  
HETATM   14 CL   UNL     1      -8.429   7.800  73.361  1.00  0.00    -0.221 Cl 
HETATM   15  C   UNL     1     -10.899   6.908  72.579  1.00  0.00    -0.277 A  
HETATM   16  C   UNL     1     -10.735   5.752  73.411  1.00  0.00    -0.273 C  
HETATM   17  C   UNL     1      -9.918   7.900  72.488  1.00  0.00    -0.249 A  
ENDBRANCH   7   9
ENDBRANCH   3   4
ENDBRANCH   2   3
BRANCH   2  18
HETATM   18  N   UNL     1     -11.676  14.485  66.515  1.00  0.00    -0.380 N  
HETATM   19  O   UNL     1     -10.424  14.385  64.598  1.00  0.00    -0.412 OA 
HETATM   20  H   UNL     1     -11.993  15.088  67.273  1.00  0.00     0.000 HD 
HETATM   21  C   UNL     1     -10.868  15.029  65.543  1.00  0.00    -0.351 C  
BRANCH  21  22
HETATM   22  C   UNL     1     -10.557  16.448  65.740  1.00  0.00    -0.315 A  
HETATM   23  N   UNL     1     -10.986  17.430  64.923  1.00  0.00    -0.851 NA 
HETATM   24  H   UNL     1     -11.572  17.348  64.092  1.00  0.00     0.000 HD 
HETATM   25  C   UNL     1      -9.769  16.965  66.794  1.00  0.00    -0.274 A  
HETATM   26  N   UNL     1     -10.456  18.548  65.462  1.00  0.00    -0.554 NA 
HETATM   27  C   UNL     1      -9.689  18.320  66.570  1.00  0.00    -0.343 A  
BRANCH  27  28
HETATM   28  C   UNL     1      -8.995  19.403  67.309  1.00  0.00    -0.299 C  
HETATM   29  C   UNL     1      -7.717  18.920  67.987  1.00  0.00    -0.298 C  
HETATM   30  O   UNL     1      -8.688  20.414  66.358  1.00  0.00    -0.532 OA 
HETATM   31  H   UNL     1      -8.243  21.107  66.831  1.00  0.00     0.000 HD 
ENDBRANCH  27  28
ENDBRANCH  21  22
ENDBRANCH   2  18
TORSDOF 6
ENDMDL
