MODEL      125
REMARK 921   NORMALIZED FREE ENERGY PREDICTED BY IDOCK:   -3.33 KCAL/MOL
REMARK 922        TOTAL FREE ENERGY PREDICTED BY IDOCK:   -3.89 KCAL/MOL
REMARK 923 INTER-LIGAND FREE ENERGY PREDICTED BY IDOCK:   -4.90 KCAL/MOL
REMARK 924 INTRA-LIGAND FREE ENERGY PREDICTED BY IDOCK:    1.01 KCAL/MOL
REMARK 927      BINDING AFFINITY PREDICTED BY RF-SCORE:    0.00 PKD
ROOT
HETATM    1  C   UNL     1      -9.520  11.033  67.202  1.00  0.00    -0.181 C  
HETATM    2  C   UNL     1      -9.399  10.981  65.795  1.00  0.00    -0.236 C  
HETATM    3  C   UNL     1      -8.243  11.639  66.476  1.00  0.00    -0.101 C  
HETATM    4  C   UNL     1      -8.104  11.479  68.531  1.00  0.00    -0.146 C  
HETATM    5  O   UNL     1     -10.878  19.024  67.208  1.00  0.00    -0.472 OA 
HETATM    6  O   UNL     1      -9.113  10.721  69.299  1.00  0.00    -0.336 OA 
HETATM    7  C   UNL     1      -7.645  10.681  67.523  1.00  0.00    -0.093 C  
HETATM    8  C   UNL     1      -7.250   9.224  67.431  1.00  0.00    -0.080 C  
HETATM    9  C   UNL     1      -6.470  12.205  67.409  1.00  0.00    -0.149 C  
HETATM   10  C   UNL     1     -10.495  17.901  66.904  1.00  0.00    -0.329 C  
HETATM   11  C   UNL     1     -11.416  16.753  66.929  1.00  0.00     0.780 C  
HETATM   12  H   UNL     1      -9.049  10.647  70.243  1.00  0.00     0.000 HD 
HETATM   13  C   UNL     1      -7.313  13.653  67.889  1.00  0.00    -0.148 C  
HETATM   14  C   UNL     1      -9.119  17.585  66.420  1.00  0.00    -0.264 C  
HETATM   15  O   UNL     1      -6.710  14.463  68.598  1.00  0.00    -0.081 OA 
HETATM   16  C   UNL     1      -9.559  15.530  69.371  1.00  0.00    -0.279 C  
HETATM   17  C   UNL     1      -8.917  13.945  67.425  1.00  0.00    -0.211 C  
HETATM   18  C   UNL     1     -10.012  12.724  67.663  1.00  0.00    -0.217 C  
HETATM   19  C   UNL     1      -9.479  15.370  67.839  1.00  0.00    -0.197 C  
HETATM   20  C   UNL     1      -8.502  16.476  67.267  1.00  0.00    -0.201 C  
HETATM   21  C   UNL     1     -11.329  13.082  66.955  1.00  0.00    -0.352 C  
HETATM   22  C   UNL     1     -11.900  14.406  67.442  1.00  0.00    -0.430 C  
HETATM   23  C   UNL     1     -10.933  15.562  67.332  1.00  0.00    -0.306 C  
ENDROOT
BRANCH   4  24
HETATM   24  C   UNL     1      -6.873  10.950  69.640  1.00  0.00    -0.137 C  
HETATM   25  O   UNL     1      -5.977  11.653  70.117  1.00  0.00    -0.136 OA 
BRANCH  24  26
HETATM   26  C   UNL     1      -6.851   9.465  70.092  1.00  0.00    -0.071 C  
BRANCH  26  27
HETATM   27  O   UNL     1      -7.931   9.203  71.027  1.00  0.00    -0.172 OA 
BRANCH  27  28
HETATM   28  C   UNL     1      -8.108   7.885  71.340  1.00  0.00    -0.102 C  
HETATM   29  C   UNL     1      -9.519   7.601  71.781  1.00  0.00    -0.178 C  
HETATM   30  O   UNL     1      -7.236   7.031  71.287  1.00  0.00    -0.073 OA 
ENDBRANCH  27  28
ENDBRANCH  26  27
ENDBRANCH  24  26
ENDBRANCH   4  24
TORSDOF 4
ENDMDL
