MODEL      265
REMARK 921   NORMALIZED FREE ENERGY PREDICTED BY IDOCK:    1.91 KCAL/MOL
REMARK 922        TOTAL FREE ENERGY PREDICTED BY IDOCK:    1.10 KCAL/MOL
REMARK 923 INTER-LIGAND FREE ENERGY PREDICTED BY IDOCK:   -0.41 KCAL/MOL
REMARK 924 INTRA-LIGAND FREE ENERGY PREDICTED BY IDOCK:    1.51 KCAL/MOL
REMARK 927      BINDING AFFINITY PREDICTED BY RF-SCORE:    0.00 PKD
ROOT
HETATM    1  C   UNL     1      -8.686  14.462  66.097  1.00  0.00     0.428 C  
ENDROOT
BRANCH   1   2
HETATM    2  C   UNL     1      -9.187  13.035  65.734  1.00  0.00     0.246 C  
BRANCH   2   3
HETATM    3  C   UNL     1      -9.483  12.047  66.841  1.00  0.00    -0.206 A  
HETATM    4  C   UNL     1     -10.384  10.322  68.931  1.00  0.00    -0.221 A  
HETATM    5  C   UNL     1      -9.601  10.672  66.642  1.00  0.00    -0.209 A  
HETATM    6  C   UNL     1     -10.078   9.840  67.651  1.00  0.00    -0.236 A  
HETATM    7  C   UNL     1      -9.686  12.533  68.138  1.00  0.00    -0.222 A  
HETATM    8  C   UNL     1     -10.111  11.683  69.168  1.00  0.00     0.053 A  
BRANCH   4   9
HETATM    9  C   UNL     1     -11.019   9.449  69.940  1.00  0.00    -0.251 A  
HETATM   10  C   UNL     1     -11.432   8.139  69.628  1.00  0.00     0.336 A  
HETATM   11  C   UNL     1     -12.134   7.353  70.545  1.00  0.00    -0.089 A  
HETATM   12  C   UNL     1     -12.415   7.847  71.813  1.00  0.00    -0.352 A  
HETATM   13  C   UNL     1     -11.999   9.129  72.162  1.00  0.00    -0.364 A  
HETATM   14  C   UNL     1     -11.314   9.920  71.233  1.00  0.00    -0.404 A  
ENDBRANCH   4   9
ENDBRANCH   2   3
ENDBRANCH   1   2
BRANCH   1  15
HETATM   15  C   UNL     1      -8.341  14.689  67.590  1.00  0.00    -0.186 C  
HETATM   16  C   UNL     1      -6.716  14.680  69.463  1.00  0.00    -0.158 C  
HETATM   17  C   UNL     1      -6.031  15.713  67.317  1.00  0.00     0.065 C  
HETATM   18  C   UNL     1      -6.859  14.603  67.953  1.00  0.00    -0.176 C  
HETATM   19  O   UNL     1      -6.604  15.717  70.102  1.00  0.00    -0.104 OA 
BRANCH  16  20
HETATM   20  O   UNL     1      -6.680  13.423  69.988  1.00  0.00     0.058 OA 
BRANCH  20  21
HETATM   21  C   UNL     1      -5.378  12.963  70.377  1.00  0.00    -0.131 C  
HETATM   22  C   UNL     1      -5.245  13.173  71.875  1.00  0.00    -0.082 C  
ENDBRANCH  20  21
ENDBRANCH  16  20
ENDBRANCH   1  15
BRANCH   1  23
HETATM   23  N   UNL     1      -9.615  15.507  65.657  1.00  0.00    -0.325 N  
HETATM   24  C   UNL     1     -10.966  15.432  65.866  1.00  0.00    -0.293 C  
HETATM   25  H   UNL     1      -9.239  16.323  65.175  1.00  0.00     0.000 HD 
HETATM   26  O   UNL     1     -11.550  14.483  66.387  1.00  0.00    -0.357 OA 
BRANCH  24  27
HETATM   27  C   UNL     1     -11.768  16.556  65.266  1.00  0.00     0.897 C  
BRANCH  27  28
HETATM   28  C   UNL     1     -11.835  17.698  66.260  1.00  0.00     2.930 C  
HETATM   29  O   UNL     1     -10.539  19.265  67.507  1.00  0.00    -0.434 OA 
HETATM   30  C   UNL     1     -10.536  18.269  66.790  1.00  0.00    -0.365 C  
HETATM   31  O   UNL     1      -9.385  17.662  66.463  1.00  0.00    -0.263 OA 
ENDBRANCH  27  28
ENDBRANCH  24  27
ENDBRANCH   1  23
TORSDOF 9
ENDMDL
