MODEL      103
REMARK 921   NORMALIZED FREE ENERGY PREDICTED BY IDOCK:   -5.74 KCAL/MOL
REMARK 922        TOTAL FREE ENERGY PREDICTED BY IDOCK:   -8.94 KCAL/MOL
REMARK 923 INTER-LIGAND FREE ENERGY PREDICTED BY IDOCK:   -7.81 KCAL/MOL
REMARK 924 INTRA-LIGAND FREE ENERGY PREDICTED BY IDOCK:   -1.13 KCAL/MOL
REMARK 927      BINDING AFFINITY PREDICTED BY RF-SCORE:    0.00 PKD
ROOT
HETATM    1  C   UNL     1      -9.173   4.207  65.970  1.00  0.00    -0.149 C  
HETATM    2  C   UNL     1     -10.468   4.816  66.472  1.00  0.00    -0.204 C  
ENDROOT
BRANCH   2   3
HETATM    3  O   UNL     1     -10.392   5.061  67.882  1.00  0.00    -0.123 OA 
BRANCH   3   4
HETATM    4  C   UNL     1      -9.580   6.214  68.144  1.00  0.00    -0.116 C  
BRANCH   4   5
HETATM    5  C   UNL     1      -9.542   6.523  69.640  1.00  0.00    -0.147 C  
BRANCH   5   6
HETATM    6  N   UNL     1     -10.166   7.794  69.974  1.00  0.00    -0.206 NA 
HETATM    7  C   UNL     1      -9.691   9.068  69.707  1.00  0.00    -0.175 A  
HETATM    8  N   UNL     1     -10.528   9.984  70.153  1.00  0.00    -0.279 NA 
HETATM    9  C   UNL     1     -12.273   7.005  71.186  1.00  0.00    -0.427 A  
HETATM   10  C   UNL     1     -11.563   9.300  70.734  1.00  0.00    -0.285 A  
HETATM   11  C   UNL     1     -11.362   7.927  70.652  1.00  0.00    -0.259 A  
HETATM   12  C   UNL     1     -13.422   7.517  71.798  1.00  0.00    -0.381 A  
HETATM   13  C   UNL     1     -12.714   9.797  71.362  1.00  0.00    -0.483 A  
HETATM   14  C   UNL     1     -13.642   8.891  71.887  1.00  0.00    -0.474 A  
BRANCH   7  15
HETATM   15  C   UNL     1      -8.391   9.360  69.027  1.00  0.00    -0.124 C  
HETATM   16  C   UNL     1      -7.149   9.901  66.946  1.00  0.00    -0.090 C  
HETATM   17  C   UNL     1      -6.224  10.559  69.107  1.00  0.00    -0.045 C  
HETATM   18  C   UNL     1      -7.607  10.455  69.750  1.00  0.00    -0.141 C  
HETATM   19  N   UNL     1      -6.250  10.831  67.660  1.00  0.00    -0.051 NA 
HETATM   20  C   UNL     1      -8.549   9.771  67.562  1.00  0.00    -0.125 C  
BRANCH  19  21
HETATM   21  C   UNL     1      -6.573  12.229  67.334  1.00  0.00    -0.154 C  
BRANCH  21  22
HETATM   22  C   UNL     1      -6.085  13.236  68.392  1.00  0.00    -0.086 C  
BRANCH  22  23
HETATM   23  C   UNL     1      -6.672  14.597  68.122  1.00  0.00    -0.135 A  
HETATM   24  C   UNL     1      -5.968  15.751  68.479  1.00  0.00    -0.103 A  
HETATM   25  C   UNL     1      -6.563  17.005  68.359  1.00  0.00    -0.157 A  
HETATM   26  C   UNL     1      -7.879  17.138  67.877  1.00  0.00    -0.196 A  
HETATM   27  C   UNL     1      -7.955  14.718  67.594  1.00  0.00    -0.191 A  
HETATM   28  C   UNL     1      -8.548  15.973  67.465  1.00  0.00    -0.190 A  
BRANCH  26  29
HETATM   29  C   UNL     1      -8.566  18.516  67.901  1.00  0.00    -0.304 C  
HETATM   30  C   UNL     1      -8.686  19.141  66.499  1.00  0.00    -0.337 C  
HETATM   31  C   UNL     1      -9.987  18.363  68.488  1.00  0.00    -0.415 C  
HETATM   32  C   UNL     1      -7.814  19.559  68.754  1.00  0.00    -0.377 C  
HETATM   33  O   UNL     1      -7.668  18.853  65.650  1.00  0.00    -0.478 OA 
HETATM   34  O   UNL     1      -9.581  19.899  66.157  1.00  0.00    -0.398 OA 
ENDBRANCH  26  29
ENDBRANCH  22  23
ENDBRANCH  21  22
ENDBRANCH  19  21
ENDBRANCH   7  15
ENDBRANCH   5   6
ENDBRANCH   4   5
ENDBRANCH   3   4
ENDBRANCH   2   3
TORSDOF 9
ENDMDL
