MODEL      182
REMARK 921   NORMALIZED FREE ENERGY PREDICTED BY IDOCK:    6.14 KCAL/MOL
REMARK 922        TOTAL FREE ENERGY PREDICTED BY IDOCK:    6.95 KCAL/MOL
REMARK 923 INTER-LIGAND FREE ENERGY PREDICTED BY IDOCK:    7.12 KCAL/MOL
REMARK 924 INTRA-LIGAND FREE ENERGY PREDICTED BY IDOCK:   -0.17 KCAL/MOL
REMARK 927      BINDING AFFINITY PREDICTED BY RF-SCORE:    0.00 PKD
ROOT
HETATM    1  C   UNL     1     -12.965  15.235  64.676  1.00  0.00     0.835 C  
HETATM    2  N   UNL     1     -12.826  16.292  65.679  1.00  0.00     3.293 NA 
HETATM    3  C   UNL     1     -13.089  15.747  67.013  1.00  0.00     3.966 C  
ENDROOT
BRANCH   2   4
HETATM    4  C   UNL     1     -11.498  16.936  65.574  1.00  0.00     0.849 C  
BRANCH   4   5
HETATM    5  C   UNL     1     -10.868  17.225  66.949  1.00  0.00    -0.004 C  
BRANCH   5   6
HETATM    6  C   UNL     1      -9.715  16.323  67.338  1.00  0.00    -0.234 C  
HETATM    7  C   UNL     1      -8.469  16.738  67.680  1.00  0.00    -0.197 C  
HETATM    8  C   UNL     1      -8.167  18.184  67.587  1.00  0.00    -0.243 A  
HETATM    9  C   UNL     1      -8.725  19.101  68.489  1.00  0.00    -0.401 A  
HETATM   10  C   UNL     1      -8.481  20.466  68.347  1.00  0.00     0.232 A  
HETATM   11  C   UNL     1      -7.658  20.921  67.318  1.00  0.00    -0.312 A  
HETATM   12  C   UNL     1      -7.080  20.013  66.427  1.00  0.00    -0.269 A  
HETATM   13  C   UNL     1      -7.337  18.639  66.550  1.00  0.00    -0.263 A  
HETATM   14  C   UNL     1      -6.720  17.648  65.605  1.00  0.00     0.008 C  
HETATM   15  S   UNL     1      -5.333  16.766  66.373  1.00  0.00     0.470 SA 
HETATM   16  C   UNL     1      -6.102  15.727  67.630  1.00  0.00    -0.154 A  
HETATM   17  C   UNL     1      -5.196  14.802  68.193  1.00  0.00    -0.119 A  
HETATM   18  C   UNL     1      -5.583  13.902  69.185  1.00  0.00    -0.078 A  
HETATM   19  C   UNL     1      -6.891  13.910  69.643  1.00  0.00     0.011 A  
HETATM   20  C   UNL     1      -7.802  14.825  69.111  1.00  0.00    -0.141 A  
HETATM   21  C   UNL     1      -7.438  15.742  68.098  1.00  0.00    -0.129 A  
ENDBRANCH   5   6
ENDBRANCH   4   5
ENDBRANCH   2   4
TORSDOF 3
ENDMDL
