MODEL        6
REMARK 921   NORMALIZED FREE ENERGY PREDICTED BY IDOCK:   -4.13 KCAL/MOL
REMARK 922        TOTAL FREE ENERGY PREDICTED BY IDOCK:  -18.30 KCAL/MOL
REMARK 923 INTER-LIGAND FREE ENERGY PREDICTED BY IDOCK:  -13.43 KCAL/MOL
REMARK 924 INTRA-LIGAND FREE ENERGY PREDICTED BY IDOCK:   -4.88 KCAL/MOL
REMARK 927      BINDING AFFINITY PREDICTED BY RF-SCORE:    0.00 PKD
ROOT
HETATM    1  C   UNL     1      -6.434  18.349  66.191  1.00  0.00    -0.260 C  
HETATM    2  C   UNL     1      -7.110  19.710  66.195  1.00  0.00    -0.273 C  
ENDROOT
BRANCH   2   3
HETATM    3  C   UNL     1      -7.446  20.157  67.617  1.00  0.00    -0.341 C  
BRANCH   3   4
HETATM    4  C   UNL     1      -8.057  19.016  68.429  1.00  0.00    -0.381 C  
BRANCH   4   5
HETATM    5  C   UNL     1      -9.528  19.292  68.738  1.00  0.00    -0.459 C  
BRANCH   5   6
HETATM    6  C   UNL     1     -10.446  18.525  67.790  1.00  0.00    -0.443 C  
BRANCH   6   7
HETATM    7  C   UNL     1     -10.430  17.029  68.103  1.00  0.00    -0.357 C  
BRANCH   7   8
HETATM    8  C   UNL     1     -10.754  16.773  69.575  1.00  0.00    -0.273 C  
BRANCH   8   9
HETATM    9  C   UNL     1     -11.587  15.503  69.745  1.00  0.00    -0.345 C  
BRANCH   9  10
HETATM   10  C   UNL     1     -12.569  15.650  70.905  1.00  0.00    -0.503 C  
BRANCH  10  11
HETATM   11  C   UNL     1     -12.417  14.511  71.911  1.00  0.00    -0.406 C  
BRANCH  11  12
HETATM   12  C   UNL     1     -13.469  13.425  71.670  1.00  0.00    -0.378 C  
BRANCH  12  13
HETATM   13  C   UNL     1     -12.928  12.018  71.914  1.00  0.00    -0.428 C  
BRANCH  13  14
HETATM   14  C   UNL     1     -12.438  11.373  70.644  1.00  0.00    -0.327 C  
HETATM   15  O   UNL     1     -11.917  11.983  69.720  1.00  0.00    -0.308 OA 
BRANCH  14  16
HETATM   16  O   UNL     1     -12.618  10.026  70.704  1.00  0.00    -0.283 OA 
BRANCH  16  17
HETATM   17  C   UNL     1     -11.600   9.304  71.413  1.00  0.00    -0.367 C  
BRANCH  17  18
HETATM   18  C   UNL     1     -10.938   8.257  70.517  1.00  0.00    -0.242 C  
BRANCH  18  19
HETATM   19  O   UNL     1     -11.053   8.653  69.134  1.00  0.00    -0.013 OA 
BRANCH  19  20
HETATM   20  C   UNL     1      -9.972   9.293  68.623  1.00  0.00    -0.178 C  
HETATM   21  O   UNL     1      -8.992   9.652  69.260  1.00  0.00    -0.151 OA 
BRANCH  20  22
HETATM   22  C   UNL     1     -10.149   9.483  67.136  1.00  0.00    -0.290 C  
BRANCH  22  23
HETATM   23  C   UNL     1      -8.782   9.607  66.468  1.00  0.00    -0.147 C  
BRANCH  23  24
HETATM   24  C   UNL     1      -8.841  10.440  65.190  1.00  0.00    -0.207 C  
BRANCH  24  25
HETATM   25  C   UNL     1     -10.269  10.481  64.644  1.00  0.00    -0.364 C  
BRANCH  25  26
HETATM   26  C   UNL     1     -10.401  11.476  63.494  1.00  0.00    -0.484 C  
BRANCH  26  27
HETATM   27  C   UNL     1     -11.828  12.012  63.392  1.00  0.00    -0.542 C  
BRANCH  27  28
HETATM   28  C   UNL     1     -11.920  13.435  63.938  1.00  0.00    -0.520 C  
BRANCH  28  29
HETATM   29  C   UNL     1     -12.451  13.447  65.371  1.00  0.00    -0.543 C  
BRANCH  29  30
HETATM   30  C   UNL     1     -11.627  14.385  66.251  1.00  0.00    -0.377 C  
BRANCH  30  31
HETATM   31  C   UNL     1     -10.146  14.009  66.231  1.00  0.00    -0.307 C  
BRANCH  31  32
HETATM   32  C   UNL     1      -9.742  13.309  67.529  1.00  0.00    -0.224 C  
BRANCH  32  33
HETATM   33  C   UNL     1      -8.377  13.791  68.018  1.00  0.00    -0.171 C  
HETATM   34  C   UNL     1      -7.863  14.944  67.170  1.00  0.00    -0.203 C  
ENDBRANCH  32  33
ENDBRANCH  31  32
ENDBRANCH  30  31
ENDBRANCH  29  30
ENDBRANCH  28  29
ENDBRANCH  27  28
ENDBRANCH  26  27
ENDBRANCH  25  26
ENDBRANCH  24  25
ENDBRANCH  23  24
ENDBRANCH  22  23
ENDBRANCH  20  22
ENDBRANCH  19  20
ENDBRANCH  18  19
BRANCH  18  35
HETATM   35  C   UNL     1     -11.683   6.939  70.656  1.00  0.00    -0.367 C  
BRANCH  35  36
HETATM   36  O   UNL     1     -11.998   6.686  72.032  1.00  0.00    -0.311 OA 
BRANCH  36  37
HETATM   37  P   UNL     1     -10.725   5.850  72.855  1.00  0.00    -0.280 P  
HETATM   38  O   UNL     1     -10.448   7.055  73.765  1.00  0.00    -0.364 OA 
HETATM   39  O   UNL     1     -11.659   4.716  73.275  1.00  0.00    -0.314 OA 
BRANCH  37  40
HETATM   40  O   UNL     1      -9.453   5.015  73.677  1.00  0.00    -0.128 OA 
BRANCH  40  41
HETATM   41  C   UNL     1      -8.614   4.351  72.750  1.00  0.00    -0.109 C  
BRANCH  41  42
HETATM   42  C   UNL     1      -8.641   5.087  71.421  1.00  0.00    -0.126 C  
BRANCH  42  43
HETATM   43  N   UNL     1      -8.260   4.231  70.189  1.00  0.00    -0.058 N  
HETATM   44  C   UNL     1      -9.469   3.403  69.809  1.00  0.00    -0.159 C  
HETATM   45  C   UNL     1      -7.094   3.289  70.522  1.00  0.00    -0.034 C  
HETATM   46  C   UNL     1      -7.836   5.113  69.025  1.00  0.00    -0.081 C  
ENDBRANCH  42  43
ENDBRANCH  41  42
ENDBRANCH  40  41
ENDBRANCH  37  40
ENDBRANCH  36  37
ENDBRANCH  35  36
ENDBRANCH  18  35
ENDBRANCH  17  18
ENDBRANCH  16  17
ENDBRANCH  14  16
ENDBRANCH  13  14
ENDBRANCH  12  13
ENDBRANCH  11  12
ENDBRANCH  10  11
ENDBRANCH   9  10
ENDBRANCH   8   9
ENDBRANCH   7   8
ENDBRANCH   6   7
ENDBRANCH   5   6
ENDBRANCH   4   5
ENDBRANCH   3   4
ENDBRANCH   2   3
TORSDOF 36
ENDMDL
