MODEL       40
REMARK 921   NORMALIZED FREE ENERGY PREDICTED BY IDOCK:   -4.30 KCAL/MOL
REMARK 922        TOTAL FREE ENERGY PREDICTED BY IDOCK:   -5.79 KCAL/MOL
REMARK 923 INTER-LIGAND FREE ENERGY PREDICTED BY IDOCK:   -5.57 KCAL/MOL
REMARK 924 INTRA-LIGAND FREE ENERGY PREDICTED BY IDOCK:   -0.22 KCAL/MOL
REMARK 927      BINDING AFFINITY PREDICTED BY RF-SCORE:    0.00 PKD
ROOT
HETATM    1  C   UNL     1      -8.013   9.153  66.535  1.00  0.00    -0.100 C  
HETATM    2  C   UNL     1      -8.676   9.162  65.165  1.00  0.00    -0.228 C  
ENDROOT
BRANCH   2   3
HETATM    3  C   UNL     1      -8.764  10.577  64.583  1.00  0.00    -0.193 C  
BRANCH   3   4
HETATM    4  C   UNL     1      -9.412  11.583  65.558  1.00  0.00    -0.212 C  
BRANCH   4   5
HETATM    5  N   UNL     1     -10.816  11.274  65.884  1.00  0.00    -0.241 NA 
HETATM    6  C   UNL     1     -11.068  11.180  67.332  1.00  0.00    -0.307 C  
HETATM    7  C   UNL     1     -11.044  12.536  68.063  1.00  0.00    -0.245 C  
HETATM    8  C   UNL     1     -12.127  13.436  67.459  1.00  0.00    -0.279 C  
HETATM    9  O   UNL     1     -11.272  12.381  69.466  1.00  0.00    -0.420 OA 
HETATM   10  H   UNL     1     -11.257  13.218  69.917  1.00  0.00     0.000 HD 
HETATM   11  C   UNL     1     -11.949  13.561  65.944  1.00  0.00    -0.406 C  
HETATM   12  O   UNL     1     -12.081  14.780  67.975  1.00  0.00    -0.550 OA 
HETATM   13  C   UNL     1     -11.820  12.180  65.251  1.00  0.00    -0.295 C  
HETATM   14  H   UNL     1     -12.752  15.338  67.601  1.00  0.00     0.000 HD 
HETATM   15  O   UNL     1     -13.073  14.294  65.417  1.00  0.00    -0.685 OA 
HETATM   16  H   UNL     1     -12.962  14.371  64.477  1.00  0.00     0.000 HD 
BRANCH  13  17
HETATM   17  C   UNL     1     -11.649  12.383  63.723  1.00  0.00    -0.473 C  
HETATM   18  O   UNL     1     -12.433  11.455  62.974  1.00  0.00    -0.935 OA 
HETATM   19  H   UNL     1     -12.328  11.580  62.038  1.00  0.00     0.000 HD 
ENDBRANCH  13  17
ENDBRANCH   4   5
ENDBRANCH   3   4
ENDBRANCH   2   3
TORSDOF 4
ENDMDL
