MODEL      297
REMARK 921   NORMALIZED FREE ENERGY PREDICTED BY IDOCK:    1.43 KCAL/MOL
REMARK 922        TOTAL FREE ENERGY PREDICTED BY IDOCK:    0.74 KCAL/MOL
REMARK 923 INTER-LIGAND FREE ENERGY PREDICTED BY IDOCK:   -1.32 KCAL/MOL
REMARK 924 INTRA-LIGAND FREE ENERGY PREDICTED BY IDOCK:    2.06 KCAL/MOL
REMARK 927      BINDING AFFINITY PREDICTED BY RF-SCORE:    0.00 PKD
ROOT
HETATM    1  N   UNL     1      -6.693   3.052  73.790  1.00  0.00    -0.030 N  
HETATM    2  C   UNL     1      -7.175   3.143  72.516  1.00  0.00    -0.044 C  
HETATM    3  H1  UNL     1      -6.403   3.892  74.290  1.00  0.00     0.000 HD 
HETATM    4  H2  UNL     1      -6.625   2.141  74.244  1.00  0.00     0.000 HD 
HETATM    5  O   UNL     1      -7.524   2.132  71.914  1.00  0.00    -0.038 OA 
ENDROOT
BRANCH   2   6
HETATM    6  C   UNL     1      -7.248   4.481  71.982  1.00  0.00    -0.066 A  
HETATM    7  C   UNL     1      -7.649   4.929  70.738  1.00  0.00    -0.066 A  
HETATM    8  C   UNL     1      -7.567   6.341  70.763  1.00  0.00    -0.096 A  
HETATM    9  C   UNL     1      -7.848   7.378  69.855  1.00  0.00    -0.115 A  
HETATM   10  C   UNL     1      -7.636   8.724  70.210  1.00  0.00    -0.073 A  
HETATM   11  C   UNL     1      -7.134   8.982  71.500  1.00  0.00    -0.037 A  
HETATM   12  O   UNL     1      -6.894   5.551  72.766  1.00  0.00    -0.073 OA 
HETATM   13  C   UNL     1      -7.089   6.673  72.021  1.00  0.00    -0.080 A  
HETATM   14  C   UNL     1      -6.853   7.974  72.436  1.00  0.00    -0.085 A  
BRANCH  10  15
HETATM   15  N   UNL     1      -7.884   9.745  69.315  1.00  0.00    -0.095 NA 
HETATM   16  C   UNL     1      -9.143  10.505  69.313  1.00  0.00    -0.145 C  
HETATM   17  N   UNL     1      -7.991  12.408  68.078  1.00  0.00    -0.144 NA 
HETATM   18  C   UNL     1      -8.838  12.017  69.235  1.00  0.00     0.781 C  
HETATM   19  C   UNL     1      -6.947  10.077  68.228  1.00  0.00    -0.068 C  
HETATM   20  C   UNL     1      -6.742  11.610  68.150  1.00  0.00    -0.063 C  
BRANCH  17  21
HETATM   21  C   UNL     1      -8.671  12.201  66.790  1.00  0.00    -0.183 C  
BRANCH  21  22
HETATM   22  C   UNL     1      -9.631  13.342  66.424  1.00  0.00    -0.260 C  
BRANCH  22  23
HETATM   23  C   UNL     1      -9.370  14.639  67.194  1.00  0.00    -0.231 C  
BRANCH  23  24
HETATM   24  C   UNL     1      -7.954  14.679  67.767  1.00  0.00    -0.166 C  
BRANCH  24  25
HETATM   25  C   UNL     1      -7.519  16.060  68.112  1.00  0.00    -0.132 A  
HETATM   26  C   UNL     1      -6.381  16.410  68.811  1.00  0.00    -0.135 A  
HETATM   27  N   UNL     1      -6.363  17.771  68.939  1.00  0.00    -0.202 NA 
HETATM   28  H   UNL     1      -5.634  18.301  69.415  1.00  0.00     0.000 HD 
HETATM   29  C   UNL     1      -7.468  18.323  68.335  1.00  0.00    -0.281 A  
HETATM   30  C   UNL     1      -8.209  17.274  67.799  1.00  0.00    -0.205 A  
HETATM   31  C   UNL     1      -9.406  17.571  67.105  1.00  0.00    -0.250 A  
HETATM   32  C   UNL     1      -9.821  18.904  66.990  1.00  0.00    -0.368 A  
HETATM   33  C   UNL     1      -9.056  19.932  67.546  1.00  0.00    -0.432 A  
HETATM   34  C   UNL     1     -11.040  19.211  66.296  1.00  0.00     0.158 C  
HETATM   35  N   UNL     1     -12.027  19.468  65.740  1.00  0.00     2.255 NA 
HETATM   36  C   UNL     1      -7.863  19.661  68.228  1.00  0.00    -0.355 A  
ENDBRANCH  24  25
ENDBRANCH  23  24
ENDBRANCH  22  23
ENDBRANCH  21  22
ENDBRANCH  17  21
ENDBRANCH  10  15
ENDBRANCH   2   6
TORSDOF 7
ENDMDL
