MODEL        9
REMARK 921   NORMALIZED FREE ENERGY PREDICTED BY IDOCK:   -7.18 KCAL/MOL
REMARK 922        TOTAL FREE ENERGY PREDICTED BY IDOCK:  -12.42 KCAL/MOL
REMARK 923 INTER-LIGAND FREE ENERGY PREDICTED BY IDOCK:  -10.92 KCAL/MOL
REMARK 924 INTRA-LIGAND FREE ENERGY PREDICTED BY IDOCK:   -1.50 KCAL/MOL
REMARK 927      BINDING AFFINITY PREDICTED BY RF-SCORE:    0.00 PKD
ROOT
HETATM    1  C   UNL     1      -9.322   6.505  70.874  1.00  0.00    -0.165 C  
HETATM    2  C   UNL     1     -10.662   6.084  71.479  1.00  0.00    -0.309 C  
HETATM    3  C   UNL     1     -10.478   5.677  72.939  1.00  0.00    -0.246 C  
HETATM    4  C   UNL     1     -11.743   7.166  71.296  1.00  0.00    -0.306 C  
ENDROOT
BRANCH   4   5
HETATM    5  O   UNL     1     -11.427   8.392  71.971  1.00  0.00    -0.301 OA 
BRANCH   5   6
HETATM    6  C   UNL     1     -11.704   9.534  71.257  1.00  0.00    -0.370 A  
HETATM    7  C   UNL     1     -11.053   9.921  70.082  1.00  0.00    -0.353 A  
HETATM    8  C   UNL     1     -11.240  11.215  69.555  1.00  0.00    -0.341 A  
HETATM    9  C   UNL     1     -12.103  12.121  70.182  1.00  0.00    -0.368 A  
HETATM   10  C   UNL     1     -12.881  11.657  71.256  1.00  0.00    -0.430 A  
HETATM   11  C   UNL     1     -12.680  10.376  71.788  1.00  0.00    -0.525 A  
BRANCH   9  12
HETATM   12  C   UNL     1     -12.030  13.606  69.892  1.00  0.00    -0.348 C  
BRANCH  12  13
HETATM   13  N   UNL     1     -10.774  14.093  69.366  1.00  0.00    -0.420 N  
HETATM   14  H   UNL     1      -9.892  13.850  69.817  1.00  0.00     0.000 HD 
BRANCH  13  15
HETATM   15  C   UNL     1     -10.792  14.889  68.247  1.00  0.00    -0.257 C  
HETATM   16  O   UNL     1     -11.667  15.746  68.101  1.00  0.00    -0.316 OA 
BRANCH  15  17
HETATM   17  N   UNL     1      -9.764  14.702  67.315  1.00  0.00    -0.228 N  
BRANCH  17  18
HETATM   18  C   UNL     1      -8.512  15.452  67.619  1.00  0.00    -0.162 C  
BRANCH  18  19
HETATM   19  C   UNL     1      -8.604  16.976  67.493  1.00  0.00    -0.212 A  
HETATM   20  C   UNL     1      -9.404  19.645  67.417  1.00  0.00    -0.326 A  
HETATM   21  C   UNL     1      -8.319  17.830  68.568  1.00  0.00    -0.298 A  
HETATM   22  C   UNL     1      -8.751  19.157  68.541  1.00  0.00    -0.401 A  
HETATM   23  F   UNL     1      -9.927  20.882  67.441  1.00  0.00    -0.598 F  
HETATM   24  C   UNL     1      -9.560  18.860  66.285  1.00  0.00    -0.344 A  
HETATM   25  C   UNL     1      -9.139  17.530  66.311  1.00  0.00    -0.221 A  
ENDBRANCH  18  19
ENDBRANCH  17  18
BRANCH  17  26
HETATM   26  C   UNL     1      -9.917  14.019  65.977  1.00  0.00    -0.315 C  
HETATM   27  C   UNL     1     -10.517  12.601  65.995  1.00  0.00    -0.288 C  
HETATM   28  C   UNL     1     -10.622  14.840  64.851  1.00  0.00    -0.431 C  
HETATM   29  C   UNL     1     -12.150  12.395  63.550  1.00  0.00    -0.558 C  
HETATM   30  C   UNL     1     -12.037  12.610  65.965  1.00  0.00    -0.364 C  
HETATM   31  N   UNL     1     -12.538  13.183  64.721  1.00  0.00    -0.644 NA 
HETATM   32  C   UNL     1     -12.119  14.580  64.633  1.00  0.00    -0.473 C  
ENDBRANCH  17  26
ENDBRANCH  15  17
ENDBRANCH  13  15
ENDBRANCH  12  13
ENDBRANCH   9  12
ENDBRANCH   5   6
ENDBRANCH   4   5
TORSDOF 9
ENDMDL
