MODEL       47
REMARK 921   NORMALIZED FREE ENERGY PREDICTED BY IDOCK:   -6.02 KCAL/MOL
REMARK 922        TOTAL FREE ENERGY PREDICTED BY IDOCK:   -7.43 KCAL/MOL
REMARK 923 INTER-LIGAND FREE ENERGY PREDICTED BY IDOCK:   -7.07 KCAL/MOL
REMARK 924 INTRA-LIGAND FREE ENERGY PREDICTED BY IDOCK:   -0.36 KCAL/MOL
REMARK 927      BINDING AFFINITY PREDICTED BY RF-SCORE:    0.00 PKD
ROOT
HETATM    1  O   UNL     1     -12.602  14.891  68.651  1.00  0.00    -0.466 OA 
HETATM    2  C   UNL     1     -11.320  15.267  68.109  1.00  0.00    -0.338 C  
HETATM    3  H   UNL     1     -13.262  15.452  68.261  1.00  0.00     0.000 HD 
HETATM    4  C   UNL     1     -10.253  14.360  68.741  1.00  0.00    -0.239 C  
HETATM    5  C   UNL     1     -10.338  12.915  68.159  1.00  0.00    -0.240 C  
HETATM    6  O   UNL     1     -10.449  14.452  70.163  1.00  0.00    -0.388 OA 
HETATM    7  O   UNL     1     -12.616  13.930  64.074  1.00  0.00    -0.689 OA 
HETATM    8  H   UNL     1      -9.789  13.891  70.553  1.00  0.00     0.000 HD 
HETATM    9  O   UNL     1     -10.325  12.950  66.712  1.00  0.00    -0.241 OA 
HETATM   10  C   UNL     1     -11.482  13.662  66.221  1.00  0.00    -0.333 C  
HETATM   11  O   UNL     1     -10.781  12.608  64.183  1.00  0.00    -0.351 OA 
HETATM   12  P   UNL     1      -9.937  16.018  65.769  1.00  0.00    -0.276 P  
HETATM   13  C   UNL     1     -11.388  15.149  66.584  1.00  0.00    -0.234 C  
HETATM   14  C   UNL     1     -11.704  13.447  64.727  1.00  0.00    -0.361 C  
ENDROOT
BRANCH   5  15
HETATM   15  O   UNL     1      -9.268  12.051  68.591  1.00  0.00    -0.147 OA 
BRANCH  15  16
HETATM   16  C   UNL     1      -9.653  10.774  69.166  1.00  0.00    -0.151 C  
HETATM   17  O   UNL     1     -11.595  10.395  67.671  1.00  0.00    -0.615 OA 
HETATM   18  C   UNL     1     -10.360   9.849  68.162  1.00  0.00    -0.195 C  
HETATM   19  C   UNL     1      -9.399   9.589  67.004  1.00  0.00    -0.148 C  
HETATM   20  O   UNL     1     -10.129   8.960  65.945  1.00  0.00    -0.432 OA 
HETATM   21  H   UNL     1     -12.032   9.824  67.050  1.00  0.00     0.000 HD 
HETATM   22  C   UNL     1      -8.197   8.791  67.552  1.00  0.00    -0.110 C  
HETATM   23  O   UNL     1      -7.550   9.495  68.629  1.00  0.00    -0.078 OA 
HETATM   24  O   UNL     1      -8.556   7.488  68.028  1.00  0.00    -0.123 OA 
HETATM   25  H   UNL     1      -9.532   8.799  65.224  1.00  0.00     0.000 HD 
HETATM   26  C   UNL     1      -8.381  10.048  69.665  1.00  0.00    -0.176 C  
HETATM   27  P   UNL     1      -8.870   6.306  66.957  1.00  0.00    -0.111 P  
HETATM   28  C   UNL     1      -8.764   9.071  70.792  1.00  0.00    -0.224 C  
HETATM   29  O   UNL     1      -8.159   7.868  70.709  1.00  0.00    -0.097 OA 
HETATM   30  O   UNL     1      -9.532   9.340  71.705  1.00  0.00    -0.302 OA 
ENDBRANCH  15  16
ENDBRANCH   5  15
TORSDOF 2
ENDMDL
