MODEL       12
REMARK 921   NORMALIZED FREE ENERGY PREDICTED BY IDOCK:   -6.94 KCAL/MOL
REMARK 922        TOTAL FREE ENERGY PREDICTED BY IDOCK:  -13.70 KCAL/MOL
REMARK 923 INTER-LIGAND FREE ENERGY PREDICTED BY IDOCK:  -12.21 KCAL/MOL
REMARK 924 INTRA-LIGAND FREE ENERGY PREDICTED BY IDOCK:   -1.50 KCAL/MOL
REMARK 927      BINDING AFFINITY PREDICTED BY RF-SCORE:    0.00 PKD
ROOT
HETATM    1  C   UNL     1      -7.839   6.001  70.346  1.00  0.00    -0.106 C  
HETATM    2  C   UNL     1      -9.046   5.135  70.677  1.00  0.00    -0.178 C  
ENDROOT
BRANCH   2   3
HETATM    3  C   UNL     1     -10.101   5.909  71.384  1.00  0.00    -0.245 C  
HETATM    4  C   UNL     1     -10.226   6.268  72.670  1.00  0.00    -0.203 C  
HETATM    5  C   UNL     1     -11.476   7.048  72.922  1.00  0.00    -0.123 C  
HETATM    6  C   UNL     1      -9.268   6.017  73.780  1.00  0.00    -0.128 C  
HETATM    7  N   UNL     1     -12.024   7.177  71.600  1.00  0.00    -0.300 N  
HETATM    8  O   UNL     1     -11.521   6.272  69.494  1.00  0.00    -0.428 OA 
HETATM    9  C   UNL     1     -11.278   6.455  70.676  1.00  0.00    -0.339 C  
BRANCH   7  10
HETATM   10  C   UNL     1     -13.022   8.099  71.340  1.00  0.00    -0.242 C  
HETATM   11  O   UNL     1     -14.164   7.975  71.778  1.00  0.00    -0.404 OA 
BRANCH  10  12
HETATM   12  N   UNL     1     -12.631   9.180  70.592  1.00  0.00    -0.484 N  
HETATM   13  H   UNL     1     -13.129   9.376  69.723  1.00  0.00     0.000 HD 
BRANCH  12  14
HETATM   14  C   UNL     1     -11.544  10.058  70.977  1.00  0.00    -0.393 C  
BRANCH  14  15
HETATM   15  C   UNL     1     -10.410  10.107  69.939  1.00  0.00    -0.308 C  
BRANCH  15  16
HETATM   16  C   UNL     1     -10.746  10.880  68.675  1.00  0.00    -0.238 A  
HETATM   17  C   UNL     1     -11.381  12.129  68.725  1.00  0.00    -0.339 A  
HETATM   18  C   UNL     1     -11.736  12.804  67.556  1.00  0.00    -0.422 A  
HETATM   19  C   UNL     1     -11.401  12.274  66.310  1.00  0.00    -0.345 A  
HETATM   20  C   UNL     1     -10.727  11.052  66.236  1.00  0.00    -0.273 A  
HETATM   21  C   UNL     1     -10.396  10.365  67.414  1.00  0.00    -0.275 A  
BRANCH  19  22
HETATM   22  S   UNL     1     -11.986  13.079  64.830  1.00  0.00    -0.425 S  
HETATM   23  O   UNL     1     -11.843  12.132  63.742  1.00  0.00    -0.421 OA 
HETATM   24  O   UNL     1     -13.271  13.682  65.105  1.00  0.00    -0.739 OA 
BRANCH  22  25
HETATM   25  N   UNL     1     -10.862  14.276  64.513  1.00  0.00    -0.603 N  
HETATM   26  H   UNL     1      -9.961  14.002  64.121  1.00  0.00     0.000 HD 
BRANCH  25  27
HETATM   27  C   UNL     1     -11.089  15.617  64.753  1.00  0.00    -0.412 C  
HETATM   28  O   UNL     1     -11.512  16.378  63.896  1.00  0.00    -1.063 OA 
BRANCH  27  29
HETATM   29  N   UNL     1     -10.807  16.033  66.033  1.00  0.00    -0.245 N  
HETATM   30  H   UNL     1     -11.344  15.684  66.825  1.00  0.00     0.000 HD 
BRANCH  29  31
HETATM   31  C   UNL     1      -9.719  16.988  66.229  1.00  0.00    -0.283 C  
HETATM   32  C   UNL     1     -10.172  18.449  66.116  1.00  0.00    -0.408 C  
HETATM   33  C   UNL     1     -10.742  19.047  67.401  1.00  0.00    -0.559 C  
HETATM   34  C   UNL     1      -9.878  18.774  68.637  1.00  0.00    -0.441 C  
HETATM   35  C   UNL     1      -9.617  17.270  68.765  1.00  0.00    -0.269 C  
HETATM   36  C   UNL     1      -8.573  19.580  68.626  1.00  0.00    -0.365 C  
HETATM   37  C   UNL     1      -8.947  16.688  67.523  1.00  0.00    -0.204 C  
ENDBRANCH  29  31
ENDBRANCH  27  29
ENDBRANCH  25  27
ENDBRANCH  22  25
ENDBRANCH  19  22
ENDBRANCH  15  16
ENDBRANCH  14  15
ENDBRANCH  12  14
ENDBRANCH  10  12
ENDBRANCH   7  10
ENDBRANCH   2   3
TORSDOF 11
ENDMDL
