MODEL        2
REMARK 921   NORMALIZED FREE ENERGY PREDICTED BY IDOCK:   -7.01 KCAL/MOL
REMARK 922        TOTAL FREE ENERGY PREDICTED BY IDOCK:  -11.07 KCAL/MOL
REMARK 923 INTER-LIGAND FREE ENERGY PREDICTED BY IDOCK:  -10.75 KCAL/MOL
REMARK 924 INTRA-LIGAND FREE ENERGY PREDICTED BY IDOCK:   -0.32 KCAL/MOL
REMARK 927      BINDING AFFINITY PREDICTED BY RF-SCORE:    0.00 PKD
ROOT
HETATM    1  C   UNL     1     -12.901  15.628  71.248  1.00  0.00    -0.550 C  
HETATM    2  C   UNL     1     -12.141  14.438  70.688  1.00  0.00    -0.334 C  
ENDROOT
BRANCH   2   3
HETATM    3  O   UNL     1     -11.091  14.894  69.863  1.00  0.00    -0.258 OA 
BRANCH   3   4
HETATM    4  C   UNL     1     -11.094  14.837  68.507  1.00  0.00    -0.264 A  
HETATM    5  C   UNL     1     -10.560  15.991  67.836  1.00  0.00    -0.301 A  
HETATM    6  C   UNL     1     -10.735  16.125  66.433  1.00  0.00    -0.211 A  
HETATM    7  C   UNL     1     -12.110  12.636  65.825  1.00  0.00    -0.423 C  
HETATM    8  C   UNL     1     -11.365  15.081  65.696  1.00  0.00    -0.297 A  
HETATM    9  O   UNL     1     -12.068  11.718  66.827  1.00  0.00    -0.547 OA 
HETATM   10  O   UNL     1     -12.480  12.435  64.688  1.00  0.00    -0.466 OA 
HETATM   11  N   UNL     1     -11.395  15.110  64.291  1.00  0.00    -0.673 NA 
HETATM   12  C   UNL     1     -11.594  12.288  68.071  1.00  0.00    -0.349 C  
HETATM   13  C   UNL     1     -11.662  13.906  66.393  1.00  0.00    -0.403 A  
HETATM   14  H2  UNL     1     -10.436  15.204  63.955  1.00  0.00     0.000 HD 
HETATM   15  H1  UNL     1     -11.845  14.363  63.763  1.00  0.00     0.000 HD 
HETATM   16  C   UNL     1     -11.475  13.750  67.753  1.00  0.00    -0.354 A  
BRANCH   5  17
HETATM   17  O   UNL     1      -9.762  16.939  68.490  1.00  0.00    -0.243 OA 
BRANCH  17  18
HETATM   18  C   UNL     1     -10.511  18.003  69.115  1.00  0.00     0.069 C  
HETATM   19  C   UNL     1      -9.774  19.310  69.321  1.00  0.00    -0.292 C  
ENDBRANCH  17  18
ENDBRANCH   5  17
BRANCH   6  20
HETATM   20  O   UNL     1     -10.212  17.123  65.634  1.00  0.00    -0.564 OA 
BRANCH  20  21
HETATM   21  C   UNL     1     -10.885  18.383  65.638  1.00  0.00     0.086 C  
HETATM   22  C   UNL     1      -9.843  19.486  65.840  1.00  0.00    -0.322 C  
ENDBRANCH  20  21
ENDBRANCH   6  20
BRANCH  12  23
HETATM   23  C   UNL     1     -10.264  11.558  68.563  1.00  0.00    -0.213 C  
HETATM   24  C   UNL     1      -9.215  10.356  66.677  1.00  0.00    -0.156 C  
HETATM   25  C   UNL     1      -8.602  12.662  66.990  1.00  0.00    -0.181 C  
HETATM   26  N   UNL     1      -9.097  11.458  67.629  1.00  0.00    -0.152 NA 
HETATM   27  C   UNL     1      -9.046   9.058  67.445  1.00  0.00    -0.146 C  
HETATM   28  C   UNL     1      -9.973   8.981  68.629  1.00  0.00    -0.187 A  
HETATM   29  C   UNL     1     -10.180   7.712  69.192  1.00  0.00    -0.204 A  
HETATM   30  C   UNL     1     -11.018   7.615  70.271  1.00  0.00    -0.252 A  
HETATM   31  C   UNL     1     -11.618   8.719  70.830  1.00  0.00    -0.251 A  
HETATM   32  O   UNL     1     -12.411   8.352  71.881  1.00  0.00    -0.311 OA 
HETATM   33  C   UNL     1     -11.397  10.005  70.338  1.00  0.00    -0.320 A  
HETATM   34  C   UNL     1     -10.567  10.155  69.193  1.00  0.00    -0.247 A  
HETATM   35  O   UNL     1     -11.347   6.450  70.892  1.00  0.00    -0.304 OA 
HETATM   36  C   UNL     1     -12.351   6.918  71.805  1.00  0.00    -0.361 C  
BRANCH  33  37
HETATM   37  O   UNL     1     -11.918  11.147  70.878  1.00  0.00    -0.331 OA 
HETATM   38  C   UNL     1     -13.077  11.030  71.700  1.00  0.00    -0.438 C  
ENDBRANCH  33  37
ENDBRANCH  12  23
ENDBRANCH   3   4
ENDBRANCH   2   3
TORSDOF 8
ENDMDL
