MODEL       10
REMARK 921   NORMALIZED FREE ENERGY PREDICTED BY IDOCK:   -6.44 KCAL/MOL
REMARK 922        TOTAL FREE ENERGY PREDICTED BY IDOCK:  -10.99 KCAL/MOL
REMARK 923 INTER-LIGAND FREE ENERGY PREDICTED BY IDOCK:  -10.09 KCAL/MOL
REMARK 924 INTRA-LIGAND FREE ENERGY PREDICTED BY IDOCK:   -0.90 KCAL/MOL
REMARK 927      BINDING AFFINITY PREDICTED BY RF-SCORE:    0.00 PKD
ROOT
HETATM    1  C   UNL     1     -10.625  19.614  65.580  1.00  0.00    -0.364 C  
HETATM    2  O   UNL     1      -9.680  18.554  65.713  1.00  0.00    -0.468 OA 
ENDROOT
BRANCH   2   3
HETATM    3  C   UNL     1     -10.167  17.390  66.246  1.00  0.00    -0.341 A  
HETATM    4  C   UNL     1      -9.960  17.116  67.606  1.00  0.00    -0.283 A  
HETATM    5  N   UNL     1     -11.753  14.378  65.067  1.00  0.00    -0.372 NA 
HETATM    6  C   UNL     1     -10.404  15.886  68.140  1.00  0.00    -0.256 A  
HETATM    7  C   UNL     1     -11.213  15.216  65.954  1.00  0.00    -0.280 A  
HETATM    8  C   UNL     1     -11.034  14.909  67.323  1.00  0.00    -0.323 A  
HETATM    9  C   UNL     1     -12.057  13.145  65.482  1.00  0.00    -0.442 A  
HETATM   10  C   UNL     1     -10.785  16.426  65.448  1.00  0.00    -0.310 A  
HETATM   11  C   UNL     1     -11.469  13.620  67.752  1.00  0.00    -0.318 A  
HETATM   12  C   UNL     1     -11.884  12.717  66.780  1.00  0.00    -0.452 A  
BRANCH   4  13
HETATM   13  C   UNL     1      -9.332  18.140  68.492  1.00  0.00    -0.310 C  
HETATM   14  H2  UNL     1     -11.153  19.105  68.838  1.00  0.00     0.000 HD 
HETATM   15  H1  UNL     1      -9.724  19.794  69.638  1.00  0.00     0.000 HD 
HETATM   16  O   UNL     1      -8.133  18.166  68.738  1.00  0.00    -0.299 OA 
HETATM   17  N   UNL     1     -10.153  19.094  69.033  1.00  0.00    -0.383 N  
ENDBRANCH   4  13
BRANCH  11  18
HETATM   18  O   UNL     1     -11.318  13.314  69.093  1.00  0.00    -0.266 OA 
BRANCH  18  19
HETATM   19  C   UNL     1     -11.619  12.079  69.643  1.00  0.00    -0.301 A  
HETATM   20  C   UNL     1     -12.590  12.092  70.654  1.00  0.00    -0.255 A  
HETATM   21  C   UNL     1     -12.146   9.761  71.221  1.00  0.00    -0.382 A  
HETATM   22  C   UNL     1     -12.859  10.944  71.427  1.00  0.00    -0.554 A  
HETATM   23  C   UNL     1     -11.194   9.746  70.201  1.00  0.00    -0.272 A  
HETATM   24 CL   UNL     1     -10.248   8.325  69.878  1.00  0.00    -0.197 Cl 
HETATM   25  C   UNL     1     -10.944  10.882  69.425  1.00  0.00    -0.304 A  
BRANCH  21  26
HETATM   26  N   UNL     1     -12.291   8.596  72.007  1.00  0.00    -0.346 N  
HETATM   27  H   UNL     1     -11.627   8.479  72.772  1.00  0.00     0.000 HD 
BRANCH  26  28
HETATM   28  C   UNL     1     -13.226   7.609  71.856  1.00  0.00    -0.253 C  
HETATM   29  O   UNL     1     -14.396   7.787  71.532  1.00  0.00    -0.429 OA 
BRANCH  28  30
HETATM   30  N   UNL     1     -12.723   6.352  72.111  1.00  0.00    -0.507 N  
HETATM   31  H   UNL     1     -13.335   5.538  72.050  1.00  0.00     0.000 HD 
BRANCH  30  32
HETATM   32  C   UNL     1     -11.349   6.180  72.460  1.00  0.00    -0.286 C  
HETATM   33  C   UNL     1     -10.898   5.318  73.601  1.00  0.00    -0.347 C  
HETATM   34  C   UNL     1     -10.689   4.855  72.191  1.00  0.00    -0.193 C  
ENDBRANCH  30  32
ENDBRANCH  28  30
ENDBRANCH  26  28
ENDBRANCH  21  26
ENDBRANCH  18  19
ENDBRANCH  11  18
ENDBRANCH   2   3
TORSDOF 8
ENDMDL
