MODEL      156
REMARK 921   NORMALIZED FREE ENERGY PREDICTED BY IDOCK:   -4.48 KCAL/MOL
REMARK 922        TOTAL FREE ENERGY PREDICTED BY IDOCK:   -6.52 KCAL/MOL
REMARK 923 INTER-LIGAND FREE ENERGY PREDICTED BY IDOCK:   -5.82 KCAL/MOL
REMARK 924 INTRA-LIGAND FREE ENERGY PREDICTED BY IDOCK:   -0.69 KCAL/MOL
REMARK 927      BINDING AFFINITY PREDICTED BY RF-SCORE:    0.00 PKD
ROOT
HETATM    1  C   UNL     1      -7.125  16.367  66.982  1.00  0.00    -0.259 C  
HETATM    2  C   UNL     1      -7.247  17.207  68.267  1.00  0.00    -0.204 C  
HETATM    3  C   UNL     1      -6.465  18.518  68.063  1.00  0.00    -0.215 C  
HETATM    4  C   UNL     1      -6.621  16.450  69.452  1.00  0.00    -0.210 C  
HETATM    5  N   UNL     1      -8.643  17.581  68.561  1.00  0.00    -0.275 NA 
HETATM    6  H   UNL     1      -8.992  18.220  67.847  1.00  0.00     0.000 HD 
ENDROOT
BRANCH   5   7
HETATM    7  C   UNL     1      -9.570  16.455  68.727  1.00  0.00    -0.249 C  
BRANCH   7   8
HETATM    8  C   UNL     1     -10.849  16.651  67.890  1.00  0.00    -0.321 C  
HETATM    9  H   UNL     1     -11.389  17.702  66.312  1.00  0.00     0.000 HD 
HETATM   10  O   UNL     1     -10.600  17.581  66.828  1.00  0.00    -0.294 OA 
BRANCH   8  11
HETATM   11  C   UNL     1     -11.314  15.305  67.317  1.00  0.00    -0.269 C  
BRANCH  11  12
HETATM   12  O   UNL     1     -10.227  14.357  67.335  1.00  0.00    -0.245 OA 
BRANCH  12  13
HETATM   13  C   UNL     1     -10.354  13.337  66.419  1.00  0.00    -0.286 A  
HETATM   14  C   UNL     1     -10.683  13.574  65.079  1.00  0.00    -0.366 A  
HETATM   15  C   UNL     1     -10.753  12.525  64.171  1.00  0.00    -0.423 A  
HETATM   16  C   UNL     1     -10.499  11.225  64.594  1.00  0.00    -0.387 A  
HETATM   17  C   UNL     1     -10.204  10.958  65.937  1.00  0.00    -0.314 A  
HETATM   18  C   UNL     1     -10.179  12.016  66.876  1.00  0.00    -0.230 A  
HETATM   19  C   UNL     1      -9.918  11.737  68.342  1.00  0.00    -0.202 C  
HETATM   20  C   UNL     1     -10.044  10.255  68.714  1.00  0.00    -0.187 C  
HETATM   21  C   UNL     1      -9.305   9.365  67.702  1.00  0.00    -0.127 C  
HETATM   22  O   UNL     1      -9.532  10.030  70.029  1.00  0.00    -0.324 OA 
HETATM   23  H   UNL     1      -9.610   9.112  70.260  1.00  0.00     0.000 HD 
HETATM   24  O   UNL     1      -7.906   9.667  67.616  1.00  0.00    -0.095 OA 
HETATM   25  C   UNL     1      -9.953   9.516  66.326  1.00  0.00    -0.344 C  
HETATM   26  H   UNL     1      -7.448   9.117  66.990  1.00  0.00     0.000 HD 
ENDBRANCH  12  13
ENDBRANCH  11  12
ENDBRANCH   8  11
ENDBRANCH   7   8
ENDBRANCH   5   7
TORSDOF 5
ENDMDL
