MODEL      145
REMARK 921   NORMALIZED FREE ENERGY PREDICTED BY IDOCK:   -4.68 KCAL/MOL
REMARK 922        TOTAL FREE ENERGY PREDICTED BY IDOCK:  -11.79 KCAL/MOL
REMARK 923 INTER-LIGAND FREE ENERGY PREDICTED BY IDOCK:  -11.48 KCAL/MOL
REMARK 924 INTRA-LIGAND FREE ENERGY PREDICTED BY IDOCK:   -0.32 KCAL/MOL
REMARK 927      BINDING AFFINITY PREDICTED BY RF-SCORE:    0.00 PKD
ROOT
HETATM    1  C   UNL     1      -7.278  18.004  67.055  1.00  0.00    -0.219 C  
HETATM    2  C   UNL     1      -7.504  17.896  65.654  1.00  0.00     0.066 C  
HETATM    3  C   UNL     1      -8.747  18.371  66.356  1.00  0.00    -0.263 C  
HETATM    4  C   UNL     1      -8.282  18.931  68.253  1.00  0.00    -0.329 C  
HETATM    5  O   UNL     1      -8.857  19.692  69.320  1.00  0.00    -0.189 OA 
HETATM    6  C   UNL     1      -7.987  19.766  67.203  1.00  0.00    -0.323 C  
HETATM    7  C   UNL     1      -9.796  20.098  67.297  1.00  0.00    -0.580 C  
HETATM    8  C   UNL     1      -7.049  20.916  67.108  1.00  0.00    -0.413 C  
HETATM    9  H   UNL     1      -8.641  19.954  70.207  1.00  0.00     0.000 HD 
HETATM   10  C   UNL     1     -10.697  18.742  68.030  1.00  0.00    -0.273 C  
HETATM   11  C   UNL     1     -10.103  17.139  68.095  1.00  0.00    -0.311 C  
HETATM   12  C   UNL     1     -10.800  16.122  69.006  1.00  0.00    -0.299 A  
HETATM   13  C   UNL     1     -12.126  16.339  69.426  1.00  0.00     0.211 A  
HETATM   14  C   UNL     1     -12.857  15.342  70.081  1.00  0.00    -0.213 A  
HETATM   15  C   UNL     1     -12.264  14.115  70.331  1.00  0.00    -0.356 A  
HETATM   16  C   UNL     1     -10.962  13.866  69.921  1.00  0.00     0.111 A  
HETATM   17  O   UNL     1     -12.935  13.109  70.962  1.00  0.00    -0.242 OA 
HETATM   18  C   UNL     1     -10.227  14.844  69.224  1.00  0.00    -0.219 A  
HETATM   19  H   UNL     1     -12.529  12.268  71.134  1.00  0.00     0.000 HD 
HETATM   20  C   UNL     1      -8.838  14.454  68.749  1.00  0.00    -0.131 C  
HETATM   21  C   UNL     1      -8.282  15.262  67.551  1.00  0.00    -0.191 C  
HETATM   22  C   UNL     1      -8.391  16.749  67.961  1.00  0.00    -0.200 C  
ENDROOT
BRANCH  21  23
HETATM   23  C   UNL     1      -9.040  14.925  66.250  1.00  0.00    -0.262 C  
BRANCH  23  24
HETATM   24  C   UNL     1     -10.443  15.486  66.120  1.00  0.00    -0.323 C  
BRANCH  24  25
HETATM   25  C   UNL     1     -11.463  14.351  65.947  1.00  0.00    -0.341 C  
BRANCH  25  26
HETATM   26  C   UNL     1     -11.615  13.840  64.504  1.00  0.00    -0.413 C  
BRANCH  26  27
HETATM   27  C   UNL     1     -12.143  12.409  64.403  1.00  0.00    -0.505 C  
BRANCH  27  28
HETATM   28  C   UNL     1     -11.044  11.426  63.996  1.00  0.00    -0.400 C  
BRANCH  28  29
HETATM   29  C   UNL     1      -9.881  11.372  64.989  1.00  0.00    -0.304 C  
BRANCH  29  30
HETATM   30  C   UNL     1      -9.614   9.987  65.601  1.00  0.00    -0.313 C  
BRANCH  30  31
HETATM   31  C   UNL     1     -10.500   9.614  66.781  1.00  0.00    -0.186 C  
BRANCH  31  32
HETATM   32  S   UNL     1     -10.664  10.978  67.979  1.00  0.00    -0.237 S  
HETATM   33  O   UNL     1     -12.125  11.119  68.293  1.00  0.00    -0.620 OA 
BRANCH  32  34
HETATM   34  C   UNL     1      -9.890  10.145  69.402  1.00  0.00    -0.229 C  
BRANCH  34  35
HETATM   35  C   UNL     1     -10.431   8.733  69.599  1.00  0.00    -0.220 C  
BRANCH  35  36
HETATM   36  C   UNL     1     -10.326   8.290  71.058  1.00  0.00    -0.230 C  
BRANCH  36  37
HETATM   37  C   UNL     1     -11.663   8.316  71.795  1.00  0.00    -0.302 C  
HETATM   38  F   UNL     1     -11.420   8.202  73.133  1.00  0.00    -0.440 F  
HETATM   39  C   UNL     1     -12.663   7.248  71.329  1.00  0.00    -0.359 C  
HETATM   40  F   UNL     1     -12.192   9.565  71.628  1.00  0.00    -0.372 F  
HETATM   41  F   UNL     1     -12.229   6.566  70.248  1.00  0.00    -0.458 F  
HETATM   42  F   UNL     1     -12.908   6.348  72.311  1.00  0.00    -0.298 F  
HETATM   43  F   UNL     1     -13.860   7.791  70.993  1.00  0.00    -0.303 F  
ENDBRANCH  36  37
ENDBRANCH  35  36
ENDBRANCH  34  35
ENDBRANCH  32  34
ENDBRANCH  31  32
ENDBRANCH  30  31
ENDBRANCH  29  30
ENDBRANCH  28  29
ENDBRANCH  27  28
ENDBRANCH  26  27
ENDBRANCH  25  26
ENDBRANCH  24  25
ENDBRANCH  23  24
ENDBRANCH  21  23
TORSDOF 14
ENDMDL
