MODEL        7
REMARK 921   NORMALIZED FREE ENERGY PREDICTED BY IDOCK:   -7.75 KCAL/MOL
REMARK 922        TOTAL FREE ENERGY PREDICTED BY IDOCK:  -14.09 KCAL/MOL
REMARK 923 INTER-LIGAND FREE ENERGY PREDICTED BY IDOCK:  -12.16 KCAL/MOL
REMARK 924 INTRA-LIGAND FREE ENERGY PREDICTED BY IDOCK:   -1.92 KCAL/MOL
REMARK 927      BINDING AFFINITY PREDICTED BY RF-SCORE:    0.00 PKD
ROOT
HETATM    1  C   UNL     1     -12.316  12.928  70.459  1.00  0.00    -0.362 C  
HETATM    2  C   UNL     1     -12.274  11.442  70.733  1.00  0.00    -0.376 A  
HETATM    3  C   UNL     1     -13.146  10.933  71.688  1.00  0.00    -0.538 A  
HETATM    4  C   UNL     1     -13.182   9.580  71.988  1.00  0.00    -0.452 A  
HETATM    5  N   UNL     1     -14.185   9.135  72.855  1.00  0.00    -1.090 NA 
HETATM    6  C   UNL     1     -12.376   8.706  71.233  1.00  0.00    -0.298 A  
HETATM    7  H2  UNL     1     -15.094   9.424  72.495  1.00  0.00     0.000 HD 
HETATM    8  C   UNL     1     -12.446   7.302  71.386  1.00  0.00    -0.418 A  
HETATM    9  H1  UNL     1     -14.211   8.140  73.076  1.00  0.00     0.000 HD 
HETATM   10  C   UNL     1     -11.638   6.437  70.652  1.00  0.00    -0.412 A  
HETATM   11  C   UNL     1     -10.726   6.950  69.749  1.00  0.00    -0.276 A  
HETATM   12  C   UNL     1     -10.637   8.333  69.568  1.00  0.00    -0.216 A  
HETATM   13  C   UNL     1     -11.471   9.236  70.276  1.00  0.00    -0.162 A  
HETATM   14  N   UNL     1     -11.446  10.595  70.048  1.00  0.00    -0.299 NA 
ENDROOT
BRANCH  14  15
HETATM   15  C   UNL     1     -10.556  11.154  68.994  1.00  0.00    -0.218 C  
BRANCH  15  16
HETATM   16  C   UNL     1     -11.234  11.089  67.627  1.00  0.00    -0.373 C  
BRANCH  16  17
HETATM   17  C   UNL     1     -10.300  10.519  66.562  1.00  0.00    -0.294 C  
BRANCH  17  18
HETATM   18  C   UNL     1     -10.329  11.318  65.256  1.00  0.00    -0.337 C  
BRANCH  18  19
HETATM   19  C   UNL     1     -11.745  11.723  64.857  1.00  0.00    -0.187 C  
BRANCH  19  20
HETATM   20  C   UNL     1     -11.781  12.791  63.761  1.00  0.00    -0.562 C  
BRANCH  20  21
HETATM   21  C   UNL     1     -12.057  14.207  64.284  1.00  0.00    -0.471 C  
BRANCH  21  22
HETATM   22  C   UNL     1     -12.534  14.223  65.739  1.00  0.00    -0.421 C  
BRANCH  22  23
HETATM   23  C   UNL     1     -11.476  14.752  66.716  1.00  0.00    -0.343 C  
BRANCH  23  24
HETATM   24  C   UNL     1     -10.266  15.326  65.978  1.00  0.00    -0.317 C  
BRANCH  24  25
HETATM   25  N   UNL     1      -9.412  16.112  66.904  1.00  0.00    -0.223 NA 
HETATM   26  C   UNL     1      -8.460  15.484  67.662  1.00  0.00    -0.166 A  
HETATM   27  C   UNL     1      -7.611  16.239  68.477  1.00  0.00    -0.179 A  
HETATM   28  C   UNL     1      -8.186  13.997  67.655  1.00  0.00    -0.185 C  
HETATM   29  C   UNL     1      -7.723  17.617  68.564  1.00  0.00    -0.281 A  
HETATM   30  N   UNL     1      -6.742  18.300  69.289  1.00  0.00    -0.249 NA 
HETATM   31  C   UNL     1      -8.660  18.258  67.736  1.00  0.00    -0.263 A  
HETATM   32  H1  UNL     1      -6.824  19.314  69.353  1.00  0.00     0.000 HD 
HETATM   33  C   UNL     1      -9.538  17.485  66.928  1.00  0.00    -0.278 A  
HETATM   34  H2  UNL     1      -5.822  18.059  68.920  1.00  0.00     0.000 HD 
HETATM   35  C   UNL     1     -10.506  18.168  66.148  1.00  0.00    -0.377 A  
HETATM   36  C   UNL     1     -10.584  19.559  66.116  1.00  0.00    -0.585 A  
HETATM   37  C   UNL     1      -9.701  20.308  66.870  1.00  0.00    -0.584 A  
HETATM   38  C   UNL     1      -8.759  19.668  67.673  1.00  0.00    -0.372 A  
ENDBRANCH  24  25
ENDBRANCH  23  24
ENDBRANCH  22  23
ENDBRANCH  21  22
ENDBRANCH  20  21
ENDBRANCH  19  20
ENDBRANCH  18  19
ENDBRANCH  17  18
ENDBRANCH  16  17
ENDBRANCH  15  16
ENDBRANCH  14  15
TORSDOF 11
ENDMDL
