MODEL       16
REMARK 921   NORMALIZED FREE ENERGY PREDICTED BY IDOCK:   -5.27 KCAL/MOL
REMARK 922        TOTAL FREE ENERGY PREDICTED BY IDOCK:   -8.85 KCAL/MOL
REMARK 923 INTER-LIGAND FREE ENERGY PREDICTED BY IDOCK:   -8.01 KCAL/MOL
REMARK 924 INTRA-LIGAND FREE ENERGY PREDICTED BY IDOCK:   -0.84 KCAL/MOL
REMARK 927      BINDING AFFINITY PREDICTED BY RF-SCORE:    0.00 PKD
ROOT
HETATM    1  C   UNL     1     -12.369  15.507  74.321  1.00  0.00    -0.815 C  
HETATM    2  C   UNL     1     -13.314  15.906  73.200  1.00  0.00    -0.681 C  
ENDROOT
BRANCH   2   3
HETATM    3  C   UNL     1     -13.815  14.691  72.420  1.00  0.00    -0.580 C  
BRANCH   3   4
HETATM    4  C   UNL     1     -13.736  14.930  70.913  1.00  0.00    -0.210 C  
BRANCH   4   5
HETATM    5  O   UNL     1     -12.702  14.100  70.374  1.00  0.00    -0.342 OA 
BRANCH   5   6
HETATM    6  C   UNL     1     -11.923  14.691  69.413  1.00  0.00    -0.313 A  
HETATM    7  C   UNL     1     -11.098  15.796  69.625  1.00  0.00    -0.307 A  
HETATM    8  C   UNL     1     -10.345  16.321  68.566  1.00  0.00    -0.261 A  
HETATM    9  C   UNL     1     -10.429  15.755  67.290  1.00  0.00    -0.308 A  
HETATM   10  C   UNL     1     -11.952  14.085  68.154  1.00  0.00    -0.382 A  
HETATM   11  C   UNL     1     -11.217  14.619  67.089  1.00  0.00    -0.349 A  
BRANCH   9  12
HETATM   12  C   UNL     1      -9.698  16.422  66.165  1.00  0.00    -0.327 C  
HETATM   13  O   UNL     1     -10.329  16.731  65.152  1.00  0.00    -0.639 OA 
BRANCH  12  14
HETATM   14  C   UNL     1      -8.203  16.646  66.272  1.00  0.00    -0.365 C  
BRANCH  14  15
HETATM   15  C   UNL     1      -7.896  18.144  66.179  1.00  0.00    -0.204 C  
BRANCH  15  16
HETATM   16  N   UNL     1      -8.210  18.940  67.373  1.00  0.00    -0.268 NA 
HETATM   17  C   UNL     1      -7.357  18.533  68.506  1.00  0.00    -0.295 C  
HETATM   18  C   UNL     1      -5.932  19.087  68.427  1.00  0.00    -0.228 C  
HETATM   19  C   UNL     1      -5.969  20.606  68.396  1.00  0.00    -0.368 C  
HETATM   20  C   UNL     1      -6.838  21.085  67.237  1.00  0.00    -0.434 C  
HETATM   21  C   UNL     1      -8.209  20.399  67.206  1.00  0.00    -0.336 C  
ENDBRANCH  15  16
ENDBRANCH  14  15
ENDBRANCH  12  14
ENDBRANCH   9  12
ENDBRANCH   5   6
ENDBRANCH   4   5
ENDBRANCH   3   4
ENDBRANCH   2   3
TORSDOF 8
ENDMDL
