MODEL       29
REMARK 921   NORMALIZED FREE ENERGY PREDICTED BY IDOCK:   -5.74 KCAL/MOL
REMARK 922        TOTAL FREE ENERGY PREDICTED BY IDOCK:   -7.10 KCAL/MOL
REMARK 923 INTER-LIGAND FREE ENERGY PREDICTED BY IDOCK:   -6.87 KCAL/MOL
REMARK 924 INTRA-LIGAND FREE ENERGY PREDICTED BY IDOCK:   -0.23 KCAL/MOL
REMARK 927      BINDING AFFINITY PREDICTED BY RF-SCORE:    0.00 PKD
ROOT
HETATM    1  O5* UNL     1      -7.486  18.680  65.535  1.00  0.00    -0.505 OA 
HETATM    2  C5* UNL     1      -8.063  19.632  66.429  1.00  0.00    -0.326 C  
HETATM    3  H5* UNL     1      -6.652  18.988  65.199  1.00  0.00     0.000 HD 
ENDROOT
BRANCH   2   4
HETATM    4  C4* UNL     1      -9.404  19.137  66.969  1.00  0.00    -0.309 C  
HETATM    5  O4* UNL     1      -9.709  17.850  66.402  1.00  0.00    -0.310 OA 
HETATM    6  C1* UNL     1     -10.501  17.130  67.365  1.00  0.00    -0.334 C  
HETATM    7  H3* UNL     1     -10.153  19.947  70.029  1.00  0.00     0.000 HD 
HETATM    8  C2* UNL     1     -10.111  17.657  68.740  1.00  0.00    -0.377 C  
HETATM    9  C3* UNL     1      -9.422  18.975  68.483  1.00  0.00    -0.383 C  
HETATM   10  O3* UNL     1     -10.142  20.049  69.085  1.00  0.00    -0.366 OA 
BRANCH   6  11
HETATM   11  N   UNL     1     -10.306  15.700  67.199  1.00  0.00    -0.279 NA 
HETATM   12  C   UNL     1      -9.328  15.080  66.471  1.00  0.00    -0.281 A  
HETATM   13  C   UNL     1     -10.543  13.533  67.302  1.00  0.00    -0.263 A  
HETATM   14  N   UNL     1      -9.437  13.771  66.514  1.00  0.00    -0.281 NA 
HETATM   15  C   UNL     1     -11.085  14.719  67.769  1.00  0.00    -0.299 A  
HETATM   16  N   UNL     1     -12.108  15.009  68.609  1.00  0.00    -0.583 NA 
HETATM   17  C   UNL     1     -12.273  14.191  69.595  1.00  0.00    -0.326 C  
HETATM   18  H   UNL     1     -12.709  15.821  68.472  1.00  0.00     0.000 HD 
HETATM   19  N   UNL     1     -11.613  13.040  69.958  1.00  0.00    -0.525 NA 
HETATM   20  C   UNL     1     -11.458  11.899  69.046  1.00  0.00    -0.297 C  
HETATM   21  H   UNL     1     -11.216  12.977  70.895  1.00  0.00     0.000 HD 
HETATM   22  C   UNL     1     -11.045  12.163  67.577  1.00  0.00    -0.275 C  
HETATM   23  O   UNL     1     -12.156  11.842  66.716  1.00  0.00    -0.547 OA 
HETATM   24  H   UNL     1     -12.478  10.965  66.892  1.00  0.00     0.000 HD 
ENDBRANCH   6  11
ENDBRANCH   2   4
TORSDOF 2
ENDMDL
