MODEL       31
REMARK 921   NORMALIZED FREE ENERGY PREDICTED BY IDOCK:   -6.46 KCAL/MOL
REMARK 922        TOTAL FREE ENERGY PREDICTED BY IDOCK:   -8.23 KCAL/MOL
REMARK 923 INTER-LIGAND FREE ENERGY PREDICTED BY IDOCK:   -7.75 KCAL/MOL
REMARK 924 INTRA-LIGAND FREE ENERGY PREDICTED BY IDOCK:   -0.48 KCAL/MOL
REMARK 927      BINDING AFFINITY PREDICTED BY RF-SCORE:    0.00 PKD
ROOT
HETATM    1  C   UNL     1      -8.415  19.428  68.734  1.00  0.00    -0.377 C  
HETATM    2  C   UNL     1      -7.694  19.479  67.414  1.00  0.00    -0.284 A  
HETATM    3  C   UNL     1      -7.237  20.757  67.010  1.00  0.00    -0.369 A  
HETATM    4  C   UNL     1      -6.482  20.920  65.851  1.00  0.00    -0.229 A  
HETATM    5  C   UNL     1      -6.167  19.814  65.083  1.00  0.00    -0.295 A  
HETATM    6  C   UNL     1      -6.642  18.553  65.457  1.00  0.00    -0.299 A  
HETATM    7  C   UNL     1      -7.440  18.348  66.601  1.00  0.00    -0.229 A  
ENDROOT
BRANCH   7   8
HETATM    8  N   UNL     1      -7.977  17.085  66.805  1.00  0.00    -0.214 NA 
HETATM    9  C   UNL     1      -9.354  16.774  66.417  1.00  0.00    -0.278 C  
HETATM   10  C   UNL     1      -9.478  15.306  65.969  1.00  0.00    -0.337 C  
HETATM   11  N   UNL     1      -9.000  14.317  66.965  1.00  0.00    -0.227 NA 
HETATM   12  C   UNL     1      -7.320  16.114  67.707  1.00  0.00    -0.135 C  
HETATM   13  C   UNL     1      -7.582  14.653  67.250  1.00  0.00    -0.143 C  
BRANCH  11  14
HETATM   14  C   UNL     1      -9.796  14.311  68.216  1.00  0.00    -0.235 C  
BRANCH  14  15
HETATM   15  C   UNL     1     -11.185  13.701  68.013  1.00  0.00    -0.295 C  
BRANCH  15  16
HETATM   16  C   UNL     1     -11.754  13.071  69.229  1.00  0.00    -0.320 A  
HETATM   17  N   UNL     1     -11.738  11.809  69.600  1.00  0.00    -0.321 NA 
HETATM   18  N   UNL     1     -12.407  11.704  70.803  1.00  0.00    -0.385 NA 
HETATM   19  C   UNL     1     -12.817  12.906  71.141  1.00  0.00    -0.238 A  
HETATM   20  C   UNL     1     -13.582  13.330  72.342  1.00  0.00    -0.694 C  
HETATM   21  C   UNL     1     -14.150  14.745  72.175  1.00  0.00    -0.604 C  
HETATM   22  C   UNL     1     -13.100  15.696  71.600  1.00  0.00    -0.554 C  
HETATM   23  C   UNL     1     -12.648  15.219  70.220  1.00  0.00    -0.347 C  
HETATM   24  N   UNL     1     -12.395  13.795  70.196  1.00  0.00    -0.338 NA 
ENDBRANCH  15  16
ENDBRANCH  14  15
ENDBRANCH  11  14
ENDBRANCH   7   8
TORSDOF 4
ENDMDL
