MODEL       21
REMARK 921   NORMALIZED FREE ENERGY PREDICTED BY IDOCK:   -6.01 KCAL/MOL
REMARK 922        TOTAL FREE ENERGY PREDICTED BY IDOCK:   -8.42 KCAL/MOL
REMARK 923 INTER-LIGAND FREE ENERGY PREDICTED BY IDOCK:   -7.90 KCAL/MOL
REMARK 924 INTRA-LIGAND FREE ENERGY PREDICTED BY IDOCK:   -0.52 KCAL/MOL
REMARK 927      BINDING AFFINITY PREDICTED BY RF-SCORE:    0.00 PKD
ROOT
HETATM    1  C   UNL     1     -11.275  12.220  69.547  1.00  0.00    -0.185 C  
HETATM    2  C   UNL     1     -10.418  11.182  69.489  1.00  0.00    -0.080 C  
ENDROOT
BRANCH   1   3
HETATM    3  C   UNL     1     -11.055  13.344  68.697  1.00  0.00    -0.263 A  
HETATM    4  N   UNL     1     -10.953  13.357  67.377  1.00  0.00    -0.268 NA 
HETATM    5  N   UNL     1     -10.744  15.129  65.738  1.00  0.00    -0.333 N  
HETATM    6  O   UNL     1     -10.646  16.971  64.371  1.00  0.00    -0.150 OA 
HETATM    7  C   UNL     1     -10.841  14.661  67.025  1.00  0.00    -0.304 A  
HETATM    8  C   UNL     1     -10.850  15.486  68.108  1.00  0.00    -0.296 A  
HETATM    9  C   UNL     1     -10.666  16.504  65.513  1.00  0.00    -0.256 C  
HETATM   10  N   UNL     1     -10.974  14.646  69.190  1.00  0.00    -0.254 NA 
HETATM   11  C   UNL     1     -11.009  15.033  70.580  1.00  0.00    -0.175 C  
HETATM   12  N   UNL     1     -10.594  17.335  66.650  1.00  0.00    -0.236 N  
HETATM   13  C   UNL     1     -10.727  16.906  67.979  1.00  0.00    -0.364 C  
HETATM   14  O   UNL     1     -10.733  17.672  68.938  1.00  0.00    -0.222 OA 
BRANCH  12  15
HETATM   15  C   UNL     1     -10.360  18.760  66.418  1.00  0.00    -0.439 C  
HETATM   16  C   UNL     1      -8.910  19.175  66.620  1.00  0.00    -0.340 C  
ENDBRANCH  12  15
BRANCH   5  17
HETATM   17  C   UNL     1     -10.739  14.200  64.612  1.00  0.00    -0.389 C  
HETATM   18  C   UNL     1     -12.141  13.802  64.177  1.00  0.00    -0.478 C  
ENDBRANCH   5  17
ENDBRANCH   1   3
BRANCH   2  19
HETATM   19  C   UNL     1     -10.557   9.882  70.171  1.00  0.00    -0.350 A  
HETATM   20  C   UNL     1      -9.747   7.695  70.866  1.00  0.00    -0.175 A  
HETATM   21  C   UNL     1     -10.933   7.451  71.563  1.00  0.00    -0.230 A  
HETATM   22  C   UNL     1     -11.959   8.412  71.537  1.00  0.00    -0.299 A  
HETATM   23  C   UNL     1     -11.768   9.609  70.833  1.00  0.00    -0.412 A  
HETATM   24  C   UNL     1      -9.560   8.902  70.176  1.00  0.00    -0.199 A  
BRANCH  22  25
HETATM   25  O   UNL     1     -13.094   8.091  72.240  1.00  0.00    -0.237 OA 
HETATM   26  C   UNL     1     -14.298   7.888  71.515  1.00  0.00    -0.445 C  
ENDBRANCH  22  25
BRANCH  21  27
HETATM   27  O   UNL     1     -11.194   6.317  72.294  1.00  0.00    -0.254 OA 
HETATM   28  C   UNL     1     -10.556   6.172  73.553  1.00  0.00    -0.266 C  
ENDBRANCH  21  27
ENDBRANCH   2  19
TORSDOF 6
ENDMDL
