MODEL        3
REMARK 921   NORMALIZED FREE ENERGY PREDICTED BY IDOCK:   -8.53 KCAL/MOL
REMARK 922        TOTAL FREE ENERGY PREDICTED BY IDOCK:  -11.61 KCAL/MOL
REMARK 923 INTER-LIGAND FREE ENERGY PREDICTED BY IDOCK:  -11.10 KCAL/MOL
REMARK 924 INTRA-LIGAND FREE ENERGY PREDICTED BY IDOCK:   -0.51 KCAL/MOL
REMARK 927      BINDING AFFINITY PREDICTED BY RF-SCORE:    0.00 PKD
ROOT
HETATM    1  C   UNL     1     -10.649  19.703  65.921  1.00  0.00    -0.566 C  
HETATM    2  C   UNL     1      -9.694  18.576  66.219  1.00  0.00    -0.305 C  
HETATM    3  O   UNL     1      -8.515  18.692  65.877  1.00  0.00    -0.491 OA 
ENDROOT
BRANCH   2   4
HETATM    4  C   UNL     1     -10.173  17.368  66.990  1.00  0.00    -0.323 C  
HETATM    5  C   UNL     1     -10.349  17.416  68.327  1.00  0.00    -0.374 C  
HETATM    6  C   UNL     1     -10.008  18.570  69.251  1.00  0.00    -0.092 C  
HETATM    7  C   UNL     1     -10.951  16.236  68.985  1.00  0.00    -0.325 A  
HETATM    8  C   UNL     1     -11.109  16.138  70.344  1.00  0.00    -0.351 A  
HETATM    9  N   UNL     1     -11.691  15.102  70.951  1.00  0.00    -0.305 NA 
HETATM   10  C   UNL     1     -12.178  14.100  70.214  1.00  0.00    -0.349 A  
HETATM   11  N   UNL     1     -12.051  14.085  68.879  1.00  0.00    -0.347 NA 
HETATM   12  O   UNL     1      -9.922  15.896  65.164  1.00  0.00    -0.420 OA 
HETATM   13  C   UNL     1     -10.436  16.079  66.266  1.00  0.00    -0.320 C  
HETATM   14  C   UNL     1     -11.441  15.146  68.280  1.00  0.00    -0.336 A  
HETATM   15  N   UNL     1     -11.257  15.129  66.866  1.00  0.00    -0.321 N  
BRANCH  10  16
HETATM   16  N   UNL     1     -12.865  13.071  70.852  1.00  0.00    -0.202 NA 
HETATM   17  H   UNL     1     -13.758  13.319  71.277  1.00  0.00     0.000 HD 
BRANCH  16  18
HETATM   18  C   UNL     1     -12.469  11.734  70.974  1.00  0.00    -0.309 A  
HETATM   19  C   UNL     1     -11.145   9.982  70.209  1.00  0.00    -0.318 A  
HETATM   20  C   UNL     1     -13.123  10.828  71.800  1.00  0.00    -0.573 A  
HETATM   21  C   UNL     1     -12.838   9.468  71.728  1.00  0.00    -0.496 A  
HETATM   22  N   UNL     1     -11.432  11.322  70.219  1.00  0.00    -0.256 NA 
HETATM   23  C   UNL     1     -11.847   8.981  70.886  1.00  0.00    -0.253 A  
BRANCH  23  24
HETATM   24  N   UNL     1     -11.623   7.628  70.777  1.00  0.00    -0.284 NA 
HETATM   25  C   UNL     1     -10.466   7.100  70.023  1.00  0.00    -0.221 C  
HETATM   26  C   UNL     1      -9.521   6.318  70.964  1.00  0.00    -0.175 C  
HETATM   27  N   UNL     1     -10.202   5.244  71.709  1.00  0.00    -0.203 NA 
HETATM   28  C   UNL     1     -11.343   5.814  72.454  1.00  0.00    -0.294 C  
HETATM   29  H   UNL     1      -9.563   4.730  72.316  1.00  0.00     0.000 HD 
HETATM   30  C   UNL     1     -12.328   6.611  71.568  1.00  0.00    -0.313 C  
ENDBRANCH  23  24
ENDBRANCH  16  18
ENDBRANCH  10  16
BRANCH  15  31
HETATM   31  C   UNL     1     -11.643  13.909  66.137  1.00  0.00    -0.359 C  
HETATM   32  C   UNL     1     -12.326  14.111  64.771  1.00  0.00    -0.436 C  
HETATM   33  C   UNL     1     -10.456  12.978  65.853  1.00  0.00    -0.293 C  
HETATM   34  C   UNL     1     -12.114  12.778  64.070  1.00  0.00    -0.533 C  
HETATM   35  C   UNL     1     -10.719  12.338  64.493  1.00  0.00    -0.358 C  
ENDBRANCH  15  31
ENDBRANCH   2   4
TORSDOF 5
ENDMDL
