MODEL      275
REMARK 921   NORMALIZED FREE ENERGY PREDICTED BY IDOCK:   -0.25 KCAL/MOL
REMARK 922        TOTAL FREE ENERGY PREDICTED BY IDOCK:   -0.83 KCAL/MOL
REMARK 923 INTER-LIGAND FREE ENERGY PREDICTED BY IDOCK:   -1.83 KCAL/MOL
REMARK 924 INTRA-LIGAND FREE ENERGY PREDICTED BY IDOCK:    1.01 KCAL/MOL
REMARK 927      BINDING AFFINITY PREDICTED BY RF-SCORE:    0.00 PKD
ROOT
HETATM    1 CL   UNL     1     -12.402  19.562  66.334  1.00  0.00     3.513 Cl 
HETATM    2  C   UNL     1     -10.715  19.194  66.365  1.00  0.00    -0.361 A  
HETATM    3  C   UNL     1     -10.230  17.980  66.924  1.00  0.00    -0.366 A  
HETATM    4  O   UNL     1      -5.456  20.762  67.616  1.00  0.00    -0.199 OA 
HETATM    5  C   UNL     1      -8.867  17.648  66.818  1.00  0.00    -0.275 A  
HETATM    6  C   UNL     1      -8.001  18.665  66.477  1.00  0.00    -0.296 A  
HETATM    7  N   UNL     1      -7.490  20.873  66.478  1.00  0.00    -0.039 NA 
HETATM    8  C   UNL     1      -6.519  18.744  66.690  1.00  0.00    -0.209 C  
HETATM    9  C   UNL     1      -9.825  20.207  66.011  1.00  0.00    -0.460 A  
HETATM   10  C   UNL     1      -8.488  19.941  66.204  1.00  0.00    -0.319 A  
HETATM   11  C   UNL     1      -6.365  20.232  67.001  1.00  0.00    -0.199 C  
ENDROOT
BRANCH   3  12
HETATM   12  C   UNL     1     -10.967  17.366  68.105  1.00  0.00    -0.160 C  
BRANCH  12  13
HETATM   13  C   UNL     1     -11.012  15.850  68.336  1.00  0.00    -0.331 C  
BRANCH  13  14
HETATM   14  N   UNL     1     -10.122  15.205  67.345  1.00  0.00    -0.228 NA 
HETATM   15  N   UNL     1      -9.193  12.413  67.919  1.00  0.00    -0.185 NA 
HETATM   16  C   UNL     1      -8.805  14.826  67.891  1.00  0.00    -0.167 C  
HETATM   17  C   UNL     1     -10.701  14.043  66.636  1.00  0.00    -0.281 C  
HETATM   18  C   UNL     1     -10.462  12.591  67.184  1.00  0.00    -0.224 C  
HETATM   19  C   UNL     1      -8.870  13.567  68.766  1.00  0.00     0.105 C  
BRANCH  15  20
HETATM   20  C   UNL     1      -8.107  11.795  67.327  1.00  0.00    -0.164 A  
HETATM   21  N   UNL     1      -6.858  12.096  67.655  1.00  0.00    -0.105 NA 
HETATM   22  S   UNL     1      -5.805  11.034  66.970  1.00  0.00    -0.081 SA 
HETATM   23  C   UNL     1      -7.000  10.076  66.201  1.00  0.00    -0.107 A  
HETATM   24  C   UNL     1      -6.817   8.907  65.449  1.00  0.00    -0.072 A  
HETATM   25  C   UNL     1      -7.948   8.296  64.902  1.00  0.00    -0.144 A  
HETATM   26  C   UNL     1      -9.205   8.852  65.100  1.00  0.00    -0.100 A  
HETATM   27  C   UNL     1      -9.379  10.004  65.869  1.00  0.00    -0.236 A  
HETATM   28  C   UNL     1      -8.242  10.664  66.431  1.00  0.00    -0.146 A  
ENDBRANCH  15  20
ENDBRANCH  13  14
ENDBRANCH  12  13
ENDBRANCH   3  12
TORSDOF 4
ENDMDL
