MODEL      187
REMARK 921   NORMALIZED FREE ENERGY PREDICTED BY IDOCK:    3.74 KCAL/MOL
REMARK 922        TOTAL FREE ENERGY PREDICTED BY IDOCK:    4.86 KCAL/MOL
REMARK 923 INTER-LIGAND FREE ENERGY PREDICTED BY IDOCK:    5.09 KCAL/MOL
REMARK 924 INTRA-LIGAND FREE ENERGY PREDICTED BY IDOCK:   -0.23 KCAL/MOL
REMARK 927      BINDING AFFINITY PREDICTED BY RF-SCORE:    0.00 PKD
ROOT
HETATM    1  F   UNL     1     -12.741  19.072  65.223  1.00  0.00     6.520 F  
HETATM    2  C   UNL     1     -11.624  18.607  65.799  1.00  0.00     2.325 A  
HETATM    3  C   UNL     1     -11.014  17.469  65.288  1.00  0.00     0.232 A  
HETATM    4  C   UNL     1      -9.872  16.961  65.910  1.00  0.00    -0.241 A  
HETATM    5  C   UNL     1      -9.328  17.592  67.048  1.00  0.00    -0.262 A  
HETATM    6  C   UNL     1      -9.942  18.768  67.516  1.00  0.00    -0.382 A  
HETATM    7  C   UNL     1     -11.092  19.267  66.901  1.00  0.00    -0.204 A  
ENDROOT
BRANCH   5   8
HETATM    8  C   UNL     1      -8.082  17.006  67.731  1.00  0.00    -0.190 C  
BRANCH   8   9
HETATM    9  N   UNL     1      -7.336  16.065  66.838  1.00  0.00    -0.221 NA 
HETATM   10  C   UNL     1      -8.164  14.894  66.437  1.00  0.00     0.409 C  
HETATM   11  C   UNL     1      -6.111  15.521  67.474  1.00  0.00    -0.089 C  
HETATM   12  C   UNL     1      -8.397  13.834  67.545  1.00  0.00    -0.192 C  
HETATM   13  N   UNL     1      -7.180  13.360  68.246  1.00  0.00    -0.099 NA 
HETATM   14  C   UNL     1      -6.368  14.530  68.633  1.00  0.00    -0.086 C  
BRANCH  13  15
HETATM   15  C   UNL     1      -6.365  12.426  67.452  1.00  0.00    -0.157 C  
BRANCH  15  16
HETATM   16  C   UNL     1      -7.080  11.138  67.199  1.00  0.00    -0.113 C  
HETATM   17  C   UNL     1      -7.439  10.290  68.175  1.00  0.00    -0.086 C  
BRANCH  17  18
HETATM   18  C   UNL     1      -7.939   8.967  67.820  1.00  0.00    -0.102 A  
HETATM   19  C   UNL     1      -8.050   8.639  66.463  1.00  0.00    -0.103 A  
HETATM   20  C   UNL     1      -8.623   7.428  66.081  1.00  0.00    -0.154 A  
HETATM   21  C   UNL     1      -9.079   6.542  67.055  1.00  0.00    -0.133 A  
HETATM   22  C   UNL     1      -8.957   6.860  68.408  1.00  0.00    -0.121 A  
HETATM   23  C   UNL     1      -8.385   8.074  68.793  1.00  0.00    -0.127 A  
ENDBRANCH  17  18
ENDBRANCH  15  16
ENDBRANCH  13  15
ENDBRANCH   8   9
BRANCH   8  24
HETATM   24  C   UNL     1      -7.206  18.125  68.336  1.00  0.00    -0.264 A  
HETATM   25  C   UNL     1      -5.971  20.210  68.023  1.00  0.00    -0.270 A  
HETATM   26  F   UNL     1      -5.140  21.363  69.906  1.00  0.00    -0.410 F  
HETATM   27  C   UNL     1      -6.678  19.125  67.495  1.00  0.00    -0.214 A  
HETATM   28  C   UNL     1      -6.247  19.310  70.243  1.00  0.00    -0.148 A  
HETATM   29  C   UNL     1      -6.941  18.213  69.717  1.00  0.00     0.276 A  
HETATM   30  C   UNL     1      -5.777  20.301  69.394  1.00  0.00    -0.309 A  
ENDBRANCH   8  24
ENDBRANCH   5   8
TORSDOF 6
ENDMDL
