MODEL      162
REMARK 921   NORMALIZED FREE ENERGY PREDICTED BY IDOCK:   -4.89 KCAL/MOL
REMARK 922        TOTAL FREE ENERGY PREDICTED BY IDOCK:  -11.81 KCAL/MOL
REMARK 923 INTER-LIGAND FREE ENERGY PREDICTED BY IDOCK:   -9.90 KCAL/MOL
REMARK 924 INTRA-LIGAND FREE ENERGY PREDICTED BY IDOCK:   -1.90 KCAL/MOL
REMARK 927      BINDING AFFINITY PREDICTED BY RF-SCORE:    0.00 PKD
ROOT
HETATM    1  O   UNL     1     -12.515   8.231  72.590  1.00  0.00    -0.575 OA 
HETATM    2  C   UNL     1     -11.219   8.669  72.178  1.00  0.00    -0.367 C  
HETATM    3  H   UNL     1     -12.444   7.662  73.348  1.00  0.00     0.000 HD 
ENDROOT
BRANCH   2   4
HETATM    4  C   UNL     1     -11.331   9.570  70.977  1.00  0.00    -0.423 A  
HETATM    5  C   UNL     1     -12.204  10.663  70.928  1.00  0.00    -0.395 A  
HETATM    6  O   UNL     1     -13.064  10.944  71.953  1.00  0.00    -0.482 OA 
HETATM    7  C   UNL     1     -12.259  11.500  69.820  1.00  0.00    -0.310 A  
HETATM    8  C   UNL     1     -11.449  11.241  68.717  1.00  0.00    -0.359 A  
HETATM    9  H   UNL     1     -13.657  11.686  71.921  1.00  0.00     0.000 HD 
HETATM   10  C   UNL     1     -10.562  10.153  68.721  1.00  0.00    -0.236 A  
HETATM   11  C   UNL     1     -10.497   9.341  69.867  1.00  0.00    -0.247 A  
BRANCH  10  12
HETATM   12  C   UNL     1      -9.703   9.826  67.514  1.00  0.00    -0.157 C  
HETATM   13  O   UNL     1     -10.212   8.661  66.847  1.00  0.00    -0.256 OA 
HETATM   14  H   UNL     1      -9.675   8.456  66.090  1.00  0.00     0.000 HD 
BRANCH  12  15
HETATM   15  C   UNL     1      -9.645  10.994  66.506  1.00  0.00    -0.195 C  
BRANCH  15  16
HETATM   16  N   UNL     1      -9.623  10.500  65.119  1.00  0.00    -0.236 NA 
HETATM   17  H   UNL     1      -9.761   9.491  65.071  1.00  0.00     0.000 HD 
BRANCH  16  18
HETATM   18  C   UNL     1     -10.602  11.224  64.314  1.00  0.00    -0.358 C  
BRANCH  18  19
HETATM   19  C   UNL     1     -10.630  12.692  64.722  1.00  0.00    -0.341 C  
BRANCH  19  20
HETATM   20  C   UNL     1     -12.056  13.232  64.645  1.00  0.00    -0.458 C  
BRANCH  20  21
HETATM   21  C   UNL     1     -12.402  14.016  65.903  1.00  0.00    -0.515 C  
BRANCH  21  22
HETATM   22  C   UNL     1     -11.147  14.517  66.609  1.00  0.00    -0.333 C  
BRANCH  22  23
HETATM   23  C   UNL     1     -11.496  15.051  67.990  1.00  0.00    -0.342 C  
BRANCH  23  24
HETATM   24  O   UNL     1     -10.399  14.798  68.859  1.00  0.00    -0.231 OA 
BRANCH  24  25
HETATM   25  C   UNL     1     -10.221  15.858  69.796  1.00  0.00    -0.268 C  
BRANCH  25  26
HETATM   26  C   UNL     1     -10.301  17.186  69.054  1.00  0.00    -0.331 C  
BRANCH  26  27
HETATM   27  C   UNL     1      -8.909  17.671  68.646  1.00  0.00    -0.259 C  
BRANCH  27  28
HETATM   28  C   UNL     1      -8.923  18.371  67.289  1.00  0.00    -0.265 C  
BRANCH  28  29
HETATM   29  C   UNL     1      -7.865  19.449  67.255  1.00  0.00    -0.285 A  
HETATM   30  C   UNL     1      -7.516  20.061  66.047  1.00  0.00    -0.328 A  
HETATM   31  C   UNL     1      -6.484  20.999  66.005  1.00  0.00    -0.220 A  
HETATM   32  C   UNL     1      -5.792  21.328  67.169  1.00  0.00    -0.403 A  
HETATM   33  C   UNL     1      -6.135  20.726  68.378  1.00  0.00    -0.379 A  
HETATM   34  C   UNL     1      -7.168  19.789  68.423  1.00  0.00    -0.352 A  
ENDBRANCH  28  29
ENDBRANCH  27  28
ENDBRANCH  26  27
ENDBRANCH  25  26
ENDBRANCH  24  25
ENDBRANCH  23  24
ENDBRANCH  22  23
ENDBRANCH  21  22
ENDBRANCH  20  21
ENDBRANCH  19  20
ENDBRANCH  18  19
ENDBRANCH  16  18
ENDBRANCH  15  16
ENDBRANCH  12  15
ENDBRANCH  10  12
ENDBRANCH   2   4
TORSDOF 16
ENDMDL
