MODEL      120
REMARK 921   NORMALIZED FREE ENERGY PREDICTED BY IDOCK:   -1.45 KCAL/MOL
REMARK 922        TOTAL FREE ENERGY PREDICTED BY IDOCK:   -2.63 KCAL/MOL
REMARK 923 INTER-LIGAND FREE ENERGY PREDICTED BY IDOCK:   -1.84 KCAL/MOL
REMARK 924 INTRA-LIGAND FREE ENERGY PREDICTED BY IDOCK:   -0.79 KCAL/MOL
REMARK 927      BINDING AFFINITY PREDICTED BY RF-SCORE:    0.00 PKD
ROOT
HETATM    1  C   UNL     1     -11.606  17.770  67.188  1.00  0.00     1.440 C  
HETATM    2  N   UNL     1     -10.719  16.692  67.531  1.00  0.00    -0.310 NA 
HETATM    3  N   UNL     1      -9.713  16.855  68.397  1.00  0.00    -0.253 NA 
HETATM    4  N   UNL     1      -9.114  15.673  68.440  1.00  0.00    -0.186 NA 
HETATM    5  C   UNL     1      -9.799  14.841  67.577  1.00  0.00    -0.218 A  
HETATM    6  N   UNL     1     -10.836  15.470  66.981  1.00  0.00    -0.323 NA 
ENDROOT
BRANCH   5   7
HETATM    7  C   UNL     1      -9.441  13.436  67.383  1.00  0.00    -0.222 A  
HETATM    8  C   UNL     1      -9.154  12.608  68.463  1.00  0.00    -0.052 A  
HETATM    9  C   UNL     1      -8.732  11.296  68.220  1.00  0.00    -0.158 A  
HETATM   10  C   UNL     1      -8.582  10.818  66.910  1.00  0.00    -0.132 A  
HETATM   11  N   UNL     1      -9.361  12.995  66.106  1.00  0.00    -0.147 NA 
HETATM   12  C   UNL     1      -8.942  11.721  65.906  1.00  0.00    -0.059 A  
BRANCH  10  13
HETATM   13  C   UNL     1      -7.994   9.495  66.602  1.00  0.00    -0.108 A  
HETATM   14  C   UNL     1      -8.802   8.425  66.184  1.00  0.00    -0.198 A  
HETATM   15  C   UNL     1      -8.286   7.132  66.011  1.00  0.00    -0.129 A  
HETATM   16  C   UNL     1      -6.938   6.852  66.242  1.00  0.00    -0.069 A  
HETATM   17  F   UNL     1      -5.776  10.167  67.149  1.00  0.00    -0.044 F  
HETATM   18  C   UNL     1      -6.113   7.915  66.616  1.00  0.00    -0.049 A  
HETATM   19  C   UNL     1      -6.635   9.202  66.786  1.00  0.00    -0.068 A  
BRANCH  16  20
HETATM   20  N   UNL     1      -6.419   5.548  66.074  1.00  0.00    -0.039 N  
HETATM   21  C   UNL     1      -5.737   3.727  64.893  1.00  0.00    -0.014 C  
HETATM   22  C   UNL     1      -5.440   5.195  65.086  1.00  0.00    -0.013 C  
HETATM   23  O   UNL     1      -6.153   3.310  66.199  1.00  0.00    -0.023 OA 
HETATM   24  O   UNL     1      -7.423   4.297  67.802  1.00  0.00    -0.068 OA 
HETATM   25  C   UNL     1      -6.737   4.403  66.801  1.00  0.00    -0.051 C  
BRANCH  21  26
HETATM   26  C   UNL     1      -6.882   3.471  63.910  1.00  0.00    -0.044 C  
BRANCH  26  27
HETATM   27  O   UNL     1      -7.865   2.616  64.474  1.00  0.00    -0.075 OA 
HETATM   28  P   UNL     1      -9.405   3.392  64.611  1.00  0.00    -0.158 P  
HETATM   29  O   UNL     1      -9.667   2.829  63.097  1.00  0.00    -0.093 OA 
HETATM   30  O   UNL     1     -10.784   4.086  64.734  1.00  0.00    -0.241 OA 
HETATM   31  O   UNL     1      -9.871   2.049  65.419  1.00  0.00     0.263 OA 
ENDBRANCH  26  27
ENDBRANCH  21  26
ENDBRANCH  16  20
ENDBRANCH  10  13
ENDBRANCH   5   7
TORSDOF 5
ENDMDL
