MODEL      243
REMARK 921   NORMALIZED FREE ENERGY PREDICTED BY IDOCK:    3.20 KCAL/MOL
REMARK 922        TOTAL FREE ENERGY PREDICTED BY IDOCK:    2.55 KCAL/MOL
REMARK 923 INTER-LIGAND FREE ENERGY PREDICTED BY IDOCK:    1.70 KCAL/MOL
REMARK 924 INTRA-LIGAND FREE ENERGY PREDICTED BY IDOCK:    0.85 KCAL/MOL
REMARK 927      BINDING AFFINITY PREDICTED BY RF-SCORE:    0.00 PKD
ROOT
HETATM    1  C   UNL     1      -8.686  12.147  68.358  1.00  0.00    -0.141 C  
HETATM    2  C   UNL     1     -10.241  12.337  68.434  1.00  0.00    -0.217 C  
HETATM    3  C   UNL     1     -11.089  11.061  68.315  1.00  0.00    -0.316 C  
HETATM    4  C   UNL     1      -7.884  12.828  67.159  1.00  0.00    -0.097 C  
HETATM    5  C   UNL     1     -10.620   9.938  69.224  1.00  0.00    -0.245 C  
HETATM    6  C   UNL     1      -5.557  13.309  68.255  1.00  0.00    -0.095 C  
HETATM    7  C   UNL     1      -6.356  12.452  67.263  1.00  0.00    -0.142 C  
HETATM    8  C   UNL     1      -9.175   9.691  68.936  1.00  0.00    -0.147 C  
HETATM    9  C   UNL     1      -6.097  11.017  67.583  1.00  0.00    -0.048 C  
HETATM   10  C   UNL     1     -11.469   8.685  68.974  1.00  0.00     0.716 C  
HETATM   11  C   UNL     1      -8.324  10.644  68.503  1.00  0.00    -0.130 C  
HETATM   12  C   UNL     1      -6.995  10.209  68.143  1.00  0.00    -0.075 C  
ENDROOT
BRANCH   2  13
HETATM   13  O   UNL     1     -10.756  13.145  67.375  1.00  0.00    -0.249 OA 
BRANCH  13  14
HETATM   14  C   UNL     1     -10.928  14.464  67.626  1.00  0.00    -0.286 C  
HETATM   15  C   UNL     1     -12.648  16.950  67.282  1.00  0.00     4.002 C  
HETATM   16  C   UNL     1     -11.007  15.251  66.325  1.00  0.00    -0.300 C  
HETATM   17  O   UNL     1     -10.949  14.960  68.744  1.00  0.00    -0.235 OA 
HETATM   18  C   UNL     1     -12.384  15.909  66.201  1.00  0.00     1.815 C  
HETATM   19  C   UNL     1     -10.713  14.381  65.092  1.00  0.00    -0.413 C  
ENDBRANCH  13  14
ENDBRANCH   2  13
BRANCH   4  20
HETATM   20  C   UNL     1      -7.977  14.390  66.899  1.00  0.00     0.099 C  
BRANCH  20  21
HETATM   21  C   UNL     1      -7.244  15.166  68.020  1.00  0.00    -0.137 C  
BRANCH  21  22
HETATM   22  C   UNL     1      -6.817  16.627  67.864  1.00  0.00    -0.144 C  
HETATM   23  C   UNL     1      -7.576  17.642  68.697  1.00  0.00    -0.276 C  
HETATM   24  C   UNL     1      -6.803  18.956  68.654  1.00  0.00    -0.276 C  
HETATM   25  O   UNL     1      -5.639  18.893  69.489  1.00  0.00    -0.204 OA 
HETATM   26  C   UNL     1      -6.439  19.363  67.234  1.00  0.00    -0.204 C  
HETATM   27  C   UNL     1      -6.077  18.222  66.302  1.00  0.00    -0.184 C  
HETATM   28  H   UNL     1      -5.158  19.711  69.462  1.00  0.00     0.000 HD 
HETATM   29  O   UNL     1      -5.331  18.371  65.346  1.00  0.00    -0.152 OA 
HETATM   30  O   UNL     1      -6.768  17.058  66.499  1.00  0.00    -0.217 OA 
ENDBRANCH  21  22
ENDBRANCH  20  21
ENDBRANCH   4  20
TORSDOF 5
ENDMDL
