MODEL      112
REMARK 921   NORMALIZED FREE ENERGY PREDICTED BY IDOCK:   -3.58 KCAL/MOL
REMARK 922        TOTAL FREE ENERGY PREDICTED BY IDOCK:   -5.24 KCAL/MOL
REMARK 923 INTER-LIGAND FREE ENERGY PREDICTED BY IDOCK:   -4.99 KCAL/MOL
REMARK 924 INTRA-LIGAND FREE ENERGY PREDICTED BY IDOCK:   -0.25 KCAL/MOL
REMARK 927      BINDING AFFINITY PREDICTED BY RF-SCORE:    0.00 PKD
ROOT
ATOM      1  N   CYS A   1     -12.385  14.240  67.580  1.00  0.00    -0.582 NA 
ATOM      2  H2  CYS A   1     -12.008  14.259  68.528  1.00  0.00     0.000 HD 
ATOM      3  CA  CYS A   1     -11.715  13.171  66.772  1.00  0.00    -0.385 C  
ATOM      4  H1  CYS A   1     -12.345  15.171  67.164  1.00  0.00     0.000 HD 
ATOM      5  O   CYS A   1     -12.975  14.333  65.110  1.00  0.00    -0.692 OA 
ATOM      6  C   CYS A   1     -12.378  13.145  65.386  1.00  0.00    -0.481 C  
ATOM      7  OXT CYS A   1     -12.365  12.202  64.612  1.00  0.00    -0.372 OA 
ENDROOT
BRANCH   3   8
ATOM      8  CB  CYS A   1     -11.774  11.770  67.398  1.00  0.00    -0.230 C  
BRANCH   8   9
ATOM      9  SG  CYS A   1     -10.097  11.082  67.649  1.00  0.00    -0.187 SA 
BRANCH   9  10
ATOM     10  SG  CYS A   1     -10.470   9.058  67.683  1.00  0.00    -0.241 SA 
BRANCH  10  11
ATOM     11  CB  CYS A   1      -9.389   8.504  69.050  1.00  0.00    -0.146 C  
BRANCH  11  12
ATOM     12  CA  CYS A   1     -10.206   7.995  70.247  1.00  0.00    -0.200 C  
ATOM     13  N   CYS A   1     -11.675   7.906  69.960  1.00  0.00    -0.443 NA 
ATOM     14  C   CYS A   1     -10.005   8.994  71.388  1.00  0.00    -0.318 C  
ATOM     15  H2  CYS A   1     -11.850   7.337  69.131  1.00  0.00     0.000 HD 
ATOM     16  H1  CYS A   1     -12.217   7.568  70.755  1.00  0.00     0.000 HD 
ATOM     17  OXT CYS A   1      -8.997   9.091  72.068  1.00  0.00    -0.374 OA 
ATOM     18  O   CYS A   1     -11.083   9.813  71.525  1.00  0.00    -0.343 OA 
ENDBRANCH  11  12
ENDBRANCH  10  11
ENDBRANCH   9  10
ENDBRANCH   8   9
ENDBRANCH   3   8
TORSDOF 5
ENDMDL
