REMARK 17 active torsions:
REMARK  status: ('A' for Active; 'I' for Inactive)
REMARK    1  A    between atoms: C04_3  and  C05_5
REMARK    2  A    between atoms: C05_5  and  N29_6
REMARK    3  A    between atoms: C05_5  and  C06_30
REMARK    4  A    between atoms: N07_31  and  C08_34
REMARK    5  A    between atoms: C30_9  and  C31_10
REMARK    6  A    between atoms: C08_34  and  C16_35
REMARK    7  A    between atoms: C31_10  and  N35_14
REMARK    8  A    between atoms: C08_34  and  C09_47
REMARK    9  A    between atoms: C09_47  and  C10_48
REMARK   10  A    between atoms: C16_35  and  C17_36
REMARK   11  A    between atoms: C36_15  and  C37_18
REMARK   12  A    between atoms: C17_36  and  C18_37
REMARK   13  A    between atoms: C18_37  and  O19_39
REMARK   14  A    between atoms: C37_18  and  N39_20
REMARK   15  A    between atoms: O19_39  and  C20_40
REMARK   16  A    between atoms: C20_40  and  C21_41
REMARK   17  A    between atoms: C40_23  and  C41_24
ROOT
HETATM    1  C01 LIG B   1     -12.467  15.964  73.096  1.00  0.00     0.007 C
HETATM    2  C02 LIG B   1     -12.995  15.388  71.780  1.00  0.00    -0.015 C
HETATM    3  C04 LIG B   1     -11.831  15.150  70.767  1.00  0.00     0.031 C
HETATM    4  C03 LIG B   1     -13.838  14.096  72.029  1.00  0.00     0.007 C
ENDROOT
BRANCH   3   5
HETATM    5  C05 LIG B   1     -12.149  14.097  69.719  1.00  0.00     0.144 C
BRANCH   5   6
HETATM    6  N29 LIG B   1     -11.464  12.870  70.080  1.00  0.00    -0.246 N
HETATM    7  O49 LIG B   1     -12.427  11.605  68.358  1.00  0.00    -0.278 OA
HETATM    8  H29 LIG B   1     -10.830  12.860  70.879  1.00  0.00     0.131 HD
HETATM    9  C30 LIG B   1     -11.684  11.614  69.284  1.00  0.00     0.219 C
BRANCH   9  10
HETATM   10  C31 LIG B   1     -10.955  10.361  69.680  1.00  0.00     0.146 C
HETATM   11  C34 LIG B   1      -9.150  11.086  67.999  1.00  0.00     0.009 C
HETATM   12  C33 LIG B   1      -9.141   8.702  68.967  1.00  0.00     0.009 C
HETATM   13  C32 LIG B   1     -10.029   9.906  68.515  1.00  0.00     0.009 C
BRANCH  10  14
HETATM   14  N35 LIG B   1     -11.943   9.317  69.941  1.00  0.00    -0.245 N
HETATM   15  C36 LIG B   1     -12.100   8.764  71.261  1.00  0.00     0.218 C
HETATM   16  O48 LIG B   1     -11.431   9.140  72.147  1.00  0.00    -0.278 OA
HETATM   17  H35 LIG B   1     -12.529   8.976  69.179  1.00  0.00     0.131 HD
BRANCH  15  18
HETATM   18  C37 LIG B   1     -13.164   7.645  71.485  1.00  0.00     0.141 C
HETATM   19  C38 LIG B   1     -14.411   8.225  72.106  1.00  0.00     0.034 C
BRANCH  18  20
HETATM   20  N39 LIG B   1     -12.585   6.639  72.356  1.00  0.00    -0.242 N
HETATM   21  H39 LIG B   1     -12.951   6.506  73.299  1.00  0.00     0.131 HD
HETATM   22  O47 LIG B   1     -11.049   5.963  70.782  1.00  0.00    -0.272 OA
HETATM   23  C40 LIG B   1     -11.472   5.815  71.876  1.00  0.00     0.253 C
BRANCH  23  24
HETATM   24  C41 LIG B   1     -10.847   4.753  72.796  1.00  0.00     0.152 A
HETATM   25  O43 LIG B   1     -10.046   3.772  74.566  1.00  0.00    -0.217 OA
HETATM   26  C44 LIG B   1      -9.927   2.869  73.634  1.00  0.00     0.085 A
HETATM   27  C45 LIG B   1      -9.351   1.467  73.803  1.00  0.00     0.074 C
HETATM   28  C46 LIG B   1     -10.427   3.431  72.438  1.00  0.00     0.065 A
HETATM   29  N42 LIG B   1     -10.579   4.879  74.099  1.00  0.00    -0.123 NA
ENDBRANCH  23  24
ENDBRANCH  18  20
ENDBRANCH  15  18
ENDBRANCH  10  14
ENDBRANCH   9  10
ENDBRANCH   5   6
BRANCH   5  30
HETATM   30  C06 LIG B   1     -11.606  14.546  68.334  1.00  0.00     0.218 C
HETATM   31  N07 LIG B   1     -12.541  14.995  67.268  1.00  0.00    -0.254 N
HETATM   32  H07 LIG B   1     -13.546  15.015  67.441  1.00  0.00     0.131 HD
HETATM   33  O28 LIG B   1     -10.438  14.522  68.118  1.00  0.00    -0.278 OA
BRANCH  31  34
HETATM   34  C08 LIG B   1     -12.004  15.412  65.958  1.00  0.00     0.062 C
BRANCH  34  35
HETATM   35  C16 LIG B   1     -12.527  16.792  65.642  1.00  0.00     0.029 C
BRANCH  35  36
HETATM   36  C17 LIG B   1     -11.433  17.822  65.296  1.00  0.00     0.108 C
BRANCH  36  37
HETATM   37  C18 LIG B   1     -10.230  17.784  66.271  1.00  0.00     0.263 C
HETATM   38  O27 LIG B   1     -10.411  17.742  67.445  1.00  0.00    -0.265 OA
BRANCH  37  39
HETATM   39  O19 LIG B   1      -8.913  17.812  65.737  1.00  0.00    -0.310 OA
BRANCH  39  40
HETATM   40  C20 LIG B   1      -7.889  17.616  66.713  1.00  0.00     0.205 C
BRANCH  40  41
HETATM   41  C21 LIG B   1      -7.144  18.963  66.916  1.00  0.00    -0.021 A
HETATM   42  C25 LIG B   1      -7.141  21.379  66.927  1.00  0.00     0.000 A
HETATM   43  C22 LIG B   1      -5.800  18.961  67.278  1.00  0.00     0.006 A
HETATM   44  C24 LIG B   1      -5.799  21.381  67.285  1.00  0.00     0.000 A
HETATM   45  C23 LIG B   1      -5.125  20.168  67.462  1.00  0.00     0.000 A
HETATM   46  C26 LIG B   1      -7.820  20.175  66.740  1.00  0.00     0.006 A
ENDBRANCH  40  41
ENDBRANCH  39  40
ENDBRANCH  37  39
ENDBRANCH  36  37
ENDBRANCH  35  36
ENDBRANCH  34  35
BRANCH  34  47
HETATM   47  C09 LIG B   1     -12.493  14.445  64.883  1.00  0.00     0.026 C
BRANCH  47  48
HETATM   48  C10 LIG B   1     -11.841  12.996  65.059  1.00  0.00     0.035 C
HETATM   49  N12 LIG B   1     -11.238  11.547  63.304  1.00  0.00    -0.292 NA
HETATM   50  C14 LIG B   1     -10.243  13.075  64.691  1.00  0.00     0.022 C
HETATM   51  H15 LIG B   1     -13.881  11.951  62.963  1.00  0.00     0.211 HD
HETATM   52  C11 LIG B   1     -12.385  12.106  64.290  1.00  0.00     0.186 C
HETATM   53  O15 LIG B   1     -13.482  12.603  63.527  1.00  0.00    -0.377 OA
HETATM   54  C13 LIG B   1      -9.937  12.011  63.912  1.00  0.00     0.083 C
HETATM   55  H12 LIG B   1     -11.360  11.824  62.330  1.00  0.00     0.124 HD
ENDBRANCH  47  48
ENDBRANCH  34  47
ENDBRANCH  31  34
ENDBRANCH   5  30
ENDBRANCH   3   5
TORSDOF 17
