MODEL      160
REMARK 921   NORMALIZED FREE ENERGY PREDICTED BY IDOCK:   -4.13 KCAL/MOL
REMARK 922        TOTAL FREE ENERGY PREDICTED BY IDOCK:   -9.81 KCAL/MOL
REMARK 923 INTER-LIGAND FREE ENERGY PREDICTED BY IDOCK:   -8.40 KCAL/MOL
REMARK 924 INTRA-LIGAND FREE ENERGY PREDICTED BY IDOCK:   -1.41 KCAL/MOL
REMARK 927      BINDING AFFINITY PREDICTED BY RF-SCORE:    0.00 PKD
ROOT
HETATM    1  C   UNL     1      -7.347   7.870  73.577  1.00  0.00    -0.166 C  
HETATM    2  C   UNL     1      -6.840   6.983  72.441  1.00  0.00    -0.061 C  
ENDROOT
BRANCH   2   3
HETATM    3  C   UNL     1      -7.978   6.755  71.461  1.00  0.00    -0.102 C  
BRANCH   3   4
HETATM    4  C   UNL     1      -9.394   7.034  71.974  1.00  0.00    -0.139 C  
BRANCH   4   5
HETATM    5  S   UNL     1     -10.086   8.240  70.821  1.00  0.00    -0.194 S  
HETATM    6  O   UNL     1      -9.326   9.463  70.922  1.00  0.00    -0.252 OA 
HETATM    7  O   UNL     1     -10.268   7.555  69.564  1.00  0.00    -0.196 OA 
BRANCH   5   8
HETATM    8  N   UNL     1     -11.630   8.633  71.419  1.00  0.00    -0.277 N  
HETATM    9  H   UNL     1     -12.215   8.005  71.972  1.00  0.00     0.000 HD 
BRANCH   8  10
HETATM   10  C   UNL     1     -12.026  10.071  71.009  1.00  0.00    -0.376 C  
HETATM   11  C   UNL     1     -13.105  10.587  71.962  1.00  0.00    -0.406 C  
HETATM   12  O   UNL     1     -13.314  11.769  72.194  1.00  0.00    -0.497 OA 
HETATM   13  O   UNL     1     -13.821   9.589  72.538  1.00  0.00    -0.409 OA 
BRANCH  10  14
HETATM   14  C   UNL     1     -12.503  10.234  69.553  1.00  0.00     0.245 C  
BRANCH  14  15
HETATM   15  C   UNL     1     -11.539  10.979  68.665  1.00  0.00    -0.385 A  
HETATM   16  C   UNL     1     -11.219  12.298  69.006  1.00  0.00    -0.319 A  
HETATM   17  C   UNL     1     -10.535  13.108  68.105  1.00  0.00    -0.255 A  
HETATM   18  C   UNL     1     -10.174  12.623  66.846  1.00  0.00    -0.234 A  
HETATM   19  C   UNL     1     -11.020  10.447  67.475  1.00  0.00    -0.358 A  
HETATM   20  C   UNL     1     -10.359  11.271  66.560  1.00  0.00    -0.284 A  
BRANCH  18  21
HETATM   21  O   UNL     1      -9.665  13.392  65.829  1.00  0.00    -0.230 OA 
BRANCH  21  22
HETATM   22  C   UNL     1     -10.579  13.594  64.750  1.00  0.00    -0.422 C  
BRANCH  22  23
HETATM   23  C   UNL     1     -11.567  14.704  65.063  1.00  0.00    -0.385 C  
BRANCH  23  24
HETATM   24  C   UNL     1     -11.084  16.102  64.651  1.00  0.00    -0.310 C  
BRANCH  24  25
HETATM   25  C   UNL     1     -10.194  16.661  65.766  1.00  0.00    -0.328 C  
BRANCH  25  26
HETATM   26  C   UNL     1     -10.746  17.873  66.539  1.00  0.00    -0.122 C  
HETATM   27  C   UNL     1     -10.288  17.788  68.008  1.00  0.00    -0.395 C  
HETATM   28  C   UNL     1      -8.835  18.225  68.187  1.00  0.00    -0.295 C  
HETATM   29  N   UNL     1      -8.665  19.601  67.732  1.00  0.00    -0.316 NA 
HETATM   30  H   UNL     1      -7.734  19.957  67.952  1.00  0.00     0.000 HD 
HETATM   31  C   UNL     1      -8.968  19.725  66.307  1.00  0.00    -0.376 C  
HETATM   32  C   UNL     1     -10.381  19.251  65.963  1.00  0.00    -0.556 C  
ENDBRANCH  25  26
ENDBRANCH  24  25
ENDBRANCH  23  24
ENDBRANCH  22  23
ENDBRANCH  21  22
ENDBRANCH  18  21
ENDBRANCH  14  15
ENDBRANCH  10  14
ENDBRANCH   8  10
ENDBRANCH   5   8
ENDBRANCH   4   5
ENDBRANCH   3   4
ENDBRANCH   2   3
TORSDOF 13
ENDMDL
