MODEL      336
REMARK 921   NORMALIZED FREE ENERGY PREDICTED BY IDOCK:   -2.62 KCAL/MOL
REMARK 922        TOTAL FREE ENERGY PREDICTED BY IDOCK:   -6.05 KCAL/MOL
REMARK 923 INTER-LIGAND FREE ENERGY PREDICTED BY IDOCK:   -5.04 KCAL/MOL
REMARK 924 INTRA-LIGAND FREE ENERGY PREDICTED BY IDOCK:   -1.01 KCAL/MOL
REMARK 927      BINDING AFFINITY PREDICTED BY RF-SCORE:    0.00 PKD
ROOT
HETATM    1  C   UNL     1      -9.355  17.895  68.155  1.00  0.00    -0.286 C  
HETATM    2  C   UNL     1      -9.554  17.622  66.675  1.00  0.00    -0.301 C  
ENDROOT
BRANCH   2   3
HETATM    3  C   UNL     1     -10.453  16.409  66.456  1.00  0.00    -0.282 C  
BRANCH   3   4
HETATM    4  C   UNL     1     -11.260  16.557  65.172  1.00  0.00    -0.029 C  
BRANCH   4   5
HETATM    5  C   UNL     1     -11.783  15.207  64.697  1.00  0.00    -0.348 C  
BRANCH   5   6
HETATM    6  C   UNL     1     -12.477  14.478  65.841  1.00  0.00    -0.203 C  
BRANCH   6   7
HETATM    7  C   UNL     1     -12.011  13.033  65.917  1.00  0.00    -0.491 C  
BRANCH   7   8
HETATM    8  C   UNL     1     -11.627  12.666  67.347  1.00  0.00    -0.421 C  
BRANCH   8   9
HETATM    9  C   UNL     1     -10.272  11.977  67.345  1.00  0.00    -0.216 C  
BRANCH   9  10
HETATM   10  C   UNL     1      -9.980  11.293  68.677  1.00  0.00    -0.210 C  
BRANCH  10  11
HETATM   11  C   UNL     1     -10.483   9.840  68.697  1.00  0.00    -0.233 C  
BRANCH  11  12
HETATM   12  C   UNL     1     -10.308   9.182  67.327  1.00  0.00    -0.270 C  
BRANCH  12  13
HETATM   13  N   UNL     1      -9.920   7.696  67.376  1.00  0.00    -0.173 N  
HETATM   14  C   UNL     1     -11.133   6.793  67.183  1.00  0.00    -0.333 C  
HETATM   15  C   UNL     1      -8.889   7.382  66.287  1.00  0.00    -0.159 C  
BRANCH  13  16
HETATM   16  C   UNL     1      -9.234   7.384  68.756  1.00  0.00    -0.144 C  
BRANCH  16  17
HETATM   17  C   UNL     1      -9.864   6.185  69.475  1.00  0.00    -0.159 C  
BRANCH  17  18
HETATM   18  O   UNL     1      -8.889   5.196  69.795  1.00  0.00    -0.103 OA 
BRANCH  18  19
HETATM   19  C   UNL     1      -8.469   4.486  68.692  1.00  0.00    -0.085 A  
HETATM   20  C   UNL     1      -9.475   3.890  67.935  1.00  0.00    -0.227 A  
HETATM   21  C   UNL     1      -9.146   3.108  66.824  1.00  0.00    -0.184 A  
HETATM   22  C   UNL     1      -7.811   2.932  66.459  1.00  0.00    -0.077 A  
HETATM   23  C   UNL     1      -6.804   3.555  67.191  1.00  0.00    -0.050 A  
HETATM   24  C   UNL     1      -7.133   4.337  68.298  1.00  0.00    -0.059 A  
ENDBRANCH  18  19
ENDBRANCH  17  18
ENDBRANCH  16  17
ENDBRANCH  13  16
ENDBRANCH  12  13
ENDBRANCH  11  12
ENDBRANCH  10  11
ENDBRANCH   9  10
ENDBRANCH   8   9
ENDBRANCH   7   8
ENDBRANCH   6   7
ENDBRANCH   5   6
ENDBRANCH   4   5
ENDBRANCH   3   4
ENDBRANCH   2   3
TORSDOF 15
ENDMDL
