MODEL        9
REMARK 921   NORMALIZED FREE ENERGY PREDICTED BY IDOCK:   -7.90 KCAL/MOL
REMARK 922        TOTAL FREE ENERGY PREDICTED BY IDOCK:  -11.98 KCAL/MOL
REMARK 923 INTER-LIGAND FREE ENERGY PREDICTED BY IDOCK:  -10.64 KCAL/MOL
REMARK 924 INTRA-LIGAND FREE ENERGY PREDICTED BY IDOCK:   -1.34 KCAL/MOL
REMARK 927      BINDING AFFINITY PREDICTED BY RF-SCORE:    0.00 PKD
ROOT
HETATM    1  N   UNK A   0     -14.350   8.524  72.193  1.00  0.00    -0.501 NA 
HETATM    2  C   UNK A   0     -13.183   7.893  71.920  1.00  0.00    -0.285 C  
HETATM    3  H2  UNK A   0     -15.102   8.505  71.504  1.00  0.00     0.000 HD 
HETATM    4  H1  UNK A   0     -14.492   9.017  73.074  1.00  0.00     0.000 HD 
HETATM    5  N   UNK A   0     -13.003   7.271  70.807  1.00  0.00    -0.592 N  
HETATM    6  C   UNK A   0     -11.769   6.699  70.559  1.00  0.00    -0.394 C  
HETATM    7  H   UNK A   0     -13.757   7.201  70.123  1.00  0.00     0.000 HD 
HETATM    8  C   UNK A   0     -10.688   6.783  71.634  1.00  0.00    -0.225 C  
HETATM    9  O   UNK A   0     -11.527   6.178  69.472  1.00  0.00    -0.429 OA 
HETATM   10  C   UNK A   0     -11.016   7.443  72.774  1.00  0.00    -0.339 C  
HETATM   11  N   UNK A   0     -12.253   8.005  72.890  1.00  0.00    -0.640 NA 
HETATM   12  N   UNK A   0     -10.120   7.573  73.824  1.00  0.00    -0.379 NA 
HETATM   13  H   UNK A   0     -10.402   8.075  74.665  1.00  0.00     0.000 HD 
HETATM   14  C   UNK A   0      -8.777   7.001  73.744  1.00  0.00    -0.159 C  
HETATM   15  C   UNK A   0      -8.301   6.935  72.284  1.00  0.00    -0.104 C  
HETATM   16  N   UNK A   0      -9.368   6.317  71.438  1.00  0.00    -0.152 N  
HETATM   17  O   UNK A   0      -7.812   5.110  70.229  1.00  0.00    -0.075 OA 
HETATM   18  C   UNK A   0      -8.977   5.420  70.458  1.00  0.00    -0.134 C  
ENDROOT
BRANCH  15  19
HETATM   19  C   UNK A   0      -7.915   8.335  71.732  1.00  0.00    -0.128 C  
BRANCH  19  20
HETATM   20  N   UNK A   0      -7.707   8.347  70.270  1.00  0.00    -0.077 NA 
HETATM   21  H   UNK A   0      -6.980   7.786  69.826  1.00  0.00     0.000 HD 
BRANCH  20  22
HETATM   22  C   UNK A   0      -8.567   9.176  69.517  1.00  0.00    -0.138 A  
HETATM   23  C   UNK A   0      -8.515   9.270  68.122  1.00  0.00    -0.121 A  
HETATM   24  C   UNK A   0      -9.366  10.127  67.412  1.00  0.00    -0.167 A  
HETATM   25  C   UNK A   0     -10.322  10.888  68.087  1.00  0.00    -0.202 A  
HETATM   26  C   UNK A   0     -10.483  10.708  69.463  1.00  0.00    -0.236 A  
HETATM   27  C   UNK A   0      -9.617   9.848  70.164  1.00  0.00    -0.237 A  
BRANCH  25  28
HETATM   28  C   UNK A   0     -11.152  11.890  67.353  1.00  0.00    -0.279 C  
HETATM   29  O   UNK A   0     -12.272  12.216  67.728  1.00  0.00    -0.451 OA 
ATOM     30  N   GLU A   1     -10.562  12.447  66.235  1.00  0.00    -0.245 N  
ATOM     31  H   GLU A   1      -9.623  12.154  65.966  1.00  0.00     0.000 HD 
BRANCH  30  32
ATOM     32  CA  GLU A   1     -11.257  13.447  65.431  1.00  0.00    -0.288 C  
ATOM     33  O   GLU A   1     -13.178  12.357  64.448  1.00  0.00    -0.816 OA 
ATOM     34  C   GLU A   1     -11.903  12.753  64.221  1.00  0.00    -0.396 C  
ATOM     35  OXT GLU A   1     -11.331  12.555  63.155  1.00  0.00    -0.401 OA 
BRANCH  32  36
ATOM     36  CB  GLU A   1     -10.297  14.549  64.956  1.00  0.00    -0.442 C  
BRANCH  36  37
ATOM     37  CG  GLU A   1     -10.909  15.941  65.109  1.00  0.00    -0.438 C  
ATOM     38  CD  GLU A   1     -10.210  16.730  66.184  1.00  0.00    -0.351 C  
ATOM     39  OE2 GLU A   1     -10.515  16.676  67.365  1.00  0.00    -0.309 OA 
ATOM     40  OE1 GLU A   1      -9.188  17.483  65.727  1.00  0.00    -0.510 OA 
ENDBRANCH  36  37
ENDBRANCH  32  36
ENDBRANCH  30  32
ENDBRANCH  25  28
ENDBRANCH  20  22
ENDBRANCH  19  20
ENDBRANCH  15  19
TORSDOF 7
ENDMDL
