MODEL       73
REMARK 921   NORMALIZED FREE ENERGY PREDICTED BY IDOCK:   -5.38 KCAL/MOL
REMARK 922        TOTAL FREE ENERGY PREDICTED BY IDOCK:  -10.00 KCAL/MOL
REMARK 923 INTER-LIGAND FREE ENERGY PREDICTED BY IDOCK:   -8.16 KCAL/MOL
REMARK 924 INTRA-LIGAND FREE ENERGY PREDICTED BY IDOCK:   -1.84 KCAL/MOL
REMARK 927      BINDING AFFINITY PREDICTED BY RF-SCORE:    0.00 PKD
ROOT
HETATM    1 FE   UNL     1     -12.849  10.469  68.838  1.00  0.00    -0.508 Fe 
HETATM    2  C   UNL     2     -10.206  16.658  67.892  1.00  0.00    -0.284 C  
HETATM    3  C   UNL     3      -7.461   8.314  71.452  1.00  0.00    -0.085 C  
HETATM    4  H   UNL     3      -7.414   9.078  73.243  1.00  0.00     0.000 HD 
HETATM    5  H   UNL     2     -11.552  16.297  69.293  1.00  0.00     0.000 HD 
HETATM    6  O   UNL     2     -11.503  16.791  68.482  1.00  0.00    -0.198 OA 
HETATM    7  O   UNL     3      -6.908   9.202  72.448  1.00  0.00    -0.313 OA 
ENDROOT
BRANCH   2   8
HETATM    8  C   UNL     2     -10.128  17.453  66.585  1.00  0.00    -0.317 C  
HETATM    9  H   UNL     2      -9.384  17.215  64.764  1.00  0.00     0.000 HD 
HETATM   10  O   UNL     2      -9.432  16.722  65.574  1.00  0.00    -0.490 OA 
ENDBRANCH   2   8
BRANCH   2  11
HETATM   11  C   UNL     2      -9.875  15.166  67.692  1.00  0.00    -0.219 C  
HETATM   12  H   UNL     2      -8.763  13.780  68.578  1.00  0.00     0.000 HD 
HETATM   13  O   UNL     2      -8.967  14.699  68.700  1.00  0.00    -0.179 OA 
BRANCH  11  14
HETATM   14  C   UNL     2     -11.166  14.330  67.732  1.00  0.00    -0.291 C  
HETATM   15  H   UNL     2     -12.040  13.117  69.024  1.00  0.00     0.000 HD 
HETATM   16  O   UNL     2     -11.243  13.634  69.000  1.00  0.00    -0.253 OA 
BRANCH  14  17
HETATM   17  C   UNL     2     -11.286  13.289  66.624  1.00  0.00    -0.321 C  
HETATM   18  C   UNL     2     -11.969  13.864  65.369  1.00  0.00    -0.381 C  
HETATM   19  H   UNL     2     -12.165  11.536  66.436  1.00  0.00     0.000 HD 
HETATM   20  O   UNL     2     -12.091  12.185  67.126  1.00  0.00    -0.575 OA 
HETATM   21  O   UNL     2     -13.265  13.916  65.404  1.00  0.00    -0.750 OA 
HETATM   22  O   UNL     2     -11.378  13.944  64.296  1.00  0.00    -0.365 OA 
ENDBRANCH  14  17
ENDBRANCH  11  14
ENDBRANCH   2  11
BRANCH   3  23
HETATM   23  C   UNL     3      -8.944   8.651  71.352  1.00  0.00    -0.222 C  
HETATM   24  O   UNL     3      -9.094   9.694  70.380  1.00  0.00    -0.246 OA 
HETATM   25  H   UNL     3     -10.018   9.905  70.318  1.00  0.00     0.000 HD 
BRANCH  23  26
HETATM   26  C   UNL     3      -9.935   7.519  70.996  1.00  0.00    -0.186 C  
HETATM   27  O   UNL     3      -9.940   7.295  69.576  1.00  0.00    -0.166 OA 
HETATM   28  H   UNL     3     -10.548   6.599  69.358  1.00  0.00     0.000 HD 
BRANCH  26  29
HETATM   29  C   UNL     3     -11.348   7.959  71.444  1.00  0.00    -0.252 C  
HETATM   30  C   UNL     3     -12.369   6.832  71.741  1.00  0.00    -0.356 C  
HETATM   31  O   UNL     3     -11.946   8.846  70.437  1.00  0.00    -0.477 OA 
HETATM   32  O   UNL     3     -12.030   5.863  72.442  1.00  0.00    -0.298 OA 
HETATM   33  O   UNL     3     -13.521   7.098  71.185  1.00  0.00    -0.316 OA 
HETATM   34  H   UNL     3     -12.814   9.116  70.712  1.00  0.00     0.000 HD 
ENDBRANCH  26  29
ENDBRANCH  23  26
ENDBRANCH   3  23
BRANCH   3  35
HETATM   35  C   UNL     3      -6.648   8.513  70.173  1.00  0.00    -0.038 C  
HETATM   36  O   UNL     3      -7.103   7.550  69.218  1.00  0.00    -0.072 OA 
HETATM   37  H   UNL     3      -6.597   7.674  68.423  1.00  0.00     0.000 HD 
ENDBRANCH   3  35
TORSDOF 8
ENDMDL
