MODEL      391
REMARK 921   NORMALIZED FREE ENERGY PREDICTED BY IDOCK:    1.77 KCAL/MOL
REMARK 922        TOTAL FREE ENERGY PREDICTED BY IDOCK:    1.07 KCAL/MOL
REMARK 923 INTER-LIGAND FREE ENERGY PREDICTED BY IDOCK:    2.01 KCAL/MOL
REMARK 924 INTRA-LIGAND FREE ENERGY PREDICTED BY IDOCK:   -0.95 KCAL/MOL
REMARK 927      BINDING AFFINITY PREDICTED BY RF-SCORE:    0.00 PKD
ROOT
HETATM    1  C   UNL     1     -13.164  15.825  64.416  1.00  0.00     1.959 C  
HETATM    2  C   UNL     1     -12.177  16.818  65.005  1.00  0.00     2.664 C  
ENDROOT
BRANCH   2   3
HETATM    3  C   UNL     1     -11.322  16.190  66.108  1.00  0.00     0.376 C  
BRANCH   3   4
HETATM    4  C   UNL     1     -11.358  14.667  65.997  1.00  0.00    -0.344 C  
BRANCH   4   5
HETATM    5  C   UNL     1      -9.965  14.055  65.837  1.00  0.00    -0.325 C  
BRANCH   5   6
HETATM    6  C   UNL     1      -9.961  12.774  64.986  1.00  0.00    -0.150 C  
HETATM    7  O   UNL     1     -11.319  12.444  64.711  1.00  0.00    -0.298 OA 
HETATM    8  H   UNL     1     -11.316  11.652  64.186  1.00  0.00     0.000 HD 
BRANCH   6   9
HETATM    9  C   UNL     1      -9.252  11.620  65.661  1.00  0.00    -0.150 C  
HETATM   10  C   UNL     1      -9.022  11.465  66.975  1.00  0.00    -0.166 C  
BRANCH  10  11
HETATM   11  C   UNL     1      -8.168  10.364  67.567  1.00  0.00    -0.114 C  
HETATM   12  C   UNL     1      -6.674  10.718  67.415  1.00  0.00    -0.076 C  
HETATM   13  O   UNL     1      -6.189  10.443  66.107  1.00  0.00    -0.083 OA 
HETATM   14  C   UNL     1      -5.952   9.871  68.441  1.00  0.00    -0.042 C  
HETATM   15  H   UNL     1      -5.269  10.660  66.014  1.00  0.00     0.000 HD 
HETATM   16  C   UNL     1      -6.958   9.839  69.549  1.00  0.00    -0.064 C  
HETATM   17  O   UNL     1      -6.647   9.592  70.709  1.00  0.00    -0.096 OA 
HETATM   18  C   UNL     1      -8.377  10.127  69.082  1.00  0.00    -0.154 C  
BRANCH  18  19
HETATM   19  C   UNL     1      -9.333   8.946  69.339  1.00  0.00    -0.153 C  
BRANCH  19  20
HETATM   20  C   UNL     1      -9.719   8.167  68.074  1.00  0.00    -0.186 C  
BRANCH  20  21
HETATM   21  C   UNL     1      -8.690   7.088  67.726  1.00  0.00    -0.121 C  
BRANCH  21  22
HETATM   22  C   UNL     1      -7.872   6.693  68.959  1.00  0.00    -0.111 C  
BRANCH  22  23
HETATM   23  C   UNL     1      -7.843   5.176  69.147  1.00  0.00    -0.081 C  
BRANCH  23  24
HETATM   24  C   UNL     1      -7.954   4.786  70.622  1.00  0.00    -0.073 C  
HETATM   25  C   UNL     1      -8.472   3.375  70.787  1.00  0.00    -0.069 C  
HETATM   26  O   UNL     1      -8.770   2.618  69.879  1.00  0.00    -0.058 OA 
HETATM   27  O   UNL     1      -8.579   3.022  72.088  1.00  0.00    -0.072 OA 
ENDBRANCH  23  24
ENDBRANCH  22  23
ENDBRANCH  21  22
ENDBRANCH  20  21
ENDBRANCH  19  20
ENDBRANCH  18  19
ENDBRANCH  10  11
ENDBRANCH   6   9
ENDBRANCH   5   6
ENDBRANCH   4   5
ENDBRANCH   3   4
ENDBRANCH   2   3
TORSDOF 12
ENDMDL
