MODEL        1
REMARK 921   NORMALIZED FREE ENERGY PREDICTED BY IDOCK:   -8.14 KCAL/MOL
REMARK 922        TOTAL FREE ENERGY PREDICTED BY IDOCK:  -16.78 KCAL/MOL
REMARK 923 INTER-LIGAND FREE ENERGY PREDICTED BY IDOCK:  -14.33 KCAL/MOL
REMARK 924 INTRA-LIGAND FREE ENERGY PREDICTED BY IDOCK:   -2.45 KCAL/MOL
REMARK 927      BINDING AFFINITY PREDICTED BY RF-SCORE:    0.00 PKD
ROOT
HETATM    1  C   UNL     1      -6.882   9.923  63.804  1.00  0.00    -0.125 C  
HETATM    2  C   UNL     1      -8.284   9.367  63.635  1.00  0.00    -0.169 C  
ENDROOT
BRANCH   2   3
HETATM    3  O   UNL     1      -8.992   9.587  64.860  1.00  0.00    -0.197 OA 
BRANCH   3   4
HETATM    4  C   UNL     1      -9.799  10.645  64.856  1.00  0.00    -0.302 A  
HETATM    5  N   UNL     1     -10.462  11.072  63.807  1.00  0.00    -0.369 NA 
HETATM    6  C   UNL     1     -11.146  12.168  64.246  1.00  0.00    -0.346 A  
HETATM    7  C   UNL     1     -10.963  12.392  65.625  1.00  0.00    -0.286 A  
HETATM    8  C   UNL     1     -11.696  13.417  66.272  1.00  0.00    -0.405 A  
HETATM    9  N   UNL     1      -9.994  11.453  65.956  1.00  0.00    -0.222 NA 
HETATM   10  C   UNL     1     -12.626  14.067  64.089  1.00  0.00    -0.127 A  
HETATM   11  C   UNL     1     -11.950  13.022  63.473  1.00  0.00    -0.615 A  
HETATM   12  C   UNL     1     -12.521  14.235  65.465  1.00  0.00    -0.434 A  
BRANCH   9  13
HETATM   13  C   UNL     1      -9.131  11.365  67.135  1.00  0.00    -0.164 C  
BRANCH  13  14
HETATM   14  C   UNL     1      -9.629  10.381  68.163  1.00  0.00    -0.155 A  
HETATM   15  C   UNL     1      -9.541   8.221  69.250  1.00  0.00    -0.164 A  
HETATM   16  C   UNL     1     -10.016   8.781  70.448  1.00  0.00    -0.219 A  
HETATM   17  C   UNL     1     -10.418  10.844  69.218  1.00  0.00    -0.230 A  
HETATM   18  C   UNL     1      -9.289   9.030  68.134  1.00  0.00    -0.151 A  
HETATM   19  C   UNL     1     -10.591  10.059  70.357  1.00  0.00    -0.343 A  
BRANCH  16  20
HETATM   20  C   UNL     1      -9.790   8.141  71.778  1.00  0.00    -0.256 A  
HETATM   21  C   UNL     1      -8.481   7.741  72.139  1.00  0.00    -0.159 A  
HETATM   22  C   UNL     1     -10.841   7.805  72.685  1.00  0.00    -0.413 A  
HETATM   23  C   UNL     1      -8.206   7.062  73.330  1.00  0.00    -0.126 A  
HETATM   24  C   UNL     1     -10.527   7.177  73.912  1.00  0.00    -0.288 A  
HETATM   25  C   UNL     1      -9.226   6.798  74.228  1.00  0.00    -0.246 A  
BRANCH  22  26
HETATM   26  C   UNL     1     -12.276   8.001  72.443  1.00  0.00    -0.287 A  
HETATM   27  N   UNL     1     -13.052   8.927  72.980  1.00  0.00    -0.783 NA 
HETATM   28  H   UNL     1     -12.767   9.654  73.636  1.00  0.00     0.000 HD 
HETATM   29  N   UNL     1     -14.316   8.724  72.481  1.00  0.00    -0.584 NA 
HETATM   30  N   UNL     1     -14.340   7.678  71.670  1.00  0.00    -0.456 NA 
HETATM   31  N   UNL     1     -13.088   7.202  71.681  1.00  0.00    -0.382 NA 
ENDBRANCH  22  26
ENDBRANCH  16  20
ENDBRANCH  13  14
ENDBRANCH   9  13
BRANCH   8  32
HETATM   32  C   UNL     1     -11.552  13.796  67.698  1.00  0.00    -0.347 C  
HETATM   33  O   UNL     1     -12.427  13.615  68.529  1.00  0.00    -0.095 OA 
BRANCH  32  34
HETATM   34  O   UNL     1     -10.273  14.145  67.989  1.00  0.00    -0.224 OA 
BRANCH  34  35
HETATM   35  C   UNL     1     -10.118  15.561  68.166  1.00  0.00    -0.218 C  
HETATM   36  C   UNL     1      -9.126  15.725  69.319  1.00  0.00    -0.263 C  
BRANCH  35  37
HETATM   37  O   UNL     1      -9.494  16.196  67.050  1.00  0.00    -0.216 OA 
BRANCH  37  38
HETATM   38  C   UNL     1     -10.275  17.029  66.327  1.00  0.00    -0.329 C  
HETATM   39  O   UNL     1     -10.430  17.010  65.119  1.00  0.00    -0.667 OA 
BRANCH  38  40
HETATM   40  O   UNL     1     -10.867  17.860  67.206  1.00  0.00    -0.312 OA 
BRANCH  40  41
HETATM   41  C   UNL     1     -10.605  19.280  67.287  1.00  0.00    -0.484 C  
HETATM   42  C   UNL     1      -7.740  20.053  67.514  1.00  0.00    -0.333 C  
HETATM   43  C   UNL     1      -9.919  19.528  68.632  1.00  0.00    -0.538 C  
HETATM   44  C   UNL     1      -8.430  19.203  68.572  1.00  0.00    -0.399 C  
HETATM   45  C   UNL     1      -8.362  19.878  66.132  1.00  0.00    -0.345 C  
HETATM   46  C   UNL     1      -9.890  19.979  66.125  1.00  0.00    -0.553 C  
ENDBRANCH  40  41
ENDBRANCH  38  40
ENDBRANCH  37  38
ENDBRANCH  35  37
ENDBRANCH  34  35
ENDBRANCH  32  34
ENDBRANCH   8  32
ENDBRANCH   3   4
ENDBRANCH   2   3
TORSDOF 13
ENDMDL
