MODEL      239
REMARK 921   NORMALIZED FREE ENERGY PREDICTED BY IDOCK:   -2.18 KCAL/MOL
REMARK 922        TOTAL FREE ENERGY PREDICTED BY IDOCK:   -2.75 KCAL/MOL
REMARK 923 INTER-LIGAND FREE ENERGY PREDICTED BY IDOCK:   -2.42 KCAL/MOL
REMARK 924 INTRA-LIGAND FREE ENERGY PREDICTED BY IDOCK:   -0.33 KCAL/MOL
REMARK 927      BINDING AFFINITY PREDICTED BY RF-SCORE:    0.00 PKD
ROOT
HETATM    1  O5* UNL     1      -5.406  15.284  69.231  1.00  0.00    -0.095 OA 
HETATM    2  H5* UNL     1      -5.151  16.161  69.490  1.00  0.00     0.000 HD 
HETATM    3  C5* UNL     1      -6.807  15.073  69.402  1.00  0.00    -0.165 C  
ENDROOT
BRANCH   3   4
HETATM    4  C4* UNL     1      -7.218  13.662  68.985  1.00  0.00    -0.049 C  
HETATM    5  O4* UNL     1      -8.532  13.648  68.396  1.00  0.00    -0.161 OA 
HETATM    6  C1* UNL     1      -8.593  12.428  67.641  1.00  0.00    -0.172 C  
HETATM    7  H3* UNL     1      -4.774  11.772  67.954  1.00  0.00     0.000 HD 
HETATM    8  C2* UNL     1      -7.205  12.251  67.031  1.00  0.00    -0.039 C  
HETATM    9  C3* UNL     1      -6.287  13.029  67.953  1.00  0.00    -0.134 C  
HETATM   10  O3* UNL     1      -5.353  12.165  68.595  1.00  0.00    -0.050 OA 
BRANCH   6  11
HETATM   11  N   UNL     1      -9.677  12.440  66.662  1.00  0.00    -0.220 N  
HETATM   12  C   UNL     1     -11.373  13.639  65.472  1.00  0.00    -0.298 C  
HETATM   13  C   UNL     1     -10.308  13.614  66.284  1.00  0.00    -0.293 C  
HETATM   14  I   UNL     1     -12.329  15.373  64.963  1.00  0.00     0.816 I  
HETATM   15  C   UNL     1     -11.880  12.337  64.955  1.00  0.00    -0.357 C  
HETATM   16  O   UNL     1     -12.885  12.227  64.262  1.00  0.00    -0.648 OA 
HETATM   17  N   UNL     1     -11.153  11.234  65.313  1.00  0.00    -0.142 N  
HETATM   18  C   UNL     1     -10.107  11.205  66.193  1.00  0.00    -0.238 C  
HETATM   19  H   UNL     1     -11.416  10.349  64.881  1.00  0.00     0.000 HD 
HETATM   20  O   UNL     1      -9.614  10.131  66.529  1.00  0.00    -0.172 OA 
ENDBRANCH   6  11
ENDBRANCH   3   4
TORSDOF 2
ENDMDL
