MODEL      156
REMARK 921   NORMALIZED FREE ENERGY PREDICTED BY IDOCK:   14.94 KCAL/MOL
REMARK 922        TOTAL FREE ENERGY PREDICTED BY IDOCK:   19.70 KCAL/MOL
REMARK 923 INTER-LIGAND FREE ENERGY PREDICTED BY IDOCK:   19.98 KCAL/MOL
REMARK 924 INTRA-LIGAND FREE ENERGY PREDICTED BY IDOCK:   -0.28 KCAL/MOL
REMARK 927      BINDING AFFINITY PREDICTED BY RF-SCORE:    0.00 PKD
ROOT
HETATM    1  C   UNL     1      -8.064  17.925  67.823  1.00  0.00    -0.231 C  
HETATM    2  C   UNL     1      -8.858  18.933  66.989  1.00  0.00    -0.294 C  
HETATM    3  C   UNL     1      -7.902  19.677  66.051  1.00  0.00    -0.335 C  
ENDROOT
BRANCH   2   4
HETATM    4  N   UNL     1      -9.826  18.249  66.141  1.00  0.00    -0.505 NA 
HETATM    5  H   UNL     1      -9.565  18.127  65.163  1.00  0.00     0.000 HD 
BRANCH   4   6
HETATM    6  C   UNL     1     -11.070  17.743  66.520  1.00  0.00     0.485 A  
HETATM    7  C   UNL     1     -11.461  16.395  66.749  1.00  0.00     0.621 A  
HETATM    8  N   UNL     1     -12.726  16.085  67.160  1.00  0.00     2.493 NA 
HETATM    9  C   UNL     1     -12.070  18.721  66.731  1.00  0.00     3.435 A  
HETATM   10  C   UNL     1     -13.360  18.387  67.124  1.00  0.00     9.434 A  
HETATM   11  C   UNL     1     -13.635  17.060  67.333  1.00  0.00     8.571 A  
BRANCH   7  12
HETATM   12  N   UNL     1     -10.602  15.291  66.522  1.00  0.00    -0.298 NA 
HETATM   13  C   UNL     1     -11.097  14.479  65.378  1.00  0.00    -0.345 C  
HETATM   14  N   UNL     1      -9.817  12.528  66.184  1.00  0.00    -0.255 N  
HETATM   15  C   UNL     1     -10.058  13.409  65.036  1.00  0.00    -0.239 C  
HETATM   16  C   UNL     1      -9.463  13.253  67.420  1.00  0.00    -0.218 C  
HETATM   17  C   UNL     1     -10.218  11.200  66.075  1.00  0.00    -0.250 C  
HETATM   18  O   UNL     1     -10.934  10.837  65.138  1.00  0.00    -0.075 OA 
HETATM   19  C   UNL     1     -10.436  14.439  67.727  1.00  0.00    -0.245 C  
BRANCH  17  20
HETATM   20  C   UNL     1      -9.760  10.204  67.024  1.00  0.00    -0.180 A  
HETATM   21  C   UNL     1      -9.012   9.047  66.916  1.00  0.00    -0.144 A  
HETATM   22  C   UNL     1      -9.034   8.369  68.169  1.00  0.00    -0.139 A  
HETATM   23  C   UNL     1      -9.812   9.132  69.035  1.00  0.00    -0.174 A  
HETATM   24  N   UNL     1     -10.217  10.238  68.328  1.00  0.00    -0.153 NA 
HETATM   25  C   UNL     1     -10.097   8.740  70.348  1.00  0.00    -0.223 A  
HETATM   26  C   UNL     1      -9.553   7.530  70.795  1.00  0.00    -0.166 A  
HETATM   27  H   UNL     1     -10.783  10.991  68.717  1.00  0.00     0.000 HD 
HETATM   28  C   UNL     1      -8.742   6.765  69.962  1.00  0.00    -0.141 A  
HETATM   29  C   UNL     1      -8.490   7.156  68.640  1.00  0.00    -0.125 A  
BRANCH  28  30
HETATM   30  N   UNL     1      -8.165   5.561  70.467  1.00  0.00    -0.109 N  
HETATM   31  H   UNL     1      -8.176   5.352  71.465  1.00  0.00     0.000 HD 
BRANCH  30  32
HETATM   32  S   UNL     1      -7.462   4.493  69.361  1.00  0.00    -0.055 S  
HETATM   33  O   UNL     1      -8.468   3.898  68.519  1.00  0.00    -0.087 OA 
HETATM   34  O   UNL     1      -6.339   5.218  68.798  1.00  0.00    -0.032 OA 
HETATM   35  C   UNL     1      -6.799   3.255  70.453  1.00  0.00    -0.033 C  
ENDBRANCH  30  32
ENDBRANCH  28  30
ENDBRANCH  17  20
ENDBRANCH   7  12
ENDBRANCH   4   6
ENDBRANCH   2   4
TORSDOF 6
ENDMDL
