MODEL      247
REMARK 921   NORMALIZED FREE ENERGY PREDICTED BY IDOCK:   -0.76 KCAL/MOL
REMARK 922        TOTAL FREE ENERGY PREDICTED BY IDOCK:   -1.85 KCAL/MOL
REMARK 923 INTER-LIGAND FREE ENERGY PREDICTED BY IDOCK:   -2.75 KCAL/MOL
REMARK 924 INTRA-LIGAND FREE ENERGY PREDICTED BY IDOCK:    0.90 KCAL/MOL
REMARK 927      BINDING AFFINITY PREDICTED BY RF-SCORE:    0.00 PKD
ROOT
HETATM    1  C   UNL     1     -11.633  17.450  66.789  1.00  0.00     1.538 C  
HETATM    2  C   UNL     1     -10.488  16.574  67.280  1.00  0.00    -0.304 C  
ENDROOT
BRANCH   2   3
HETATM    3  N   UNL     1      -9.722  16.057  66.142  1.00  0.00    -0.300 NA 
HETATM    4  H   UNL     1      -8.934  16.673  65.943  1.00  0.00     0.000 HD 
BRANCH   3   5
HETATM    5  C   UNL     1      -9.249  14.651  66.275  1.00  0.00    -0.222 C  
HETATM    6  C   UNL     1     -10.370  13.726  66.774  1.00  0.00    -0.272 C  
HETATM    7  C   UNL     1      -9.906  12.270  66.868  1.00  0.00    -0.209 C  
HETATM    8  C   UNL     1      -8.754  12.132  67.902  1.00  0.00    -0.176 C  
HETATM    9  N   UNL     1     -11.070  11.435  67.231  1.00  0.00    -0.287 NA 
HETATM   10  C   UNL     1      -7.933  14.533  67.096  1.00  0.00    -0.138 C  
HETATM   11  H2  UNL     1     -11.855  11.557  66.592  1.00  0.00     0.000 HD 
HETATM   12  H1  UNL     1     -10.761  10.466  67.294  1.00  0.00     0.000 HD 
HETATM   13  C   UNL     1      -7.593  13.116  67.598  1.00  0.00    -0.171 C  
HETATM   14  H   UNL     1      -6.061  13.929  68.590  1.00  0.00     0.000 HD 
HETATM   15  O   UNL     1      -6.772  13.327  68.775  1.00  0.00    -0.088 OA 
BRANCH   8  16
HETATM   16  O   UNL     1      -8.270  10.750  67.875  1.00  0.00    -0.110 OA 
BRANCH  16  17
HETATM   17  C   UNL     1      -9.066   9.825  68.652  1.00  0.00    -0.130 C  
HETATM   18  H1  UNL     1      -7.342  10.648  71.553  1.00  0.00     0.000 HD 
HETATM   19  O   UNL     1      -9.189   8.586  67.943  1.00  0.00    -0.139 OA 
HETATM   20  C   UNL     1      -8.305   7.587  68.288  1.00  0.00    -0.125 C  
HETATM   21  H2  UNL     1      -7.869  11.651  70.321  1.00  0.00     0.000 HD 
HETATM   22  N   UNL     1      -7.605  10.697  70.569  1.00  0.00     0.322 NA 
HETATM   23  C   UNL     1      -7.919   7.422  69.560  1.00  0.00    -0.127 C  
HETATM   24  C   UNL     1      -8.663   9.751  70.163  1.00  0.00    -0.180 C  
HETATM   25  C   UNL     1      -8.425   8.314  70.640  1.00  0.00    -0.131 C  
BRANCH  20  26
HETATM   26  C   UNL     1      -7.910   6.708  67.125  1.00  0.00    -0.105 C  
HETATM   27  N   UNL     1      -6.783   5.814  67.379  1.00  0.00    -0.057 NA 
HETATM   28  H2  UNL     1      -6.965   5.244  68.205  1.00  0.00     0.000 HD 
HETATM   29  H1  UNL     1      -6.516   5.220  66.594  1.00  0.00     0.000 HD 
ENDBRANCH  20  26
ENDBRANCH  16  17
ENDBRANCH   8  16
BRANCH  10  30
HETATM   30  O   UNL     1      -6.785  15.211  66.475  1.00  0.00     0.541 OA 
BRANCH  30  31
HETATM   31  C   UNL     1      -6.087  16.180  67.280  1.00  0.00    -0.132 C  
HETATM   32  O   UNL     1      -8.119  16.464  68.634  1.00  0.00    -0.194 OA 
HETATM   33  C   UNL     1      -6.364  18.928  66.292  1.00  0.00    -0.185 C  
HETATM   34  C   UNL     1      -6.987  17.173  68.102  1.00  0.00    -0.178 C  
HETATM   35  O   UNL     1      -5.153  16.878  66.471  1.00  0.00    -0.318 OA 
HETATM   36  O   UNL     1      -5.246  19.585  66.924  1.00  0.00    -0.162 OA 
HETATM   37  C   UNL     1      -7.423  18.480  67.363  1.00  0.00    -0.218 C  
HETATM   38  H   UNL     1      -5.570  20.345  67.395  1.00  0.00     0.000 HD 
HETATM   39  C   UNL     1      -6.941  19.930  65.290  1.00  0.00    -0.273 C  
HETATM   40  H   UNL     1      -8.662  17.064  69.130  1.00  0.00     0.000 HD 
HETATM   41  C   UNL     1      -5.844  17.710  65.539  1.00  0.00     0.115 C  
BRANCH  37  42
HETATM   42  N   UNL     1      -7.669  19.633  68.276  1.00  0.00    -0.315 NA 
HETATM   43  H   UNL     1      -6.993  20.396  68.331  1.00  0.00     0.000 HD 
HETATM   44  C   UNL     1      -8.865  19.667  69.081  1.00  0.00    -0.025 C  
ENDBRANCH  37  42
ENDBRANCH  30  31
ENDBRANCH  10  30
ENDBRANCH   3   5
ENDBRANCH   2   3
TORSDOF 8
ENDMDL
