MODEL      159
REMARK 921   NORMALIZED FREE ENERGY PREDICTED BY IDOCK:   -1.32 KCAL/MOL
REMARK 922        TOTAL FREE ENERGY PREDICTED BY IDOCK:   -1.48 KCAL/MOL
REMARK 923 INTER-LIGAND FREE ENERGY PREDICTED BY IDOCK:   -1.46 KCAL/MOL
REMARK 924 INTRA-LIGAND FREE ENERGY PREDICTED BY IDOCK:   -0.02 KCAL/MOL
REMARK 927      BINDING AFFINITY PREDICTED BY RF-SCORE:    0.00 PKD
ROOT
HETATM    1  O   UNL     1     -11.046  16.121  67.624  1.00  0.00    -0.301 OA 
HETATM    2  C   UNL     1     -10.323  15.313  66.700  1.00  0.00    -0.280 C  
HETATM    3  H   UNL     1     -11.978  15.945  67.578  1.00  0.00     0.000 HD 
ENDROOT
BRANCH   2   4
HETATM    4  C   UNL     1      -8.812  15.598  66.774  1.00  0.00    -0.272 C  
HETATM    5  S   UNL     1      -8.546  17.416  66.681  1.00  0.00    -0.267 SA 
HETATM    6  H   UNL     1      -7.182  17.673  66.748  1.00  0.00     0.000 H  
BRANCH   4   7
HETATM    7  C   UNL     1      -8.206  14.980  68.044  1.00  0.00    -0.137 C  
HETATM    8  S   UNL     1      -7.198  16.132  69.039  1.00  0.00    -0.204 SA 
HETATM    9  H   UNL     1      -6.649  15.573  70.188  1.00  0.00     0.000 H  
ENDBRANCH   4   7
ENDBRANCH   2   4
TORSDOF 2
ENDMDL
