MODEL       28
REMARK 921   NORMALIZED FREE ENERGY PREDICTED BY IDOCK:   -4.58 KCAL/MOL
REMARK 922        TOTAL FREE ENERGY PREDICTED BY IDOCK:  -11.86 KCAL/MOL
REMARK 923 INTER-LIGAND FREE ENERGY PREDICTED BY IDOCK:  -10.44 KCAL/MOL
REMARK 924 INTRA-LIGAND FREE ENERGY PREDICTED BY IDOCK:   -1.42 KCAL/MOL
REMARK 927      BINDING AFFINITY PREDICTED BY RF-SCORE:    0.00 PKD
ROOT
HETATM    1  C   UNL     1      -8.727   7.718  73.560  1.00  0.00    -0.296 C  
HETATM    2  C   UNL     1     -10.209   7.443  73.376  1.00  0.00    -0.402 C  
ENDROOT
BRANCH   2   3
HETATM    3  C   UNL     1     -10.436   6.157  72.585  1.00  0.00    -0.233 C  
BRANCH   3   4
HETATM    4  C   UNL     1     -11.920   5.935  72.313  1.00  0.00    -0.211 C  
BRANCH   4   5
HETATM    5  C   UNL     1     -12.426   6.904  71.250  1.00  0.00    -0.409 C  
BRANCH   5   6
HETATM    6  C   UNL     1     -13.894   7.241  71.482  1.00  0.00    -0.463 C  
BRANCH   6   7
HETATM    7  C   UNL     1     -14.037   8.657  72.024  1.00  0.00    -0.523 C  
BRANCH   7   8
HETATM    8  C   UNL     1     -12.814   9.491  71.666  1.00  0.00    -0.483 C  
BRANCH   8   9
HETATM    9  C   UNL     1     -13.136  10.973  71.788  1.00  0.00    -0.554 C  
BRANCH   9  10
HETATM   10  C   UNL     1     -12.383  11.774  70.738  1.00  0.00    -0.433 C  
BRANCH  10  11
HETATM   11  C   UNL     1     -12.039  10.881  69.556  1.00  0.00    -0.380 C  
BRANCH  11  12
HETATM   12  C   UNL     1     -11.850  11.711  68.299  1.00  0.00    -0.335 C  
BRANCH  12  13
HETATM   13  C   UNL     1     -10.724  11.131  67.454  1.00  0.00    -0.294 C  
BRANCH  13  14
HETATM   14  C   UNL     1     -10.646  11.874  66.136  1.00  0.00    -0.295 C  
BRANCH  14  15
HETATM   15  C   UNL     1     -12.031  12.139  65.564  1.00  0.00    -0.290 C  
BRANCH  15  16
HETATM   16  C   UNL     1     -11.889  13.141  64.440  1.00  0.00    -0.388 C  
BRANCH  16  17
HETATM   17  O   UNL     1     -12.195  14.450  64.903  1.00  0.00    -0.413 OA 
BRANCH  17  18
HETATM   18  P   UNL     1     -10.781  15.422  65.128  1.00  0.00    -0.405 P  
HETATM   19  O   UNL     1     -10.982  15.313  66.643  1.00  0.00    -0.313 OA 
HETATM   20  O   UNL     1     -11.344  16.553  64.271  1.00  0.00    -1.020 OA 
BRANCH  18  21
HETATM   21  O   UNL     1      -9.366  16.392  65.352  1.00  0.00    -0.369 OA 
BRANCH  21  22
HETATM   22  C   UNL     1      -9.107  16.742  66.709  1.00  0.00    -0.241 C  
BRANCH  22  23
HETATM   23  C   UNL     1      -8.480  18.113  66.839  1.00  0.00    -0.253 C  
BRANCH  23  24
HETATM   24  N   UNL     1      -9.096  19.016  67.930  1.00  0.00    -0.292 N  
HETATM   25  C   UNL     1      -7.967  19.431  68.852  1.00  0.00    -0.325 C  
HETATM   26  C   UNL     1     -10.140  18.229  68.724  1.00  0.00    -0.370 C  
HETATM   27  C   UNL     1      -9.744  20.244  67.318  1.00  0.00    -0.450 C  
ENDBRANCH  23  24
ENDBRANCH  22  23
ENDBRANCH  21  22
ENDBRANCH  18  21
ENDBRANCH  17  18
ENDBRANCH  16  17
ENDBRANCH  15  16
ENDBRANCH  14  15
ENDBRANCH  13  14
ENDBRANCH  12  13
ENDBRANCH  11  12
ENDBRANCH  10  11
ENDBRANCH   9  10
ENDBRANCH   8   9
ENDBRANCH   7   8
ENDBRANCH   6   7
ENDBRANCH   5   6
ENDBRANCH   4   5
ENDBRANCH   3   4
ENDBRANCH   2   3
TORSDOF 20
ENDMDL
