MODEL      155
REMARK 921   NORMALIZED FREE ENERGY PREDICTED BY IDOCK:   -3.50 KCAL/MOL
REMARK 922        TOTAL FREE ENERGY PREDICTED BY IDOCK:   -6.67 KCAL/MOL
REMARK 923 INTER-LIGAND FREE ENERGY PREDICTED BY IDOCK:   -6.33 KCAL/MOL
REMARK 924 INTRA-LIGAND FREE ENERGY PREDICTED BY IDOCK:   -0.34 KCAL/MOL
REMARK 927      BINDING AFFINITY PREDICTED BY RF-SCORE:    0.00 PKD
ROOT
HETATM    1  C   UNL     1     -13.087  10.873  72.075  1.00  0.00    -0.356 C  
HETATM    2  N   UNL     1     -12.899   9.416  72.068  1.00  0.00    -0.396 NA 
HETATM    3  C   UNL     1     -14.112   8.788  71.523  1.00  0.00    -0.318 C  
ENDROOT
BRANCH   2   4
HETATM    4  C   UNL     1     -11.744   9.038  71.237  1.00  0.00    -0.313 C  
BRANCH   4   5
HETATM    5  C   UNL     1     -11.454   9.912  70.049  1.00  0.00    -0.274 C  
HETATM    6  C   UNL     1     -10.477  10.827  69.917  1.00  0.00    -0.055 C  
BRANCH   6   7
HETATM    7  C   UNL     1     -10.378  11.600  68.649  1.00  0.00    -0.215 C  
HETATM    8  N   UNL     1     -11.484  12.397  68.400  1.00  0.00    -0.285 N  
HETATM    9  O   UNL     1      -9.357  11.562  67.969  1.00  0.00    -0.162 OA 
HETATM   10  H   UNL     1     -12.296  12.322  69.013  1.00  0.00     0.000 HD 
BRANCH   8  11
HETATM   11  C   UNL     1     -11.522  13.312  67.321  1.00  0.00    -0.338 A  
HETATM   12  C   UNL     1     -11.824  12.919  66.016  1.00  0.00    -0.430 A  
HETATM   13  N   UNL     1     -11.031  17.872  65.637  1.00  0.00    -0.128 NA 
HETATM   14  C   UNL     1     -11.906  13.898  65.013  1.00  0.00    -0.383 A  
HETATM   15  C   UNL     1     -11.196  14.662  67.548  1.00  0.00    -0.343 A  
HETATM   16  C   UNL     1     -11.654  15.247  65.244  1.00  0.00    -0.139 A  
HETATM   17  C   UNL     1     -11.235  15.639  66.518  1.00  0.00    -0.048 A  
HETATM   18  N   UNL     1     -11.792  16.109  64.232  1.00  0.00    -0.663 NA 
HETATM   19  C   UNL     1     -11.501  17.389  64.486  1.00  0.00     1.746 A  
HETATM   20  C   UNL     1     -10.880  17.003  66.652  1.00  0.00     0.034 A  
BRANCH  12  21
HETATM   21  O   UNL     1     -11.900  11.641  65.546  1.00  0.00    -0.246 OA 
BRANCH  21  22
HETATM   22  C   UNL     1     -11.125  11.203  64.435  1.00  0.00    -0.104 C  
HETATM   23  C   UNL     1      -8.917  11.316  63.489  1.00  0.00     0.008 C  
HETATM   24  C   UNL     1     -10.208  10.097  64.949  1.00  0.00    -0.090 C  
HETATM   25  O   UNL     1      -9.126  10.006  64.025  1.00  0.00    -0.220 OA 
HETATM   26  C   UNL     1     -10.115  12.180  63.863  1.00  0.00    -0.387 C  
ENDBRANCH  21  22
ENDBRANCH  12  21
BRANCH  20  27
HETATM   27  N   UNL     1     -10.346  17.470  67.887  1.00  0.00    -0.354 NA 
HETATM   28  H   UNL     1     -11.000  17.965  68.493  1.00  0.00     0.000 HD 
BRANCH  27  29
HETATM   29  C   UNL     1      -9.026  17.336  68.383  1.00  0.00    -0.269 A  
HETATM   30  C   UNL     1      -8.120  18.407  68.444  1.00  0.00    -0.327 A  
HETATM   31  C   UNL     1      -6.845  18.237  68.989  1.00  0.00    -0.254 A  
HETATM   32 CL   UNL     1      -5.747  19.569  68.998  1.00  0.00    -0.238 Cl 
HETATM   33  C   UNL     1      -6.467  17.004  69.508  1.00  0.00    -0.219 A  
HETATM   34  C   UNL     1      -7.360  15.944  69.508  1.00  0.00    -0.170 A  
HETATM   35  F   UNL     1      -5.249  16.827  70.035  1.00  0.00    -0.140 F  
HETATM   36  C   UNL     1      -8.635  16.111  68.958  1.00  0.00    -0.251 A  
ENDBRANCH  27  29
ENDBRANCH  20  27
ENDBRANCH   8  11
ENDBRANCH   6   7
ENDBRANCH   4   5
ENDBRANCH   2   4
TORSDOF 8
ENDMDL
