MODEL        2
REMARK 921   NORMALIZED FREE ENERGY PREDICTED BY IDOCK:   -7.70 KCAL/MOL
REMARK 922        TOTAL FREE ENERGY PREDICTED BY IDOCK:  -11.39 KCAL/MOL
REMARK 923 INTER-LIGAND FREE ENERGY PREDICTED BY IDOCK:  -10.30 KCAL/MOL
REMARK 924 INTRA-LIGAND FREE ENERGY PREDICTED BY IDOCK:   -1.09 KCAL/MOL
REMARK 927      BINDING AFFINITY PREDICTED BY RF-SCORE:    0.00 PKD
ROOT
HETATM    1  O   UNL     1      -8.150  18.837  68.034  1.00  0.00    -0.268 OA 
HETATM    2  C   UNL     1      -9.436  19.242  68.105  1.00  0.00    -0.346 C  
HETATM    3  O   UNL     1     -10.144  19.018  69.077  1.00  0.00    -0.403 OA 
HETATM    4  C   UNL     1      -9.913  19.988  66.890  1.00  0.00    -0.584 C  
ENDROOT
BRANCH   4   5
HETATM    5  C   UNL     1     -10.448  19.037  65.834  1.00  0.00    -0.399 C  
BRANCH   5   6
HETATM    6  N   UNL     1     -10.473  17.659  66.280  1.00  0.00    -0.330 N  
HETATM    7  C   UNL     1     -10.881  16.635  65.447  1.00  0.00    -0.173 C  
HETATM    8  H   UNL     1     -10.182  17.439  67.233  1.00  0.00     0.000 HD 
HETATM    9  O   UNL     1     -11.226  16.814  64.284  1.00  0.00    -1.163 OA 
BRANCH   7  10
HETATM   10  C   UNL     1     -10.945  15.272  66.054  1.00  0.00    -0.317 A  
HETATM   11  C   UNL     1     -11.439  15.142  67.357  1.00  0.00    -0.284 A  
HETATM   12  C   UNL     1     -11.448  13.892  67.990  1.00  0.00    -0.339 A  
HETATM   13  C   UNL     1     -10.979  12.744  67.337  1.00  0.00    -0.253 A  
HETATM   14  C   UNL     1     -10.516  14.128  65.372  1.00  0.00    -0.372 A  
HETATM   15  C   UNL     1     -10.523  12.880  66.015  1.00  0.00    -0.290 A  
BRANCH  13  16
HETATM   16  N   UNL     1     -10.923  11.538  68.072  1.00  0.00    -0.215 NA 
HETATM   17  H   UNL     1     -11.085  10.619  67.660  1.00  0.00     0.000 HD 
BRANCH  16  18
HETATM   18  N   UNL     1     -10.655  11.716  69.279  1.00  0.00    -0.423 NA 
HETATM   19  H   UNL     1      -9.873  12.284  69.605  1.00  0.00     0.000 HD 
BRANCH  18  20
HETATM   20  C   UNL     1     -11.550  11.048  70.144  1.00  0.00    -0.334 A  
HETATM   21  C   UNL     1     -12.453  11.710  70.989  1.00  0.00    -0.436 A  
HETATM   22  C   UNL     1     -13.258  11.002  71.888  1.00  0.00    -0.503 A  
HETATM   23  C   UNL     1     -13.158   9.613  71.958  1.00  0.00    -0.445 A  
HETATM   24  O   UNL     1     -13.933   8.929  72.860  1.00  0.00    -0.931 OA 
HETATM   25  C   UNL     1     -12.270   8.920  71.125  1.00  0.00    -0.303 A  
HETATM   26  C   UNL     1     -12.093   7.440  71.140  1.00  0.00    -0.325 C  
HETATM   27  C   UNL     1     -11.472   9.653  70.224  1.00  0.00    -0.288 A  
HETATM   28  H   UNL     1     -13.864   7.983  72.908  1.00  0.00     0.000 HD 
HETATM   29  O   UNL     1     -11.314   6.865  70.393  1.00  0.00    -0.290 OA 
HETATM   30  O   UNL     1     -12.848   6.772  72.039  1.00  0.00    -0.285 OA 
ENDBRANCH  18  20
ENDBRANCH  16  18
ENDBRANCH  13  16
ENDBRANCH   7  10
ENDBRANCH   5   6
ENDBRANCH   4   5
TORSDOF 6
ENDMDL
