MODEL      116
REMARK 921   NORMALIZED FREE ENERGY PREDICTED BY IDOCK:   -4.84 KCAL/MOL
REMARK 922        TOTAL FREE ENERGY PREDICTED BY IDOCK:  -10.97 KCAL/MOL
REMARK 923 INTER-LIGAND FREE ENERGY PREDICTED BY IDOCK:   -9.20 KCAL/MOL
REMARK 924 INTRA-LIGAND FREE ENERGY PREDICTED BY IDOCK:   -1.77 KCAL/MOL
REMARK 927      BINDING AFFINITY PREDICTED BY RF-SCORE:    0.00 PKD
ROOT
HETATM    1  C   UNL     1     -12.543  15.311  65.808  1.00  0.00     0.874 C  
HETATM    2  C   UNL     1     -13.013  13.906  65.476  1.00  0.00    -0.375 C  
ENDROOT
BRANCH   2   3
HETATM    3  C   UNL     1     -12.184  13.091  64.487  1.00  0.00    -0.416 C  
HETATM    4  O   UNL     1     -12.679  12.547  63.505  1.00  0.00    -0.722 OA 
BRANCH   3   5
HETATM    5  O   UNL     1     -10.856  13.139  64.753  1.00  0.00    -0.315 OA 
BRANCH   5   6
HETATM    6  C   UNL     1     -10.263  12.047  65.524  1.00  0.00    -0.258 C  
HETATM    7  C   UNL     1     -10.125  10.814  64.558  1.00  0.00    -0.415 C  
HETATM    8  C   UNL     1      -9.537   9.569  65.219  1.00  0.00    -0.314 C  
HETATM    9  C   UNL     1      -9.323  11.130  63.294  1.00  0.00    -0.307 C  
BRANCH   6  10
HETATM   10  O   UNL     1     -10.967  11.683  66.751  1.00  0.00    -0.264 OA 
BRANCH  10  11
HETATM   11  P   UNL     1     -10.356  12.260  68.189  1.00  0.00    -0.224 P  
HETATM   12  O   UNL     1     -11.754  12.742  68.645  1.00  0.00    -0.288 OA 
BRANCH  11  13
HETATM   13  C   UNL     1      -9.825  14.108  67.779  1.00  0.00    -0.231 C  
BRANCH  13  14
HETATM   14  C   UNL     1      -8.629  14.570  68.618  1.00  0.00    -0.168 C  
BRANCH  14  15
HETATM   15  C   UNL     1      -8.726  16.007  69.099  1.00  0.00    -0.248 C  
BRANCH  15  16
HETATM   16  C   UNL     1     -10.070  16.601  68.648  1.00  0.00    -0.270 C  
BRANCH  16  17
HETATM   17  C   UNL     1      -9.860  17.925  67.968  1.00  0.00    -0.320 A  
HETATM   18  C   UNL     1      -8.650  18.617  68.114  1.00  0.00    -0.332 A  
HETATM   19  C   UNL     1     -10.855  18.446  67.134  1.00  0.00    -0.271 A  
HETATM   20  C   UNL     1      -9.437  20.329  66.600  1.00  0.00    -0.487 A  
HETATM   21  C   UNL     1      -8.445  19.822  67.433  1.00  0.00    -0.360 A  
HETATM   22  C   UNL     1     -10.638  19.642  66.450  1.00  0.00    -0.592 A  
ENDBRANCH  16  17
ENDBRANCH  15  16
ENDBRANCH  14  15
ENDBRANCH  13  14
ENDBRANCH  11  13
BRANCH  11  23
HETATM   23  C   UNL     1      -8.702  11.690  67.650  1.00  0.00    -0.156 C  
BRANCH  23  24
HETATM   24  C   UNL     1      -7.821  11.139  68.787  1.00  0.00    -0.142 C  
HETATM   25  C   UNL     1      -7.351   9.559  70.675  1.00  0.00    -0.120 C  
HETATM   26  O   UNL     1      -6.793  11.746  69.113  1.00  0.00    -0.100 OA 
HETATM   27  N   UNL     1      -8.084   9.958  69.447  1.00  0.00    -0.125 N  
HETATM   28  C   UNL     1      -5.875   9.090  70.551  1.00  0.00    -0.036 C  
HETATM   29  O   UNL     1      -5.345   8.291  71.316  1.00  0.00    -0.032 OA 
HETATM   30  C   UNL     1      -8.860   8.827  68.978  1.00  0.00    -0.137 C  
HETATM   31  C   UNL     1      -9.274   8.046  70.238  1.00  0.00    -0.155 C  
HETATM   32  O   UNL     1      -5.153   9.730  69.605  1.00  0.00    -0.034 OA 
HETATM   33  C   UNL     1      -8.193   8.417  71.275  1.00  0.00    -0.161 C  
BRANCH  31  34
HETATM   34  C   UNL     1     -10.711   8.325  70.778  1.00  0.00    -0.244 C  
HETATM   35  C   UNL     1     -11.447   5.905  70.995  1.00  0.00    -0.139 C  
HETATM   36  C   UNL     1     -11.462   5.986  72.517  1.00  0.00    -0.336 C  
HETATM   37  C   UNL     1     -10.588   7.114  73.062  1.00  0.00    -0.346 C  
HETATM   38  C   UNL     1     -11.754   7.267  70.381  1.00  0.00    -0.219 C  
HETATM   39  C   UNL     1     -10.758   8.446  72.322  1.00  0.00    -0.417 C  
ENDBRANCH  31  34
ENDBRANCH  23  24
ENDBRANCH  11  23
ENDBRANCH  10  11
ENDBRANCH   6  10
ENDBRANCH   5   6
ENDBRANCH   3   5
ENDBRANCH   2   3
TORSDOF 13
ENDMDL
