MODEL       83
REMARK 921   NORMALIZED FREE ENERGY PREDICTED BY IDOCK:   -4.04 KCAL/MOL
REMARK 922        TOTAL FREE ENERGY PREDICTED BY IDOCK:   -7.14 KCAL/MOL
REMARK 923 INTER-LIGAND FREE ENERGY PREDICTED BY IDOCK:   -6.59 KCAL/MOL
REMARK 924 INTRA-LIGAND FREE ENERGY PREDICTED BY IDOCK:   -0.55 KCAL/MOL
REMARK 927      BINDING AFFINITY PREDICTED BY RF-SCORE:    0.00 PKD
ROOT
HETATM    1  O   UNL     1      -7.003   5.395  73.337  1.00  0.00    -0.080 OA 
HETATM    2  H   UNL     1      -6.560   4.569  73.491  1.00  0.00     0.000 HD 
HETATM    3  C   UNL     1      -7.945   5.282  72.281  1.00  0.00    -0.106 C  
ENDROOT
BRANCH   3   4
HETATM    4  C   UNL     1      -8.661   6.615  72.032  1.00  0.00    -0.123 C  
BRANCH   4   5
HETATM    5  N   UNL     1      -9.663   6.605  70.942  1.00  0.00    -0.179 N  
HETATM    6  C   UNL     1     -10.850   5.866  70.960  1.00  0.00    -0.273 C  
HETATM    7  O   UNL     1     -11.745   6.021  70.114  1.00  0.00    -0.217 OA 
BRANCH   5   8
HETATM    8  C   UNL     1      -9.504   7.578  69.889  1.00  0.00    -0.160 A  
HETATM    9  C   UNL     1     -10.195   8.822  69.924  1.00  0.00    -0.200 A  
HETATM   10  C   UNL     1      -8.711   7.266  68.759  1.00  0.00    -0.125 A  
HETATM   11  I   UNL     1     -11.355   9.313  71.702  1.00  0.00    -0.233 I  
HETATM   12  C   UNL     1     -10.077   9.767  68.866  1.00  0.00    -0.194 A  
HETATM   13  I   UNL     1      -8.095   5.212  68.442  1.00  0.00    -0.084 I  
HETATM   14  I   UNL     1      -8.574  11.063  66.432  1.00  0.00    -0.158 I  
HETATM   15  C   UNL     1      -8.432   8.250  67.787  1.00  0.00    -0.131 A  
HETATM   16  C   UNL     1      -9.117   9.506  67.849  1.00  0.00    -0.125 A  
BRANCH  12  17
HETATM   17  C   UNL     1     -11.101  10.875  68.781  1.00  0.00    -0.256 C  
HETATM   18  N   UNL     1     -10.859  12.066  69.422  1.00  0.00    -0.452 N  
HETATM   19  H   UNL     1     -10.045  12.147  70.032  1.00  0.00     0.000 HD 
HETATM   20  O   UNL     1     -12.124  10.702  68.128  1.00  0.00    -0.403 OA 
BRANCH  18  21
HETATM   21  C   UNL     1     -11.739  13.224  69.252  1.00  0.00    -0.326 C  
BRANCH  21  22
HETATM   22  C   UNL     1     -11.226  14.111  68.112  1.00  0.00    -0.276 C  
HETATM   23  O   UNL     1     -12.329  14.493  67.277  1.00  0.00    -0.602 OA 
HETATM   24  H   UNL     1     -12.011  15.043  66.570  1.00  0.00     0.000 HD 
BRANCH  22  25
HETATM   25  C   UNL     1     -10.485  15.354  68.622  1.00  0.00    -0.237 C  
HETATM   26  H   UNL     1     -10.584  17.311  68.375  1.00  0.00     0.000 HD 
HETATM   27  O   UNL     1     -11.042  16.541  68.059  1.00  0.00    -0.345 OA 
ENDBRANCH  22  25
ENDBRANCH  21  22
ENDBRANCH  18  21
ENDBRANCH  12  17
BRANCH  15  28
HETATM   28  C   UNL     1      -7.460   7.979  66.677  1.00  0.00    -0.089 C  
HETATM   29  O   UNL     1      -6.259   8.154  66.841  1.00  0.00    -0.052 OA 
HETATM   30  H   UNL     1      -8.973   7.364  65.357  1.00  0.00     0.000 HD 
HETATM   31  N   UNL     1      -7.971   7.515  65.474  1.00  0.00    -0.114 N  
BRANCH  31  32
HETATM   32  C   UNL     1      -7.046   7.249  64.378  1.00  0.00    -0.062 C  
BRANCH  32  33
HETATM   33  C   UNL     1      -6.887   5.756  64.067  1.00  0.00    -0.049 C  
HETATM   34  H   UNL     1      -5.930   4.226  64.856  1.00  0.00     0.000 HD 
HETATM   35  O   UNL     1      -6.029   5.151  65.048  1.00  0.00    -0.024 OA 
BRANCH  33  36
HETATM   36  C   UNL     1      -8.259   5.061  64.050  1.00  0.00    -0.125 C  
HETATM   37  O   UNL     1      -9.067   5.518  62.968  1.00  0.00    -0.341 OA 
HETATM   38  H   UNL     1      -9.915   5.089  62.957  1.00  0.00     0.000 HD 
ENDBRANCH  33  36
ENDBRANCH  32  33
ENDBRANCH  31  32
ENDBRANCH  15  28
ENDBRANCH   5   8
BRANCH   6  39
HETATM   39  C   UNL     1     -11.057   4.849  72.093  1.00  0.00     0.074 C  
HETATM   40  O   UNL     1     -11.990   5.288  73.074  1.00  0.00    -0.526 OA 
HETATM   41  H   UNL     1     -12.118   4.659  73.776  1.00  0.00     0.000 HD 
ENDBRANCH   6  39
ENDBRANCH   4   5
ENDBRANCH   3   4
TORSDOF 12
ENDMDL
