MODEL       32
REMARK 921   NORMALIZED FREE ENERGY PREDICTED BY IDOCK:   -6.66 KCAL/MOL
REMARK 922        TOTAL FREE ENERGY PREDICTED BY IDOCK:  -11.23 KCAL/MOL
REMARK 923 INTER-LIGAND FREE ENERGY PREDICTED BY IDOCK:   -9.42 KCAL/MOL
REMARK 924 INTRA-LIGAND FREE ENERGY PREDICTED BY IDOCK:   -1.81 KCAL/MOL
REMARK 927      BINDING AFFINITY PREDICTED BY RF-SCORE:    0.00 PKD
ROOT
HETATM    1  C   UNL     1     -10.937  10.036  68.562  1.00  0.00    -0.255 C  
HETATM    2  C   UNL     1     -10.142  10.329  67.231  1.00  0.00    -0.203 C  
HETATM    3  C   UNL     1     -10.465   8.733  69.218  1.00  0.00    -0.228 C  
HETATM    4  C   UNL     1      -9.118   9.268  66.770  1.00  0.00    -0.170 C  
HETATM    5  C   UNL     1      -9.544   7.845  67.076  1.00  0.00    -0.192 C  
HETATM    6  C   UNL     1     -13.231  10.728  71.001  1.00  0.00    -0.211 C  
HETATM    7  C   UNL     1     -11.099  11.238  69.564  1.00  0.00    -0.299 C  
HETATM    8  C   UNL     1      -9.914   7.723  68.514  1.00  0.00    -0.193 C  
HETATM    9  O   UNL     1     -10.625   7.457  66.246  1.00  0.00    -0.364 OA 
HETATM   10  C   UNL     1     -11.700  10.793  70.943  1.00  0.00    -0.334 C  
HETATM   11  C   UNL     1     -11.167   9.484  71.432  1.00  0.00    -0.452 C  
HETATM   12  H   UNL     1     -10.892   6.566  66.438  1.00  0.00     0.000 HD 
HETATM   13  C   UNL     1     -10.624   8.558  70.645  1.00  0.00    -0.241 C  
ENDROOT
BRANCH   2  14
HETATM   14  O   UNL     1      -9.561  11.651  67.108  1.00  0.00    -0.174 OA 
BRANCH  14  15
HETATM   15  C   UNL     1     -10.058  12.546  66.208  1.00  0.00    -0.250 C  
HETATM   16  C   UNL     1     -12.393  12.665  65.367  1.00  0.00    -0.499 C  
HETATM   17  C   UNL     1     -10.571  11.729  63.899  1.00  0.00    -0.445 C  
HETATM   18  O   UNL     1      -9.714  13.716  66.100  1.00  0.00    -0.285 OA 
HETATM   19  C   UNL     1     -11.093  11.865  65.334  1.00  0.00    -0.360 C  
HETATM   20  C   UNL     1      -9.384  10.780  63.793  1.00  0.00    -0.295 C  
ENDBRANCH  14  15
ENDBRANCH   2  14
BRANCH   7  21
HETATM   21  C   UNL     1     -11.870  12.479  68.994  1.00  0.00    -0.344 C  
BRANCH  21  22
HETATM   22  C   UNL     1     -11.205  13.787  69.478  1.00  0.00    -0.221 C  
BRANCH  22  23
HETATM   23  C   UNL     1     -11.902  15.118  69.166  1.00  0.00    -0.313 C  
HETATM   24  O   UNL     1     -12.966  15.367  70.085  1.00  0.00    -0.649 OA 
HETATM   25  H   UNL     1     -13.397  16.191  69.891  1.00  0.00     0.000 HD 
BRANCH  23  26
HETATM   26  C   UNL     1     -10.862  16.249  69.335  1.00  0.00    -0.331 C  
BRANCH  26  27
HETATM   27  C   UNL     1     -10.369  16.873  68.024  1.00  0.00    -0.334 C  
HETATM   28  O   UNL     1     -10.850  16.132  66.892  1.00  0.00    -0.282 OA 
HETATM   29  H   UNL     1     -10.544  16.518  66.080  1.00  0.00     0.000 HD 
BRANCH  27  30
HETATM   30  C   UNL     1     -10.894  18.305  67.879  1.00  0.00    -0.232 C  
HETATM   31  C   UNL     1     -10.186  19.091  66.801  1.00  0.00    -0.396 C  
HETATM   32  O   UNL     1      -9.895  18.382  65.688  1.00  0.00    -0.440 OA 
HETATM   33  O   UNL     1      -9.963  20.291  66.888  1.00  0.00    -0.431 OA 
ENDBRANCH  27  30
ENDBRANCH  26  27
ENDBRANCH  23  26
ENDBRANCH  22  23
ENDBRANCH  21  22
ENDBRANCH   7  21
TORSDOF 8
ENDMDL
