MODEL       27
REMARK 921   NORMALIZED FREE ENERGY PREDICTED BY IDOCK:   -6.87 KCAL/MOL
REMARK 922        TOTAL FREE ENERGY PREDICTED BY IDOCK:  -10.82 KCAL/MOL
REMARK 923 INTER-LIGAND FREE ENERGY PREDICTED BY IDOCK:   -9.98 KCAL/MOL
REMARK 924 INTRA-LIGAND FREE ENERGY PREDICTED BY IDOCK:   -0.84 KCAL/MOL
REMARK 927      BINDING AFFINITY PREDICTED BY RF-SCORE:    0.00 PKD
ROOT
HETATM    1  C   UNK A   0      -9.629  11.510  66.665  1.00  0.00    -0.197 C  
HETATM    2  N   UNK A   0     -10.670  12.381  67.202  1.00  0.00    -0.231 NA 
ENDROOT
BRANCH   2   3
HETATM    3  C   UNK A   0     -11.290  12.013  68.367  1.00  0.00    -0.279 A  
HETATM    4  C   UNK A   0     -12.250  12.066  70.503  1.00  0.00    -0.414 A  
HETATM    5  C   UNK A   0     -11.909  12.799  69.322  1.00  0.00    -0.358 A  
HETATM    6  S   UNK A   0     -11.401  10.361  68.815  1.00  0.00    -0.174 SA 
HETATM    7  C   UNK A   0     -11.936  10.726  70.391  1.00  0.00    -0.357 A  
BRANCH   7   8
HETATM    8  C   UNK A   0     -11.980   9.698  71.416  1.00  0.00    -0.399 C  
HETATM    9  O   UNK A   0     -12.927   9.545  72.180  1.00  0.00    -0.396 OA 
ATOM     10  N   GLU A   1     -10.839   8.916  71.512  1.00  0.00    -0.298 N  
ATOM     11  H   GLU A   1     -10.056   9.096  70.882  1.00  0.00     0.000 HD 
BRANCH  10  12
ATOM     12  CA  GLU A   1     -10.732   7.836  72.497  1.00  0.00    -0.314 C  
ATOM     13  C   GLU A   1      -9.432   7.995  73.306  1.00  0.00    -0.266 C  
ATOM     14  O   GLU A   1      -8.459   8.674  72.650  1.00  0.00    -0.378 OA 
ATOM     15  OXT GLU A   1      -9.224   7.442  74.378  1.00  0.00    -0.204 OA 
BRANCH  12  16
ATOM     16  CB  GLU A   1     -10.751   6.484  71.774  1.00  0.00    -0.262 C  
BRANCH  16  17
ATOM     17  CG  GLU A   1     -11.607   6.505  70.507  1.00  0.00    -0.455 C  
ATOM     18  CD  GLU A   1     -10.771   6.645  69.261  1.00  0.00    -0.265 C  
ATOM     19  OE2 GLU A   1      -9.697   7.215  69.211  1.00  0.00    -0.158 OA 
ATOM     20  OE1 GLU A   1     -11.361   6.096  68.174  1.00  0.00    -0.234 OA 
ENDBRANCH  16  17
ENDBRANCH  12  16
ENDBRANCH  10  12
ENDBRANCH   7   8
ENDBRANCH   2   3
BRANCH   2  21
HETATM   21  C   UNK A   0     -11.523  13.043  66.195  1.00  0.00    -0.340 C  
BRANCH  21  22
HETATM   22  C   UNK A   0     -11.212  14.520  66.093  1.00  0.00    -0.339 A  
HETATM   23  C   UNK A   0     -10.732  16.659  67.144  1.00  0.00    -0.202 A  
HETATM   24  C   UNK A   0     -10.594  17.267  65.896  1.00  0.00    -0.204 A  
HETATM   25  C   UNK A   0     -11.040  15.299  67.248  1.00  0.00    -0.325 A  
HETATM   26  H   UNK A   0      -9.982  19.411  69.015  1.00  0.00     0.000 HD 
HETATM   27  C   UNK A   0     -10.789  16.506  64.744  1.00  0.00    -0.145 A  
HETATM   28  C   UNK A   0      -9.631  20.759  66.884  1.00  0.00    -0.330 C  
HETATM   29  N   UNK A   0     -10.291  18.628  65.841  1.00  0.00    -0.588 NA 
HETATM   30  N   UNK A   0     -10.166  18.828  68.199  1.00  0.00    -0.374 N  
HETATM   31  C   UNK A   0     -11.089  15.143  64.844  1.00  0.00    -0.425 A  
HETATM   32  C   UNK A   0     -10.535  17.506  68.350  1.00  0.00    -0.372 C  
HETATM   33  O   UNK A   0     -10.709  16.991  69.451  1.00  0.00    -0.322 OA 
HETATM   34  C   UNK A   0     -10.057  19.314  67.003  1.00  0.00    -0.374 C  
ENDBRANCH  21  22
ENDBRANCH   2  21
TORSDOF 7
ENDMDL
