MODEL      193
REMARK 921   NORMALIZED FREE ENERGY PREDICTED BY IDOCK:   58.01 KCAL/MOL
REMARK 922        TOTAL FREE ENERGY PREDICTED BY IDOCK:   60.65 KCAL/MOL
REMARK 923 INTER-LIGAND FREE ENERGY PREDICTED BY IDOCK:   29.23 KCAL/MOL
REMARK 924 INTRA-LIGAND FREE ENERGY PREDICTED BY IDOCK:   31.42 KCAL/MOL
REMARK 927      BINDING AFFINITY PREDICTED BY RF-SCORE:    0.00 PKD
ROOT
HETATM    1 NA   UNL     1      -6.423  18.337  68.428  1.00  0.00    -0.174 Na 
HETATM    2 NA   UNL     2     -10.849  20.327  69.750  1.00  0.00    -0.627 Na 
HETATM    3  O   UNL     3      -9.793  19.031  68.670  1.00  0.00    -0.371 OA 
HETATM    4  C   UNL     3      -9.433  18.086  67.884  1.00  0.00    -0.273 C  
HETATM    5  C   UNL     3     -10.484  17.315  67.130  1.00  0.00    -0.297 A  
HETATM    6  O   UNL     3      -8.199  17.819  67.718  1.00  0.00    -0.221 OA 
HETATM    7  C   UNL     3     -11.594  17.977  66.553  1.00  0.00     1.919 A  
HETATM    8 CL   UNL     3     -11.745  19.717  66.662  1.00  0.00     0.895 Cl 
HETATM    9  C   UNL     3     -12.590  17.257  65.854  1.00  0.00     6.643 A  
HETATM   10 CL   UNL     3     -13.955  18.102  65.166  1.00  0.00    16.905 Cl 
HETATM   11  C   UNL     3     -12.488  15.866  65.704  1.00  0.00     1.806 A  
HETATM   12  C   UNL     3     -11.393  15.189  66.262  1.00  0.00    -0.219 A  
HETATM   13 CL   UNL     3     -13.709  14.986  64.828  1.00  0.00     1.942 Cl 
HETATM   14  C   UNL     3     -10.394  15.899  66.979  1.00  0.00    -0.297 A  
HETATM   15 CL   UNL     3     -11.252  13.460  66.072  1.00  0.00    -0.304 Cl 
ENDROOT
BRANCH  14  16
HETATM   16  C   UNL     3      -9.286  15.125  67.635  1.00  0.00    -0.181 A  
HETATM   17  C   UNL     3      -8.396  15.742  68.461  1.00  0.00    -0.175 A  
HETATM   18  C   UNL     3      -8.451  17.184  68.706  1.00  0.00    -0.225 C  
HETATM   19  C   UNL     3      -7.681  17.787  69.624  1.00  0.00     0.686 C  
HETATM   20 BR   UNL     3      -7.836  19.610  69.977  1.00  0.00     0.921 Br 
HETATM   21  C   UNL     3      -6.718  16.976  70.436  1.00  0.00     1.178 C  
HETATM   22  O   UNL     3      -6.122  17.478  71.396  1.00  0.00     1.102 OA 
HETATM   23  C   UNL     3      -6.553  15.535  70.077  1.00  0.00    -0.079 C  
HETATM   24  C   UNL     3      -7.362  14.963  69.156  1.00  0.00    -0.158 A  
HETATM   25 BR   UNL     3      -5.259  14.566  71.023  1.00  0.00    -0.146 Br 
HETATM   26  O   UNL     3      -7.242  13.607  68.904  1.00  0.00    -0.106 OA 
HETATM   27  C   UNL     3      -8.135  12.962  68.090  1.00  0.00    -0.158 A  
HETATM   28  C   UNL     3      -9.133  13.665  67.427  1.00  0.00    -0.222 A  
HETATM   29  C   UNL     3      -9.974  12.951  66.576  1.00  0.00    -0.259 C  
HETATM   30  C   UNL     3      -9.859  11.557  66.440  1.00  0.00    -0.205 C  
HETATM   31 BR   UNL     3     -11.126  10.755  65.239  1.00  0.00     0.372 Br 
HETATM   32  C   UNL     3      -8.902  10.783  67.142  1.00  0.00    -0.134 C  
HETATM   33  C   UNL     3      -8.021  11.560  67.952  1.00  0.00    -0.126 C  
HETATM   34  O   UNL     3      -8.847   9.506  67.061  1.00  0.00    -0.127 OA 
HETATM   35 BR   UNL     3      -6.608  10.692  68.945  1.00  0.00    -0.059 Br 
ENDBRANCH  14  16
TORSDOF 1
ENDMDL
