MODEL        2
REMARK 921   NORMALIZED FREE ENERGY PREDICTED BY IDOCK:   -8.25 KCAL/MOL
REMARK 922        TOTAL FREE ENERGY PREDICTED BY IDOCK:  -11.68 KCAL/MOL
REMARK 923 INTER-LIGAND FREE ENERGY PREDICTED BY IDOCK:  -11.05 KCAL/MOL
REMARK 924 INTRA-LIGAND FREE ENERGY PREDICTED BY IDOCK:   -0.63 KCAL/MOL
REMARK 927      BINDING AFFINITY PREDICTED BY RF-SCORE:    0.00 PKD
ROOT
HETATM    1  C   UNL     1      -9.057   6.599  72.926  1.00  0.00    -0.128 C  
HETATM    2  C   UNL     1      -9.994   7.719  73.409  1.00  0.00    -0.284 C  
HETATM    3  C   UNL     1      -8.083   7.033  71.838  1.00  0.00    -0.098 C  
HETATM    4  N   UNL     1     -11.204   7.855  72.600  1.00  0.00    -0.373 NA 
HETATM    5  C   UNL     1     -11.881   6.599  72.266  1.00  0.00    -0.252 C  
HETATM    6  C   UNL     1     -10.554   5.619  70.291  1.00  0.00    -0.370 C  
HETATM    7  C   UNL     1     -10.904   5.513  71.772  1.00  0.00    -0.211 C  
HETATM    8  O   UNL     1      -9.737   5.377  72.595  1.00  0.00    -0.150 OA 
ENDROOT
BRANCH   4   9
HETATM    9  C   UNL     1     -11.345   8.921  71.730  1.00  0.00    -0.361 A  
HETATM   10  C   UNL     1     -12.563   9.595  71.695  1.00  0.00    -0.493 A  
HETATM   11  C   UNL     1     -12.763  10.657  70.818  1.00  0.00    -0.468 A  
HETATM   12  C   UNL     1     -11.743  11.050  69.961  1.00  0.00    -0.355 A  
HETATM   13  N   UNL     1     -10.325   9.315  70.941  1.00  0.00    -0.272 NA 
HETATM   14  C   UNL     1     -10.551  10.340  70.071  1.00  0.00    -0.269 A  
BRANCH  12  15
HETATM   15  N   UNL     1     -11.891  12.084  68.998  1.00  0.00    -0.320 N  
HETATM   16  C   UNL     1     -11.626  11.934  67.642  1.00  0.00    -0.312 C  
HETATM   17  H   UNL     1     -12.213  12.996  69.323  1.00  0.00     0.000 HD 
HETATM   18  O   UNL     1     -11.375  10.861  67.106  1.00  0.00    -0.394 OA 
BRANCH  16  19
HETATM   19  C   UNL     1     -11.729  13.140  66.754  1.00  0.00    -0.439 A  
HETATM   20  C   UNL     1     -12.360  13.043  65.509  1.00  0.00    -0.527 A  
HETATM   21  C   UNL     1     -12.285  14.102  64.611  1.00  0.00    -0.465 A  
HETATM   22  C   UNL     1     -11.492  15.213  64.906  1.00  0.00    -0.374 A  
HETATM   23  C   UNL     1     -10.810  15.346  66.134  1.00  0.00    -0.313 A  
HETATM   24  C   UNL     1     -10.599  14.535  68.549  1.00  0.00    -0.252 C  
HETATM   25  C   UNL     1     -11.046  14.342  67.114  1.00  0.00    -0.318 A  
BRANCH  23  26
HETATM   26  C   UNL     1      -9.822  16.457  66.302  1.00  0.00    -0.336 A  
HETATM   27  C   UNL     1     -10.214  17.803  66.400  1.00  0.00    -0.365 A  
HETATM   28  C   UNL     1      -9.269  18.835  66.492  1.00  0.00    -0.336 A  
HETATM   29  C   UNL     1      -7.901  18.560  66.528  1.00  0.00    -0.258 A  
HETATM   30  C   UNL     1      -7.481  17.244  66.390  1.00  0.00    -0.336 A  
HETATM   31  C   UNL     1      -8.432  16.219  66.265  1.00  0.00    -0.369 A  
BRANCH  29  32
HETATM   32  O   UNL     1      -7.101  19.654  66.646  1.00  0.00    -0.207 OA 
HETATM   33  C   UNL     1      -6.520  19.951  67.907  1.00  0.00    -0.233 C  
HETATM   34  F   UNL     1      -5.194  19.698  67.866  1.00  0.00    -0.168 F  
HETATM   35  F   UNL     1      -7.064  19.273  68.939  1.00  0.00    -0.319 F  
HETATM   36  F   UNL     1      -6.687  21.271  68.148  1.00  0.00    -0.321 F  
ENDBRANCH  29  32
ENDBRANCH  23  26
ENDBRANCH  16  19
ENDBRANCH  12  15
ENDBRANCH   4   9
TORSDOF 5
ENDMDL
