MODEL      170
REMARK 921   NORMALIZED FREE ENERGY PREDICTED BY IDOCK:   -4.84 KCAL/MOL
REMARK 922        TOTAL FREE ENERGY PREDICTED BY IDOCK:  -11.72 KCAL/MOL
REMARK 923 INTER-LIGAND FREE ENERGY PREDICTED BY IDOCK:   -9.98 KCAL/MOL
REMARK 924 INTRA-LIGAND FREE ENERGY PREDICTED BY IDOCK:   -1.74 KCAL/MOL
REMARK 927      BINDING AFFINITY PREDICTED BY RF-SCORE:    0.00 PKD
ROOT
HETATM    1  O   UNL     1     -10.623  19.487  68.571  1.00  0.00    -0.468 OA 
HETATM    2  C   UNL     1      -9.950  18.228  68.601  1.00  0.00    -0.389 C  
HETATM    3  H   UNL     1     -10.362  20.016  69.317  1.00  0.00     0.000 HD 
ENDROOT
BRANCH   2   4
HETATM    4  C   UNL     1     -10.362  17.390  67.419  1.00  0.00    -0.343 A  
HETATM    5  C   UNL     1     -10.338  17.869  66.104  1.00  0.00    -0.352 A  
HETATM    6  O   UNL     1      -9.997  19.161  65.815  1.00  0.00    -0.462 OA 
HETATM    7  C   UNL     1     -10.689  17.059  65.030  1.00  0.00     0.006 A  
HETATM    8  C   UNL     1     -11.098  15.748  65.257  1.00  0.00    -0.280 A  
HETATM    9  H   UNL     1      -9.981  19.487  64.922  1.00  0.00     0.000 HD 
HETATM   10  C   UNL     1     -11.141  15.228  66.560  1.00  0.00    -0.271 A  
HETATM   11  C   UNL     1     -10.748  16.053  67.628  1.00  0.00    -0.320 A  
BRANCH  10  12
HETATM   12  C   UNL     1     -11.627  13.817  66.834  1.00  0.00    -0.370 C  
HETATM   13  O   UNL     1     -12.770  13.848  67.703  1.00  0.00    -0.238 OA 
HETATM   14  H   UNL     1     -13.075  12.964  67.875  1.00  0.00     0.000 HD 
BRANCH  12  15
HETATM   15  C   UNL     1     -12.004  13.067  65.538  1.00  0.00    -0.424 C  
BRANCH  15  16
HETATM   16  N   UNL     1     -11.022  12.016  65.226  1.00  0.00    -0.300 NA 
HETATM   17  H   UNL     1     -10.285  12.353  64.608  1.00  0.00     0.000 HD 
BRANCH  16  18
HETATM   18  C   UNL     1     -10.485  11.450  66.459  1.00  0.00    -0.249 C  
BRANCH  18  19
HETATM   19  C   UNL     1      -9.691  10.187  66.152  1.00  0.00    -0.275 C  
BRANCH  19  20
HETATM   20  C   UNL     1      -9.814   9.193  67.305  1.00  0.00    -0.244 C  
BRANCH  20  21
HETATM   21  C   UNL     1     -10.505   7.918  66.844  1.00  0.00    -0.388 C  
BRANCH  21  22
HETATM   22  C   UNL     1     -10.699   6.942  67.998  1.00  0.00    -0.276 C  
BRANCH  22  23
HETATM   23  C   UNL     1      -9.867   7.369  69.197  1.00  0.00    -0.168 C  
BRANCH  23  24
HETATM   24  O   UNL     1     -10.270   6.597  70.322  1.00  0.00    -0.184 OA 
BRANCH  24  25
HETATM   25  C   UNL     1     -11.686   6.442  70.367  1.00  0.00    -0.321 C  
BRANCH  25  26
HETATM   26  C   UNL     1     -12.161   6.688  71.793  1.00  0.00    -0.400 C  
BRANCH  26  27
HETATM   27  C   UNL     1     -11.925   8.142  72.207  1.00  0.00    -0.434 C  
BRANCH  27  28
HETATM   28  C   UNL     1     -13.133   9.026  71.904  1.00  0.00    -0.459 C  
BRANCH  28  29
HETATM   29  C   UNL     1     -12.671  10.380  71.421  1.00  0.00    -0.551 A  
HETATM   30  C   UNL     1     -13.254  11.548  71.925  1.00  0.00    -0.479 A  
HETATM   31  C   UNL     1     -12.883  12.794  71.420  1.00  0.00    -0.371 A  
HETATM   32  C   UNL     1     -11.930  12.882  70.407  1.00  0.00    -0.329 A  
HETATM   33  C   UNL     1     -11.342  11.724  69.901  1.00  0.00    -0.201 A  
HETATM   34  C   UNL     1     -11.711  10.476  70.405  1.00  0.00    -0.434 A  
ENDBRANCH  28  29
ENDBRANCH  27  28
ENDBRANCH  26  27
ENDBRANCH  25  26
ENDBRANCH  24  25
ENDBRANCH  23  24
ENDBRANCH  22  23
ENDBRANCH  21  22
ENDBRANCH  20  21
ENDBRANCH  19  20
ENDBRANCH  18  19
ENDBRANCH  16  18
ENDBRANCH  15  16
ENDBRANCH  12  15
ENDBRANCH  10  12
ENDBRANCH   2   4
TORSDOF 16
ENDMDL
