MODEL      100
REMARK 921   NORMALIZED FREE ENERGY PREDICTED BY IDOCK:   -3.86 KCAL/MOL
REMARK 922        TOTAL FREE ENERGY PREDICTED BY IDOCK:   -6.99 KCAL/MOL
REMARK 923 INTER-LIGAND FREE ENERGY PREDICTED BY IDOCK:   -6.58 KCAL/MOL
REMARK 924 INTRA-LIGAND FREE ENERGY PREDICTED BY IDOCK:   -0.40 KCAL/MOL
REMARK 927      BINDING AFFINITY PREDICTED BY RF-SCORE:    0.00 PKD
ROOT
HETATM    1  O   UNL     1     -10.969  19.378  67.434  1.00  0.00    -0.490 OA 
HETATM    2  C   UNL     1      -9.944  18.720  67.545  1.00  0.00    -0.338 C  
ENDROOT
BRANCH   2   3
HETATM    3  O   UNL     1      -9.854  17.364  67.484  1.00  0.00    -0.264 OA 
BRANCH   3   4
HETATM    4  O   UNL     1     -11.036  16.831  68.175  1.00  0.00    -0.356 OA 
BRANCH   4   5
HETATM    5  C   UNL     1     -10.730  15.561  68.554  1.00  0.00    -0.259 C  
HETATM    6  O   UNL     1     -10.015  14.774  67.954  1.00  0.00    -0.211 OA 
BRANCH   5   7
HETATM    7  C   UNL     1     -11.457  15.208  69.805  1.00  0.00    -0.321 A  
HETATM    8  C   UNL     1     -12.820  13.719  71.149  1.00  0.00    -0.409 A  
HETATM    9  C   UNL     1     -12.125  13.987  69.964  1.00  0.00    -0.412 A  
HETATM   10  C   UNL     1     -12.843  14.662  72.178  1.00  0.00    -0.408 A  
HETATM   11  C   UNL     1     -12.176  15.878  72.028  1.00  0.00    -0.570 A  
HETATM   12  C   UNL     1     -11.488  16.152  70.843  1.00  0.00    -0.421 A  
ENDBRANCH   5   7
ENDBRANCH   4   5
ENDBRANCH   3   4
ENDBRANCH   2   3
BRANCH   2  13
HETATM   13  C   UNL     1      -8.601  19.341  67.737  1.00  0.00    -0.341 A  
HETATM   14  C   UNL     1      -6.805  20.845  67.098  1.00  0.00    -0.417 A  
HETATM   15  C   UNL     1      -7.828  18.916  68.829  1.00  0.00    -0.359 A  
HETATM   16  C   UNL     1      -8.079  20.313  66.871  1.00  0.00    -0.346 A  
HETATM   17  C   UNL     1      -6.558  19.452  69.055  1.00  0.00    -0.347 A  
HETATM   18  C   UNL     1      -6.047  20.416  68.188  1.00  0.00    -0.313 A  
ENDBRANCH   2  13
TORSDOF 5
ENDMDL
