MODEL       79
REMARK 921   NORMALIZED FREE ENERGY PREDICTED BY IDOCK:   -4.62 KCAL/MOL
REMARK 922        TOTAL FREE ENERGY PREDICTED BY IDOCK:   -7.64 KCAL/MOL
REMARK 923 INTER-LIGAND FREE ENERGY PREDICTED BY IDOCK:   -7.08 KCAL/MOL
REMARK 924 INTRA-LIGAND FREE ENERGY PREDICTED BY IDOCK:   -0.56 KCAL/MOL
REMARK 927      BINDING AFFINITY PREDICTED BY RF-SCORE:    0.00 PKD
ROOT
HETATM    1  C   UNL     1     -11.881  10.537  69.382  1.00  0.00    -0.271 C  
HETATM    2  C   UNL     1     -10.808   9.833  69.778  1.00  0.00    -0.285 C  
ENDROOT
BRANCH   1   3
HETATM    3  C   UNL     1     -11.809  11.656  68.415  1.00  0.00    -0.278 C  
HETATM    4  O   UNL     1     -11.835  11.474  67.206  1.00  0.00    -0.609 OA 
BRANCH   3   5
HETATM    5  O   UNL     1     -11.534  12.819  69.046  1.00  0.00    -0.271 OA 
BRANCH   5   6
HETATM    6  C   UNL     1     -10.713  13.703  68.279  1.00  0.00    -0.254 C  
HETATM    7  C   UNL     1     -10.392  15.972  67.207  1.00  0.00    -0.295 C  
HETATM    8  C   UNL     1     -10.772  16.096  70.316  1.00  0.00    -0.235 C  
HETATM    9  C   UNL     1     -11.855  15.763  69.297  1.00  0.00    -0.358 C  
HETATM   10  C   UNL     1     -11.361  15.067  68.007  1.00  0.00    -0.339 C  
BRANCH   7  11
HETATM   11  C   UNL     1     -10.012  15.386  65.841  1.00  0.00    -0.374 C  
BRANCH  11  12
HETATM   12  C   UNL     1     -11.111  15.577  64.800  1.00  0.00    -0.421 C  
HETATM   13  C   UNL     1     -11.944  14.311  64.658  1.00  0.00    -0.468 C  
ENDBRANCH  11  12
ENDBRANCH   7  11
ENDBRANCH   5   6
ENDBRANCH   3   5
ENDBRANCH   1   3
BRANCH   2  14
HETATM   14  C   UNL     1     -10.956   8.645  70.612  1.00  0.00    -0.274 A  
HETATM   15  C   UNL     1     -11.166   6.354  72.217  1.00  0.00    -0.276 A  
HETATM   16  C   UNL     1     -11.030   7.380  70.027  1.00  0.00    -0.264 A  
HETATM   17  C   UNL     1     -10.997   8.765  72.004  1.00  0.00    -0.438 A  
HETATM   18  C   UNL     1     -11.136   6.236  70.828  1.00  0.00    -0.377 A  
HETATM   19  C   UNL     1     -11.091   7.622  72.800  1.00  0.00    -0.437 A  
BRANCH  15  20
HETATM   20  O   UNL     1     -11.203   5.311  73.100  1.00  0.00    -0.299 OA 
HETATM   21  C   UNL     1     -10.240   5.340  74.146  1.00  0.00    -0.254 C  
ENDBRANCH  15  20
ENDBRANCH   2  14
TORSDOF 7
ENDMDL
