MODEL      160
REMARK 921   NORMALIZED FREE ENERGY PREDICTED BY IDOCK:   -5.09 KCAL/MOL
REMARK 922        TOTAL FREE ENERGY PREDICTED BY IDOCK:  -11.46 KCAL/MOL
REMARK 923 INTER-LIGAND FREE ENERGY PREDICTED BY IDOCK:  -10.60 KCAL/MOL
REMARK 924 INTRA-LIGAND FREE ENERGY PREDICTED BY IDOCK:   -0.86 KCAL/MOL
REMARK 927      BINDING AFFINITY PREDICTED BY RF-SCORE:    0.00 PKD
ROOT
HETATM    1  C   UNL     1     -11.677  15.718  64.113  1.00  0.00    -0.070 C  
HETATM    2  C   UNL     1     -12.398  14.409  64.388  1.00  0.00    -0.428 C  
HETATM    3  C   UNL     1     -12.113  13.313  63.358  1.00  0.00    -0.508 C  
HETATM    4  C   UNL     1     -12.526  13.805  65.791  1.00  0.00    -0.485 C  
ENDROOT
BRANCH   4   5
HETATM    5  N   UNL     1     -11.554  13.873  66.921  1.00  0.00    -0.357 N  
BRANCH   5   6
HETATM    6  C   UNL     1     -11.776  12.589  67.774  1.00  0.00    -0.359 C  
BRANCH   6   7
HETATM    7  C   UNL     1     -11.557  12.740  69.349  1.00  0.00    -0.298 C  
BRANCH   7   8
HETATM    8  C   UNL     1     -11.062  11.356  70.003  1.00  0.00     0.027 C  
BRANCH   8   9
HETATM    9  N   UNL     1     -12.148  10.369  70.143  1.00  0.00    -0.401 N  
HETATM   10  C   UNL     1     -13.040  10.438  71.182  1.00  0.00    -0.383 C  
HETATM   11  H   UNL     1     -12.237   9.622  69.454  1.00  0.00     0.000 HD 
HETATM   12  O   UNL     1     -13.079  11.309  72.035  1.00  0.00    -0.495 OA 
BRANCH  10  13
HETATM   13  O   UNL     1     -13.905   9.389  71.115  1.00  0.00    -0.269 OA 
BRANCH  13  14
HETATM   14  C   UNL     1     -13.510   8.228  71.867  1.00  0.00    -0.346 C  
HETATM   15  C   UNL     1     -13.141   7.040  71.007  1.00  0.00    -0.170 C  
HETATM   16  O   UNL     1     -11.442   7.287  72.629  1.00  0.00    -0.294 OA 
HETATM   17  C   UNL     1     -12.142   6.300  71.864  1.00  0.00    -0.255 C  
HETATM   18  C   UNL     1     -12.208   8.501  72.612  1.00  0.00    -0.228 C  
ENDBRANCH  13  14
ENDBRANCH  10  13
ENDBRANCH   8   9
BRANCH   8  19
HETATM   19  C   UNL     1      -9.794  10.699  69.409  1.00  0.00    -0.164 C  
BRANCH  19  20
HETATM   20  C   UNL     1      -9.921   9.308  68.850  1.00  0.00    -0.190 A  
HETATM   21  C   UNL     1     -10.567   7.803  67.060  1.00  0.00    -0.396 A  
HETATM   22  C   UNL     1      -9.976   6.915  69.227  1.00  0.00    -0.164 A  
HETATM   23  C   UNL     1      -9.733   8.206  69.692  1.00  0.00    -0.170 A  
HETATM   24  C   UNL     1     -10.333   9.097  67.527  1.00  0.00    -0.324 A  
HETATM   25  C   UNL     1     -10.396   6.714  67.914  1.00  0.00    -0.227 A  
ENDBRANCH  19  20
ENDBRANCH   8  19
ENDBRANCH   7   8
BRANCH   7  26
HETATM   26  O   UNL     1     -12.687  13.415  70.015  1.00  0.00    -0.094 OA 
HETATM   27  O   UNL     1     -12.017  16.063  71.829  1.00  0.00    -0.447 OA 
HETATM   28  O   UNL     1     -12.580  15.692  69.622  1.00  0.00    -0.189 OA 
HETATM   29  O   UNL     1     -10.731  14.628  70.827  1.00  0.00     0.115 OA 
HETATM   30  P   UNL     1     -12.333  14.812  70.972  1.00  0.00    -0.395 P  
ENDBRANCH   7  26
ENDBRANCH   6   7
ENDBRANCH   5   6
BRANCH   5  31
HETATM   31  S   UNL     1      -9.887  14.240  66.834  1.00  0.00    -0.271 S  
HETATM   32  O   UNL     1      -9.341  13.693  65.609  1.00  0.00     0.030 OA 
HETATM   33  O   UNL     1      -9.282  13.851  68.092  1.00  0.00    -0.190 OA 
BRANCH  31  34
HETATM   34  C   UNL     1      -9.681  15.977  66.702  1.00  0.00    -0.244 A  
HETATM   35  N   UNL     1      -8.934  20.089  66.538  1.00  0.00    -0.445 NA 
HETATM   36  C   UNL     1     -10.587  16.855  67.297  1.00  0.00    -0.270 A  
HETATM   37  H1  UNL     1      -8.112  20.445  66.051  1.00  0.00     0.000 HD 
HETATM   38  H2  UNL     1      -8.908  20.429  67.500  1.00  0.00     0.000 HD 
HETATM   39  C   UNL     1      -8.474  16.451  66.185  1.00  0.00    -0.329 A  
HETATM   40  C   UNL     1      -8.237  17.815  66.121  1.00  0.00    -0.193 A  
HETATM   41  C   UNL     1     -10.334  18.227  67.236  1.00  0.00    -0.407 A  
HETATM   42  C   UNL     1      -9.205  18.717  66.566  1.00  0.00    -0.320 A  
ENDBRANCH  31  34
ENDBRANCH   5  31
ENDBRANCH   4   5
TORSDOF 12
ENDMDL
