MODEL       14
REMARK 921   NORMALIZED FREE ENERGY PREDICTED BY IDOCK:   -7.78 KCAL/MOL
REMARK 922        TOTAL FREE ENERGY PREDICTED BY IDOCK:   -9.28 KCAL/MOL
REMARK 923 INTER-LIGAND FREE ENERGY PREDICTED BY IDOCK:   -8.78 KCAL/MOL
REMARK 924 INTRA-LIGAND FREE ENERGY PREDICTED BY IDOCK:   -0.51 KCAL/MOL
REMARK 927      BINDING AFFINITY PREDICTED BY RF-SCORE:    0.00 PKD
ROOT
HETATM    1  C   UNL     1      -9.082  15.616  69.224  1.00  0.00    -0.270 C  
HETATM    2  C   UNL     1      -9.712  15.907  67.876  1.00  0.00    -0.216 A  
HETATM    3  C   UNL     1     -10.171  14.891  66.990  1.00  0.00    -0.256 A  
HETATM    4 CL   UNL     1      -9.357  18.525  68.593  1.00  0.00    -0.355 Cl 
HETATM    5  C   UNL     1     -10.719  15.273  65.741  1.00  0.00    -0.348 A  
HETATM    6  C   UNL     1     -10.544  19.063  65.845  1.00  0.00    -0.466 C  
HETATM    7 CL   UNL     1     -11.350  14.091  64.617  1.00  0.00    -0.368 Cl 
HETATM    8  N   UNL     1     -10.817  16.635  65.379  1.00  0.00    -0.412 NA 
HETATM    9  C   UNL     1     -10.393  17.627  66.262  1.00  0.00    -0.342 A  
HETATM   10  O   UNL     1     -11.309  16.970  64.246  1.00  0.00    -1.191 OA 
HETATM   11  C   UNL     1      -9.852  17.260  67.501  1.00  0.00    -0.275 A  
ENDROOT
BRANCH   3  12
HETATM   12  C   UNL     1     -10.112  13.477  67.383  1.00  0.00    -0.237 A  
HETATM   13  O   UNL     1      -9.491  11.427  67.701  1.00  0.00    -0.158 OA 
HETATM   14  N   UNL     1      -9.204  12.581  66.960  1.00  0.00    -0.207 NA 
HETATM   15  C   UNL     1     -10.533  11.751  68.518  1.00  0.00    -0.215 A  
HETATM   16  N   UNL     1     -10.982  12.969  68.316  1.00  0.00    -0.248 NA 
BRANCH  15  17
HETATM   17  C   UNL     1     -10.935  10.814  69.566  1.00  0.00    -0.317 A  
HETATM   18  C   UNL     1     -10.043  10.166  70.443  1.00  0.00    -0.052 A  
HETATM   19  C   UNL     1     -10.538   9.282  71.430  1.00  0.00    -0.347 A  
HETATM   20  N   UNL     1      -9.597   8.608  72.328  1.00  0.00    -0.300 N  
HETATM   21  C   UNL     1     -11.913   9.049  71.556  1.00  0.00    -0.344 A  
HETATM   22  O   UNL     1     -12.519   8.220  72.467  1.00  0.00    -0.516 OA 
HETATM   23  O   UNL     1     -10.068   7.820  73.166  1.00  0.00    -0.287 OA 
HETATM   24  O   UNL     1      -8.391   8.859  72.202  1.00  0.00    -0.381 OA 
HETATM   25  C   UNL     1     -12.780   9.711  70.696  1.00  0.00    -0.029 A  
HETATM   26  H   UNL     1     -13.452   8.063  72.552  1.00  0.00     0.000 HD 
HETATM   27  C   UNL     1     -12.311  10.576  69.720  1.00  0.00    -0.200 A  
HETATM   28  O   UNL     1     -14.131   9.523  70.796  1.00  0.00    -0.438 OA 
HETATM   29  H   UNL     1     -14.724   9.975  70.208  1.00  0.00     0.000 HD 
ENDBRANCH  15  17
ENDBRANCH   3  12
TORSDOF 2
ENDMDL
