MODEL       26
REMARK 921   NORMALIZED FREE ENERGY PREDICTED BY IDOCK:   -6.42 KCAL/MOL
REMARK 922        TOTAL FREE ENERGY PREDICTED BY IDOCK:  -10.25 KCAL/MOL
REMARK 923 INTER-LIGAND FREE ENERGY PREDICTED BY IDOCK:   -9.41 KCAL/MOL
REMARK 924 INTRA-LIGAND FREE ENERGY PREDICTED BY IDOCK:   -0.84 KCAL/MOL
REMARK 927      BINDING AFFINITY PREDICTED BY RF-SCORE:    0.00 PKD
ROOT
HETATM    1  C   UNL     1     -10.080  13.109  67.954  1.00  0.00    -0.232 C  
HETATM    2  S   UNL     1      -9.048  12.584  66.512  1.00  0.00    -0.126 SA 
HETATM    3  C   UNL     1     -10.496  12.044  65.487  1.00  0.00    -0.269 C  
HETATM    4  C   UNL     1     -11.715  12.798  66.083  1.00  0.00    -0.403 C  
HETATM    5  C   UNL     1     -10.206  12.316  64.008  1.00  0.00    -0.399 C  
HETATM    6  C   UNL     1     -10.624  10.514  65.644  1.00  0.00    -0.132 C  
HETATM    7  N   UNL     1     -11.474  12.894  67.524  1.00  0.00    -0.314 N  
HETATM    8  O   UNL     1     -12.527  10.974  68.336  1.00  0.00    -0.352 OA 
HETATM    9  C   UNL     1     -11.676  11.835  68.362  1.00  0.00    -0.325 C  
HETATM   10  C   UNL     1     -10.327  12.071  69.083  1.00  0.00     0.089 C  
ENDROOT
BRANCH   4  11
HETATM   11  C   UNL     1     -11.951  14.203  65.483  1.00  0.00    -0.391 C  
HETATM   12  O   UNL     1     -12.575  14.406  64.448  1.00  0.00    -0.668 OA 
BRANCH  11  13
HETATM   13  O   UNL     1     -11.407  15.188  66.249  1.00  0.00    -0.317 OA 
BRANCH  13  14
HETATM   14  C   UNL     1     -10.485  16.061  65.594  1.00  0.00    -0.397 C  
BRANCH  14  15
HETATM   15  O   UNL     1      -9.828  16.927  66.522  1.00  0.00    -0.268 OA 
BRANCH  15  16
HETATM   16  C   UNL     1     -10.072  18.252  66.331  1.00  0.00    -0.396 C  
HETATM   17  O   UNL     1     -10.725  18.708  65.402  1.00  0.00    -0.572 OA 
BRANCH  16  18
HETATM   18  C   UNL     1      -9.427  19.095  67.435  1.00  0.00    -0.362 C  
HETATM   19  C   UNL     1      -7.897  19.004  67.314  1.00  0.00    -0.263 C  
HETATM   20  C   UNL     1      -9.851  18.562  68.810  1.00  0.00    -0.411 C  
HETATM   21  C   UNL     1      -9.854  20.560  67.279  1.00  0.00    -0.581 C  
ENDBRANCH  16  18
ENDBRANCH  15  16
ENDBRANCH  14  15
ENDBRANCH  13  14
ENDBRANCH  11  13
ENDBRANCH   4  11
BRANCH  10  22
HETATM   22  N   UNL     1      -9.396  10.921  69.160  1.00  0.00    -0.378 N  
HETATM   23  C   UNL     1      -9.576   9.900  70.067  1.00  0.00    -0.214 C  
HETATM   24  O   UNL     1     -10.564   9.834  70.799  1.00  0.00    -0.304 OA 
HETATM   25  H   UNL     1      -8.599  10.885  68.523  1.00  0.00     0.000 HD 
BRANCH  23  26
HETATM   26  C   UNL     1      -8.445   8.846  70.075  1.00  0.00    -0.139 C  
HETATM   27  N   UNL     1      -7.495   9.114  68.961  1.00  0.00    -0.073 NA 
HETATM   28  H2  UNL     1      -7.131  10.067  68.989  1.00  0.00     0.000 HD 
HETATM   29  H1  UNL     1      -6.749   8.419  68.967  1.00  0.00     0.000 HD 
BRANCH  26  30
HETATM   30  C   UNL     1      -9.001   7.434  70.033  1.00  0.00    -0.144 A  
HETATM   31  C   UNL     1      -8.963   6.641  71.192  1.00  0.00    -0.145 A  
HETATM   32  C   UNL     1      -9.456   5.336  71.181  1.00  0.00    -0.206 A  
HETATM   33  C   UNL     1     -10.002   4.806  70.014  1.00  0.00    -0.314 A  
HETATM   34  C   UNL     1     -10.070   5.586  68.864  1.00  0.00    -0.266 A  
HETATM   35  C   UNL     1      -9.581   6.894  68.874  1.00  0.00    -0.139 A  
ENDBRANCH  26  30
ENDBRANCH  23  26
ENDBRANCH  10  22
TORSDOF 9
ENDMDL
