MODEL      126
REMARK 921   NORMALIZED FREE ENERGY PREDICTED BY IDOCK:   -4.25 KCAL/MOL
REMARK 922        TOTAL FREE ENERGY PREDICTED BY IDOCK:   -6.36 KCAL/MOL
REMARK 923 INTER-LIGAND FREE ENERGY PREDICTED BY IDOCK:   -7.29 KCAL/MOL
REMARK 924 INTRA-LIGAND FREE ENERGY PREDICTED BY IDOCK:    0.92 KCAL/MOL
REMARK 927      BINDING AFFINITY PREDICTED BY RF-SCORE:    0.00 PKD
ROOT
HETATM    1  C   UNL     1     -10.319  13.896  67.500  1.00  0.00    -0.245 C  
HETATM    2  C   UNL     1     -11.763  14.396  67.810  1.00  0.00    -0.376 C  
HETATM    3  C   UNL     1      -9.453  15.167  67.599  1.00  0.00    -0.201 C  
HETATM    4  C   UNL     1     -10.123  16.019  68.653  1.00  0.00    -0.220 C  
HETATM    5  O   UNL     1     -10.402  18.424  68.526  1.00  0.00    -0.365 OA 
HETATM    6  O   UNL     1      -8.095  14.957  67.967  1.00  0.00    -0.125 OA 
HETATM    7  O   UNL     1      -8.312  17.572  68.618  1.00  0.00    -0.272 OA 
HETATM    8  C   UNL     1      -9.661  17.454  68.568  1.00  0.00    -0.298 C  
HETATM    9  H   UNL     1      -7.561  15.741  68.028  1.00  0.00     0.000 HD 
HETATM   10  C   UNL     1     -11.593  15.843  68.313  1.00  0.00    -0.274 C  
ENDROOT
BRANCH   1  11
HETATM   11  C   UNL     1      -9.797  12.635  68.293  1.00  0.00    -0.227 C  
HETATM   12  C   UNL     1      -9.109  10.123  68.477  1.00  0.00    -0.134 C  
HETATM   13  C   UNL     1      -8.303  10.057  65.595  1.00  0.00    -0.148 C  
HETATM   14  C   UNL     1      -8.555  11.368  66.333  1.00  0.00    -0.174 C  
HETATM   15  C   UNL     1      -9.545  11.277  67.520  1.00  0.00    -0.181 C  
HETATM   16  C   UNL     1      -7.776  10.337  69.184  1.00  0.00    -0.119 C  
BRANCH  11  17
HETATM   17  N   UNL     1     -10.737  12.364  69.420  1.00  0.00    -0.436 N  
HETATM   18  H   UNL     1     -10.532  12.795  70.322  1.00  0.00     0.000 HD 
HETATM   19  O   UNL     1     -12.205  11.001  68.305  1.00  0.00    -0.582 OA 
HETATM   20  C   UNL     1     -12.617  11.419  70.630  1.00  0.00    -0.360 C  
HETATM   21  C   UNL     1     -11.861  11.574  69.331  1.00  0.00    -0.350 C  
ENDBRANCH  11  17
ENDBRANCH   1  11
BRANCH   2  22
HETATM   22  N   UNL     1     -12.631  14.361  66.621  1.00  0.00    -0.455 NA 
HETATM   23  H   UNL     1     -13.430  14.994  66.580  1.00  0.00     0.000 HD 
HETATM   24  C   UNL     1     -12.411  13.516  65.574  1.00  0.00    -0.481 C  
HETATM   25  N   UNL     1     -11.959  12.283  65.849  1.00  0.00    -0.597 NA 
HETATM   26  N   UNL     1     -12.624  13.818  64.346  1.00  0.00    -0.666 NA 
HETATM   27  H1  UNL     1     -11.794  11.652  65.065  1.00  0.00     0.000 HD 
HETATM   28  H2  UNL     1     -11.787  11.988  66.810  1.00  0.00     0.000 HD 
HETATM   29  H1  UNL     1     -12.458  13.187  63.562  1.00  0.00     0.000 HD 
HETATM   30  H2  UNL     1     -12.981  14.751  64.140  1.00  0.00     0.000 HD 
ENDBRANCH   2  22
TORSDOF 3
ENDMDL
