MODEL       30
REMARK 921   NORMALIZED FREE ENERGY PREDICTED BY IDOCK:   -6.35 KCAL/MOL
REMARK 922        TOTAL FREE ENERGY PREDICTED BY IDOCK:  -11.39 KCAL/MOL
REMARK 923 INTER-LIGAND FREE ENERGY PREDICTED BY IDOCK:   -9.28 KCAL/MOL
REMARK 924 INTRA-LIGAND FREE ENERGY PREDICTED BY IDOCK:   -2.12 KCAL/MOL
REMARK 927      BINDING AFFINITY PREDICTED BY RF-SCORE:    0.00 PKD
ROOT
HETATM    1 CU   UNL     1     -10.669  13.055  69.121  1.00  0.00    -0.216 Cu 
HETATM    2  O   UNL     2      -9.620  18.389  66.575  1.00  0.00    -0.307 OA 
HETATM    3  C   UNL     2      -8.724  17.353  66.150  1.00  0.00    -0.147 C  
HETATM    4  H   UNL     2      -9.250  19.215  66.286  1.00  0.00     0.000 HD 
HETATM    5  O   UNL     3      -8.637   7.047  72.749  1.00  0.00    -0.115 OA 
HETATM    6  H   UNL     3      -7.761   7.375  72.917  1.00  0.00     0.000 HD 
HETATM    7  C   UNL     3      -9.474   8.156  72.363  1.00  0.00    -0.251 C  
ENDROOT
BRANCH   3   8
HETATM    8  C   UNL     2      -9.319  16.026  66.614  1.00  0.00    -0.243 C  
HETATM    9  O   UNL     2      -9.386  16.002  68.053  1.00  0.00    -0.200 OA 
HETATM   10  H   UNL     2      -9.756  15.175  68.341  1.00  0.00     0.000 HD 
BRANCH   8  11
HETATM   11  C   UNL     2     -10.703  15.756  65.989  1.00  0.00    -0.306 C  
HETATM   12  O   UNL     2     -10.686  16.314  64.672  1.00  0.00    -0.782 OA 
HETATM   13  H   UNL     2     -11.538  16.148  64.287  1.00  0.00     0.000 HD 
BRANCH  11  14
HETATM   14  C   UNL     2     -10.939  14.233  65.949  1.00  0.00    -0.304 C  
HETATM   15  H   UNL     2     -10.350  12.680  67.024  1.00  0.00     0.000 HD 
HETATM   16  O   UNL     2     -10.205  13.618  67.049  1.00  0.00    -0.246 OA 
BRANCH  14  17
HETATM   17  C   UNL     2     -10.657  13.518  64.627  1.00  0.00    -0.427 C  
HETATM   18  C   UNL     2     -11.989  13.286  63.870  1.00  0.00    -0.483 C  
HETATM   19  H   UNL     2      -9.714  11.889  64.051  1.00  0.00     0.000 HD 
HETATM   20  O   UNL     2      -9.889  12.333  64.873  1.00  0.00    -0.219 OA 
HETATM   21  O   UNL     2     -12.682  14.353  63.820  1.00  0.00    -0.785 OA 
HETATM   22  O   UNL     2     -12.163  12.143  63.403  1.00  0.00    -0.528 OA 
ENDBRANCH  14  17
ENDBRANCH  11  14
ENDBRANCH   8  11
ENDBRANCH   3   8
BRANCH   7  23
HETATM   23  C   UNL     3     -10.889   7.628  72.092  1.00  0.00    -0.247 C  
HETATM   24  O   UNL     3     -11.749   8.077  73.159  1.00  0.00    -0.592 OA 
HETATM   25  H   UNL     3     -12.625   7.750  72.991  1.00  0.00     0.000 HD 
BRANCH  23  26
HETATM   26  C   UNL     3     -11.575   8.112  70.800  1.00  0.00    -0.238 C  
HETATM   27  O   UNL     3     -12.323   7.065  70.179  1.00  0.00    -0.618 OA 
HETATM   28  H   UNL     3     -12.746   7.364  69.382  1.00  0.00     0.000 HD 
BRANCH  26  29
HETATM   29  C   UNL     3     -12.454   9.380  70.862  1.00  0.00    -0.166 C  
HETATM   30  O   UNL     3     -13.858   9.080  70.810  1.00  0.00    -0.520 OA 
HETATM   31  H   UNL     3     -14.399   9.860  70.848  1.00  0.00     0.000 HD 
BRANCH  29  32
HETATM   32  C   UNL     3     -12.172  10.469  69.832  1.00  0.00    -0.218 C  
HETATM   33  C   UNL     3     -10.976  10.173  68.910  1.00  0.00    -0.223 C  
HETATM   34  O   UNL     3     -11.865  11.742  70.549  1.00  0.00    -0.461 OA 
HETATM   35  O   UNL     3      -9.873  10.695  69.360  1.00  0.00    -0.210 OA 
HETATM   36  O   UNL     3     -11.233   9.842  67.736  1.00  0.00    -0.225 OA 
HETATM   37  H   UNL     3     -11.689  12.421  69.907  1.00  0.00     0.000 HD 
ENDBRANCH  29  32
ENDBRANCH  26  29
ENDBRANCH  23  26
ENDBRANCH   7  23
TORSDOF 8
ENDMDL
