MODEL        9
REMARK 921   NORMALIZED FREE ENERGY PREDICTED BY IDOCK:   -7.48 KCAL/MOL
REMARK 922        TOTAL FREE ENERGY PREDICTED BY IDOCK:  -12.60 KCAL/MOL
REMARK 923 INTER-LIGAND FREE ENERGY PREDICTED BY IDOCK:  -11.25 KCAL/MOL
REMARK 924 INTRA-LIGAND FREE ENERGY PREDICTED BY IDOCK:   -1.35 KCAL/MOL
REMARK 927      BINDING AFFINITY PREDICTED BY RF-SCORE:    0.00 PKD
ROOT
HETATM    1  C   UNL     1     -11.611  14.551  64.544  1.00  0.00    -0.385 C  
HETATM    2  C   UNL     1     -11.573  13.034  64.361  1.00  0.00    -0.418 C  
HETATM    3  C   UNL     1     -12.396  12.321  65.429  1.00  0.00    -0.092 C  
HETATM    4  N   UNL     1     -11.451  12.000  66.504  1.00  0.00    -0.418 NA 
HETATM    5  C   UNL     1      -9.881  10.267  65.775  1.00  0.00    -0.320 C  
HETATM    6  C   UNL     1     -10.086  11.788  65.898  1.00  0.00    -0.234 C  
HETATM    7  C   UNL     1     -10.167  12.456  64.497  1.00  0.00    -0.325 C  
HETATM    8  C   UNL     1      -8.829  12.338  66.580  1.00  0.00    -0.167 C  
ENDROOT
BRANCH   4   9
HETATM    9  C   UNL     1     -11.712  12.392  67.806  1.00  0.00    -0.350 A  
HETATM   10  N   UNL     1     -12.002  11.361  68.665  1.00  0.00    -0.517 NA 
HETATM   11  C   UNL     1     -12.229  11.537  69.998  1.00  0.00    -0.278 A  
HETATM   12  C   UNL     1     -12.177  12.793  70.554  1.00  0.00    -0.389 A  
HETATM   13  C   UNL     1     -11.663  13.712  68.312  1.00  0.00    -0.398 A  
HETATM   14  C   UNL     1     -11.885  13.870  69.707  1.00  0.00    -0.390 A  
BRANCH  11  15
HETATM   15  N   UNL     1     -12.509  10.380  70.826  1.00  0.00    -0.341 NA 
HETATM   16  C   UNL     1     -13.360  10.357  71.923  1.00  0.00    -0.364 A  
HETATM   17  C   UNL     1     -13.334   9.089  72.442  1.00  0.00    -0.516 A  
HETATM   18  N   UNL     1     -11.962   9.133  70.611  1.00  0.00    -0.189 NA 
HETATM   19  C   UNL     1     -12.461   8.391  71.607  1.00  0.00    -0.328 A  
BRANCH  19  20
HETATM   20  O   UNL     1     -12.153   7.088  71.790  1.00  0.00    -0.303 OA 
BRANCH  20  21
HETATM   21  C   UNL     1     -11.081   6.806  72.688  1.00  0.00    -0.265 C  
BRANCH  21  22
HETATM   22  C   UNL     1      -9.896   6.176  71.906  1.00  0.00    -0.176 C  
HETATM   23  F   UNL     1      -8.659   7.475  70.310  1.00  0.00    -0.135 F  
HETATM   24  F   UNL     1      -9.184   8.455  72.175  1.00  0.00    -0.212 F  
HETATM   25  C   UNL     1     -10.393   5.576  70.574  1.00  0.00    -0.342 C  
HETATM   26  C   UNL     1      -9.269   5.025  72.721  1.00  0.00    -0.144 C  
HETATM   27  C   UNL     1      -8.841   7.264  71.634  1.00  0.00    -0.117 C  
HETATM   28  F   UNL     1      -7.631   6.939  72.145  1.00  0.00    -0.088 F  
ENDBRANCH  21  22
ENDBRANCH  20  21
ENDBRANCH  19  20
ENDBRANCH  11  15
BRANCH  13  29
HETATM   29  C   UNL     1     -11.379  15.032  67.612  1.00  0.00    -0.334 C  
HETATM   30  H   UNL     1      -9.327  14.973  67.964  1.00  0.00     0.000 HD 
HETATM   31  N   UNL     1     -10.076  15.567  67.611  1.00  0.00    -0.241 N  
HETATM   32  O   UNL     1     -12.279  15.562  66.974  1.00  0.00     0.457 OA 
BRANCH  31  33
HETATM   33  S   UNL     1      -9.650  17.120  67.070  1.00  0.00    -0.269 S  
HETATM   34  O   UNL     1      -9.444  17.044  65.646  1.00  0.00    -0.526 OA 
HETATM   35  O   UNL     1     -10.686  17.980  67.607  1.00  0.00    -0.415 OA 
BRANCH  33  36
HETATM   36  C   UNL     1      -8.173  17.808  67.688  1.00  0.00    -0.230 A  
HETATM   37  C   UNL     1      -8.047  19.006  68.378  1.00  0.00    -0.346 A  
HETATM   38  N   UNL     1      -6.746  19.100  68.773  1.00  0.00    -0.283 NA 
HETATM   39  N   UNL     1      -6.006  18.046  68.416  1.00  0.00    -0.173 NA 
HETATM   40  C   UNL     1      -6.098  20.132  69.546  1.00  0.00    -0.340 C  
HETATM   41  C   UNL     1      -6.869  17.213  67.815  1.00  0.00    -0.152 A  
HETATM   42  C   UNL     1      -6.314  15.867  67.497  1.00  0.00    -0.198 C  
ENDBRANCH  33  36
ENDBRANCH  31  33
ENDBRANCH  13  29
ENDBRANCH   4   9
TORSDOF 8
ENDMDL
