MODEL      165
REMARK 921   NORMALIZED FREE ENERGY PREDICTED BY IDOCK:   -4.40 KCAL/MOL
REMARK 922        TOTAL FREE ENERGY PREDICTED BY IDOCK:   -9.53 KCAL/MOL
REMARK 923 INTER-LIGAND FREE ENERGY PREDICTED BY IDOCK:   -8.35 KCAL/MOL
REMARK 924 INTRA-LIGAND FREE ENERGY PREDICTED BY IDOCK:   -1.18 KCAL/MOL
REMARK 927      BINDING AFFINITY PREDICTED BY RF-SCORE:    0.00 PKD
ROOT
HETATM    1  N   UNL     1     -13.126  13.735  65.318  1.00  0.00    -0.744 NA 
HETATM    2  C   UNL     1     -11.893  14.361  64.832  1.00  0.00    -0.417 C  
HETATM    3  H1  UNL     1     -13.883  13.673  64.639  1.00  0.00     0.000 HD 
HETATM    4  H2  UNL     1     -13.450  14.209  66.160  1.00  0.00     0.000 HD 
ENDROOT
BRANCH   2   5
HETATM    5  C   UNL     1     -10.740  14.455  65.866  1.00  0.00    -0.306 C  
HETATM    6  O   UNL     1     -10.502  13.221  66.590  1.00  0.00    -0.273 OA 
HETATM    7  C   UNL     1      -9.344  13.348  67.434  1.00  0.00    -0.221 C  
HETATM    8  C   UNL     1      -9.578  14.445  68.522  1.00  0.00    -0.217 C  
HETATM    9  O   UNL     1     -12.337  15.285  67.511  1.00  0.00    -0.178 OA 
HETATM   10  H   UNL     1     -12.554  15.981  68.121  1.00  0.00     0.000 HD 
HETATM   11  N   UNL     1     -10.628  13.999  69.497  1.00  0.00    -0.444 NA 
HETATM   12  C   UNL     1      -9.959  15.776  67.875  1.00  0.00    -0.227 C  
HETATM   13  H2  UNL     1     -10.402  13.095  69.912  1.00  0.00     0.000 HD 
HETATM   14  O   UNL     1      -8.832  16.419  67.264  1.00  0.00    -0.183 OA 
HETATM   15  C   UNL     1     -11.094  15.590  66.860  1.00  0.00    -0.221 C  
HETATM   16  H1  UNL     1     -10.781  14.715  70.207  1.00  0.00     0.000 HD 
HETATM   17  H   UNL     1      -9.068  17.246  66.862  1.00  0.00     0.000 HD 
BRANCH   7  18
HETATM   18  O   UNL     1      -9.079  12.202  68.224  1.00  0.00    -0.193 OA 
BRANCH  18  19
HETATM   19  C   UNL     1      -9.893  11.043  68.105  1.00  0.00    -0.176 C  
HETATM   20  O   UNL     1      -7.847   9.966  67.205  1.00  0.00    -0.101 OA 
HETATM   21  C   UNL     1     -10.211  10.734  69.573  1.00  0.00    -0.113 C  
HETATM   22  C   UNL     1      -9.282   8.779  68.792  1.00  0.00    -0.141 C  
HETATM   23  H   UNL     1      -7.430   9.172  66.891  1.00  0.00     0.000 HD 
HETATM   24  O   UNL     1      -9.397   9.609  69.948  1.00  0.00    -0.199 OA 
HETATM   25  C   UNL     1      -9.216   9.754  67.595  1.00  0.00    -0.130 C  
BRANCH  21  26
HETATM   26  C   UNL     1     -11.696  10.484  69.849  1.00  0.00    -0.294 C  
HETATM   27  H   UNL     1     -12.888  10.162  71.405  1.00  0.00     0.000 HD 
HETATM   28  O   UNL     1     -11.967  10.317  71.234  1.00  0.00    -0.364 OA 
ENDBRANCH  21  26
BRANCH  22  29
HETATM   29  O   UNL     1     -10.401   7.887  68.702  1.00  0.00    -0.203 OA 
BRANCH  29  30
HETATM   30  C   UNL     1     -10.520   6.848  69.732  1.00  0.00    -0.217 C  
HETATM   31  C   UNL     1     -11.559   7.259  70.808  1.00  0.00    -0.302 C  
HETATM   32  O   UNL     1     -12.860   6.773  70.409  1.00  0.00    -0.440 OA 
HETATM   33  C   UNL     1     -11.338   6.808  72.261  1.00  0.00    -0.273 C  
HETATM   34  C   UNL     1      -9.881   6.581  72.620  1.00  0.00    -0.179 C  
HETATM   35  N   UNL     1     -11.897   7.823  73.191  1.00  0.00    -0.634 NA 
HETATM   36  H   UNL     1     -13.496   7.025  71.068  1.00  0.00     0.000 HD 
HETATM   37  H1  UNL     1     -11.750   7.524  74.155  1.00  0.00     0.000 HD 
HETATM   38  H2  UNL     1     -12.877   8.024  72.996  1.00  0.00     0.000 HD 
HETATM   39  C   UNL     1      -9.231   5.639  71.609  1.00  0.00    -0.142 C  
HETATM   40  C   UNL     1      -9.139   6.333  70.226  1.00  0.00    -0.154 C  
HETATM   41  N   UNL     1      -7.894   5.256  72.113  1.00  0.00    -0.103 NA 
HETATM   42  H2  UNL     1      -7.930   4.859  73.052  1.00  0.00     0.000 HD 
HETATM   43  H1  UNL     1      -7.461   4.627  71.438  1.00  0.00     0.000 HD 
BRANCH  40  44
HETATM   44  O   UNL     1      -8.560   5.374  69.307  1.00  0.00    -0.101 OA 
BRANCH  44  45
HETATM   45  C   UNL     1      -7.143   5.208  69.403  1.00  0.00    -0.056 C  
HETATM   46  O   UNL     1      -6.797   3.996  70.078  1.00  0.00    -0.033 OA 
HETATM   47  C   UNL     1      -7.200   2.813  69.372  1.00  0.00    -0.044 C  
HETATM   48  C   UNL     1      -6.581   2.753  67.967  1.00  0.00    -0.036 C  
HETATM   49  H1  UNL     1      -6.423   6.551  66.318  1.00  0.00     0.000 HD 
HETATM   50  O   UNL     1      -7.016   1.603  67.229  1.00  0.00    -0.037 OA 
HETATM   51  H2  UNL     1      -6.579   7.334  67.795  1.00  0.00     0.000 HD 
HETATM   52  C   UNL     1      -6.942   4.025  67.184  1.00  0.00    -0.062 C  
HETATM   53  H   UNL     1      -6.633   1.566  66.360  1.00  0.00     0.000 HD 
HETATM   54  O   UNL     1      -6.279   4.012  65.908  1.00  0.00    -0.030 OA 
HETATM   55  C   UNL     1      -6.512   5.267  67.985  1.00  0.00    -0.048 C  
HETATM   56  N   UNL     1      -6.838   6.512  67.249  1.00  0.00    -0.067 NA 
HETATM   57  H   UNL     1      -6.503   4.798  65.424  1.00  0.00     0.000 HD 
BRANCH  47  58
HETATM   58  C   UNL     1      -6.855   1.586  70.245  1.00  0.00    -0.032 C  
HETATM   59  H1  UNL     1      -6.126   1.097  72.162  1.00  0.00     0.000 HD 
HETATM   60  N   UNL     1      -6.354   1.909  71.586  1.00  0.00    -0.014 NA 
HETATM   61  H2  UNL     1      -7.014   2.516  72.073  1.00  0.00     0.000 HD 
ENDBRANCH  47  58
ENDBRANCH  44  45
ENDBRANCH  40  44
ENDBRANCH  29  30
ENDBRANCH  22  29
ENDBRANCH  18  19
ENDBRANCH   7  18
ENDBRANCH   2   5
TORSDOF 9
ENDMDL
