MODEL      216
REMARK 921   NORMALIZED FREE ENERGY PREDICTED BY IDOCK:   -3.50 KCAL/MOL
REMARK 922        TOTAL FREE ENERGY PREDICTED BY IDOCK:   -4.88 KCAL/MOL
REMARK 923 INTER-LIGAND FREE ENERGY PREDICTED BY IDOCK:   -4.40 KCAL/MOL
REMARK 924 INTRA-LIGAND FREE ENERGY PREDICTED BY IDOCK:   -0.48 KCAL/MOL
REMARK 927      BINDING AFFINITY PREDICTED BY RF-SCORE:    0.00 PKD
ROOT
HETATM    1  C   UNL     1      -9.679  16.379  66.205  1.00  0.00    -0.355 C  
HETATM    2  C   UNL     1     -10.761  15.299  66.280  1.00  0.00    -0.315 C  
HETATM    3  C   UNL     1     -10.208  13.914  65.926  1.00  0.00    -0.326 C  
HETATM    4  C   UNL     1      -9.400  13.287  67.069  1.00  0.00    -0.242 C  
HETATM    5  C   UNL     1     -10.269  13.184  68.329  1.00  0.00    -0.250 C  
HETATM    6  C   UNL     1     -11.852  14.329  69.917  1.00  0.00    -0.382 C  
HETATM    7  C   UNL     1     -10.813  14.553  68.798  1.00  0.00    -0.256 C  
HETATM    8  C   UNL     1      -9.685  15.410  69.405  1.00  0.00    -0.273 C  
HETATM    9  C   UNL     1     -11.514  15.277  67.622  1.00  0.00    -0.287 C  
ENDROOT
BRANCH   4  10
HETATM   10  O   UNL     1      -8.974  11.959  66.701  1.00  0.00    -0.191 OA 
BRANCH  10  11
HETATM   11  C   UNL     1      -7.853  11.512  67.342  1.00  0.00    -0.143 C  
HETATM   12  O   UNL     1      -7.015  12.227  67.885  1.00  0.00    -0.085 OA 
BRANCH  11  13
HETATM   13  C   UNL     1      -7.747   9.984  67.298  1.00  0.00    -0.095 C  
HETATM   14  O   UNL     1      -6.398   9.560  67.522  1.00  0.00    -0.060 OA 
HETATM   15  H   UNL     1      -6.331   8.614  67.494  1.00  0.00     0.000 HD 
BRANCH  13  16
HETATM   16  C   UNL     1      -8.618   9.306  68.333  1.00  0.00    -0.124 A  
HETATM   17  C   UNL     1      -9.191  10.058  69.371  1.00  0.00    -0.229 A  
HETATM   18  C   UNL     1     -10.030   9.451  70.308  1.00  0.00    -0.284 A  
HETATM   19  C   UNL     1     -10.308   8.089  70.217  1.00  0.00    -0.212 A  
HETATM   20  C   UNL     1      -9.746   7.330  69.195  1.00  0.00    -0.160 A  
HETATM   21  C   UNL     1      -8.905   7.933  68.257  1.00  0.00    -0.129 A  
ENDBRANCH  13  16
ENDBRANCH  11  13
ENDBRANCH  10  11
ENDBRANCH   4  10
TORSDOF 4
ENDMDL
