MODEL        2
REMARK 921   NORMALIZED FREE ENERGY PREDICTED BY IDOCK:   -8.81 KCAL/MOL
REMARK 922        TOTAL FREE ENERGY PREDICTED BY IDOCK:  -14.56 KCAL/MOL
REMARK 923 INTER-LIGAND FREE ENERGY PREDICTED BY IDOCK:  -12.50 KCAL/MOL
REMARK 924 INTRA-LIGAND FREE ENERGY PREDICTED BY IDOCK:   -2.06 KCAL/MOL
REMARK 927      BINDING AFFINITY PREDICTED BY RF-SCORE:    0.00 PKD
ROOT
HETATM    1  C   UNL     1     -10.185   9.688  66.583  1.00  0.00    -0.302 C  
HETATM    2  C   UNL     1      -9.556  10.840  65.798  1.00  0.00    -0.254 C  
HETATM    3  C   UNL     1      -9.206  12.012  66.709  1.00  0.00    -0.201 C  
HETATM    4  N   UNL     1     -10.371  12.903  66.669  1.00  0.00    -0.248 NA 
HETATM    5  C   UNL     1     -10.565  13.961  64.468  1.00  0.00    -0.375 C  
HETATM    6  C   UNL     1     -11.034  12.767  65.322  1.00  0.00    -0.284 C  
HETATM    7  C   UNL     1     -10.499  11.426  64.749  1.00  0.00    -0.366 C  
HETATM    8  C   UNL     1     -12.561  12.725  65.199  1.00  0.00    -0.513 C  
ENDROOT
BRANCH   4   9
HETATM    9  C   UNL     1     -10.985  13.305  67.843  1.00  0.00    -0.249 A  
HETATM   10  N   UNL     1     -11.452  12.277  68.624  1.00  0.00    -0.281 NA 
HETATM   11  C   UNL     1     -12.033  12.465  69.843  1.00  0.00    -0.299 A  
HETATM   12  C   UNL     1     -12.182  13.731  70.357  1.00  0.00    -0.433 A  
HETATM   13  C   UNL     1     -11.128  14.634  68.305  1.00  0.00    -0.283 A  
HETATM   14  C   UNL     1     -11.719  14.807  69.586  1.00  0.00    -0.354 A  
BRANCH  11  15
HETATM   15  N   UNL     1     -12.476  11.311  70.600  1.00  0.00    -0.352 NA 
HETATM   16  C   UNL     1     -13.174  11.349  71.800  1.00  0.00    -0.367 A  
HETATM   17  C   UNL     1     -13.383  10.056  72.201  1.00  0.00    -0.469 A  
HETATM   18  N   UNL     1     -12.264  10.007  70.205  1.00  0.00    -0.115 NA 
HETATM   19  C   UNL     1     -12.802   9.283  71.195  1.00  0.00    -0.222 A  
BRANCH  19  20
HETATM   20  O   UNL     1     -12.787   7.932  71.221  1.00  0.00    -0.297 OA 
BRANCH  20  21
HETATM   21  C   UNL     1     -11.768   7.320  72.009  1.00  0.00    -0.292 C  
BRANCH  21  22
HETATM   22  C   UNL     1     -10.689   6.699  71.079  1.00  0.00    -0.278 C  
HETATM   23  F   UNL     1      -9.333   8.100  69.678  1.00  0.00    -0.155 F  
HETATM   24  F   UNL     1      -9.687   8.791  71.705  1.00  0.00    -0.256 F  
HETATM   25  C   UNL     1     -11.288   6.409  69.687  1.00  0.00    -0.479 C  
HETATM   26  C   UNL     1     -10.197   5.354  71.655  1.00  0.00    -0.268 C  
HETATM   27  C   UNL     1      -9.511   7.682  70.953  1.00  0.00    -0.164 C  
HETATM   28  F   UNL     1      -8.341   7.127  71.346  1.00  0.00    -0.109 F  
ENDBRANCH  21  22
ENDBRANCH  20  21
ENDBRANCH  19  20
ENDBRANCH  11  15
BRANCH  13  29
HETATM   29  C   UNL     1     -10.722  15.954  67.668  1.00  0.00    -0.312 C  
HETATM   30  H   UNL     1      -9.847  16.717  69.398  1.00  0.00     0.000 HD 
HETATM   31  N   UNL     1     -10.121  16.962  68.447  1.00  0.00    -0.286 N  
HETATM   32  O   UNL     1     -10.838  16.079  66.456  1.00  0.00    -0.276 OA 
BRANCH  31  33
HETATM   33  S   UNL     1      -9.818  18.553  67.935  1.00  0.00    -0.343 S  
HETATM   34  O   UNL     1     -11.029  19.059  67.341  1.00  0.00    -0.459 OA 
HETATM   35  O   UNL     1      -9.258  19.202  69.104  1.00  0.00    -0.280 OA 
BRANCH  33  36
HETATM   36  C   UNL     1      -8.602  18.782  66.707  1.00  0.00    -0.292 A  
HETATM   37  C   UNL     1      -8.256  19.983  66.102  1.00  0.00    -0.272 A  
HETATM   38  N   UNL     1      -7.189  19.727  65.294  1.00  0.00    -0.386 NA 
HETATM   39  N   UNL     1      -6.788  18.453  65.335  1.00  0.00    -0.524 NA 
HETATM   40  C   UNL     1      -6.429  20.635  64.469  1.00  0.00    -0.280 C  
HETATM   41  C   UNL     1      -7.589  17.873  66.241  1.00  0.00    -0.280 A  
HETATM   42  C   UNL     1      -7.206  16.480  66.607  1.00  0.00    -0.246 C  
ENDBRANCH  33  36
ENDBRANCH  31  33
ENDBRANCH  13  29
ENDBRANCH   4   9
TORSDOF 8
ENDMDL
