MODEL       43
REMARK 921   NORMALIZED FREE ENERGY PREDICTED BY IDOCK:   -5.61 KCAL/MOL
REMARK 922        TOTAL FREE ENERGY PREDICTED BY IDOCK:   -8.84 KCAL/MOL
REMARK 923 INTER-LIGAND FREE ENERGY PREDICTED BY IDOCK:   -7.63 KCAL/MOL
REMARK 924 INTRA-LIGAND FREE ENERGY PREDICTED BY IDOCK:   -1.21 KCAL/MOL
REMARK 927      BINDING AFFINITY PREDICTED BY RF-SCORE:    0.00 PKD
ROOT
HETATM    1  C   UNL     1     -11.166  12.213  69.716  1.00  0.00     0.002 C  
HETATM    2  O   UNL     1     -12.081  12.731  70.686  1.00  0.00    -0.353 OA 
HETATM    3  O   UNL     1     -13.509  13.581  72.664  1.00  0.00    -0.561 OA 
HETATM    4  C   UNL     1     -13.368  14.529  71.710  1.00  0.00    -0.363 C  
HETATM    5  C   UNL     1     -10.617  13.191  68.627  1.00  0.00    -0.239 C  
HETATM    6  C   UNL     1     -12.566  14.005  70.563  1.00  0.00    -0.329 C  
HETATM    7  C   UNL     1     -11.563  14.387  68.328  1.00  0.00    -0.328 C  
HETATM    8  C   UNL     1     -12.368  14.790  69.503  1.00  0.00    -0.214 C  
HETATM    9  O   UNL     1     -13.806  15.665  71.804  1.00  0.00    -0.474 OA 
ENDROOT
BRANCH   1  10
HETATM   10  C   UNL     1     -11.724  10.917  69.062  1.00  0.00    -0.320 C  
HETATM   11  O   UNL     1     -12.708  10.282  69.898  1.00  0.00    -0.563 OA 
HETATM   12  H   UNL     1     -13.049   9.491  69.498  1.00  0.00     0.000 HD 
BRANCH  10  13
HETATM   13  C   UNL     1     -10.654   9.858  68.675  1.00  0.00    -0.217 C  
HETATM   14  H   UNL     1     -10.368   8.519  67.233  1.00  0.00     0.000 HD 
HETATM   15  O   UNL     1     -11.022   9.166  67.469  1.00  0.00    -0.176 OA 
BRANCH  13  16
HETATM   16  C   UNL     1     -10.408   8.814  69.780  1.00  0.00    -0.211 C  
HETATM   17  O   UNL     1     -11.416   7.797  69.791  1.00  0.00    -0.456 OA 
HETATM   18  H   UNL     1     -11.264   7.152  70.472  1.00  0.00     0.000 HD 
ENDBRANCH  13  16
ENDBRANCH  10  13
ENDBRANCH   1  10
BRANCH   7  19
HETATM   19  N   UNL     1     -12.466  14.029  67.229  1.00  0.00    -0.501 NA 
HETATM   20  H2  UNL     1     -10.337  15.152  66.204  1.00  0.00     0.000 HD 
HETATM   21  H   UNL     1     -13.372  13.604  67.427  1.00  0.00     0.000 HD 
HETATM   22  C   UNL     1     -12.112  14.252  66.017  1.00  0.00    -0.408 C  
HETATM   23  H1  UNL     1     -12.644  14.073  64.036  1.00  0.00     0.000 HD 
HETATM   24  N   UNL     1     -11.008  14.834  65.504  1.00  0.00    -0.329 NA 
HETATM   25  H2  UNL     1     -13.821  13.448  65.195  1.00  0.00     0.000 HD 
HETATM   26  N   UNL     1     -12.926  13.895  65.000  1.00  0.00    -0.752 NA 
HETATM   27  H1  UNL     1     -10.726  15.012  64.540  1.00  0.00     0.000 HD 
ENDBRANCH   7  19
BRANCH   5  28
HETATM   28  N   UNL     1      -9.254  13.683  68.945  1.00  0.00    -0.392 N  
HETATM   29  C   UNL     1      -8.352  13.988  67.945  1.00  0.00    -0.168 C  
HETATM   30  H   UNL     1      -8.977  13.796  69.921  1.00  0.00     0.000 HD 
HETATM   31  C   UNL     1      -7.100  14.647  68.453  1.00  0.00    -0.116 C  
HETATM   32  O   UNL     1      -8.551  13.767  66.756  1.00  0.00    -0.160 OA 
ENDBRANCH   5  28
TORSDOF 5
ENDMDL
