MODEL       15
REMARK 921   NORMALIZED FREE ENERGY PREDICTED BY IDOCK:   -5.60 KCAL/MOL
REMARK 922        TOTAL FREE ENERGY PREDICTED BY IDOCK:  -14.21 KCAL/MOL
REMARK 923 INTER-LIGAND FREE ENERGY PREDICTED BY IDOCK:  -11.55 KCAL/MOL
REMARK 924 INTRA-LIGAND FREE ENERGY PREDICTED BY IDOCK:   -2.66 KCAL/MOL
REMARK 927      BINDING AFFINITY PREDICTED BY RF-SCORE:    0.00 PKD
ROOT
HETATM    1  C   UNL     1      -8.839   4.183  72.707  1.00  0.00    -0.111 C  
HETATM    2  C   UNL     1     -10.116   4.150  71.877  1.00  0.00    -0.224 C  
ENDROOT
BRANCH   2   3
HETATM    3  C   UNL     1      -9.986   5.076  70.668  1.00  0.00    -0.300 C  
BRANCH   3   4
HETATM    4  C   UNL     1     -10.622   6.462  70.854  1.00  0.00    -0.236 C  
BRANCH   4   5
HETATM    5  N   UNL     1     -11.554   6.665  71.992  1.00  0.00    -0.287 NA 
BRANCH   5   6
HETATM    6  C   UNL     1     -10.948   7.535  73.026  1.00  0.00    -0.390 C  
BRANCH   6   7
HETATM    7  C   UNL     1      -9.540   8.089  72.732  1.00  0.00    -0.345 C  
BRANCH   7   8
HETATM    8  C   UNL     1      -8.489   7.745  73.791  1.00  0.00    -0.289 C  
HETATM    9  C   UNL     1      -7.090   8.085  73.293  1.00  0.00    -0.136 C  
ENDBRANCH   7   8
ENDBRANCH   6   7
ENDBRANCH   5   6
BRANCH   5  10
HETATM   10  C   UNL     1     -12.822   7.252  71.489  1.00  0.00    -0.388 C  
BRANCH  10  11
HETATM   11  C   UNL     1     -13.457   8.315  72.398  1.00  0.00    -0.168 C  
BRANCH  11  12
HETATM   12  C   UNL     1     -13.657   9.629  71.652  1.00  0.00    -0.324 C  
BRANCH  12  13
HETATM   13  O   UNL     1     -12.478  10.430  71.772  1.00  0.00    -0.390 OA 
BRANCH  13  14
HETATM   14  C   UNL     1     -11.891  10.807  70.593  1.00  0.00    -0.360 A  
HETATM   15  C   UNL     1     -11.001  10.040  69.836  1.00  0.00    -0.339 A  
HETATM   16  C   UNL     1     -10.402  10.572  68.685  1.00  0.00    -0.201 A  
HETATM   17  C   UNL     1     -10.698  11.877  68.274  1.00  0.00    -0.253 A  
HETATM   18  C   UNL     1     -11.668  12.605  68.973  1.00  0.00    -0.367 A  
HETATM   19  C   UNL     1     -12.231  12.085  70.146  1.00  0.00    -0.309 A  
BRANCH  17  20
HETATM   20  C   UNL     1      -9.937  12.469  67.126  1.00  0.00    -0.216 C  
HETATM   21  O   UNL     1      -8.845  11.987  66.839  1.00  0.00    -0.186 OA 
BRANCH  20  22
HETATM   22  C   UNL     1     -10.495  13.626  66.421  1.00  0.00    -0.288 A  
HETATM   23  C   UNL     1     -11.576  13.595  65.540  1.00  0.00    -0.324 A  
HETATM   24  C   UNL     1      -8.831  17.082  66.697  1.00  0.00    -0.254 A  
HETATM   25  O   UNL     1     -11.839  14.853  65.080  1.00  0.00    -0.356 OA 
HETATM   26  C   UNL     1      -9.733  17.739  65.864  1.00  0.00    -0.035 A  
HETATM   27  C   UNL     1     -10.894  15.684  65.574  1.00  0.00    -0.346 A  
HETATM   28  C   UNL     1     -10.014  14.987  66.391  1.00  0.00    -0.295 A  
HETATM   29  C   UNL     1     -10.788  17.039  65.271  1.00  0.00    -0.079 A  
HETATM   30  C   UNL     1      -8.930  15.706  66.933  1.00  0.00    -0.267 A  
BRANCH  23  31
HETATM   31  C   UNL     1     -12.407  12.549  64.875  1.00  0.00    -0.539 C  
BRANCH  31  32
HETATM   32  C   UNL     1     -11.971  12.055  63.497  1.00  0.00    -0.605 C  
BRANCH  32  33
HETATM   33  C   UNL     1     -10.436  12.136  63.430  1.00  0.00    -0.450 C  
HETATM   34  C   UNL     1      -9.745  10.793  63.283  1.00  0.00    -0.396 C  
ENDBRANCH  32  33
ENDBRANCH  31  32
ENDBRANCH  23  31
BRANCH  24  35
HETATM   35  N   UNL     1      -7.771  17.798  67.326  1.00  0.00    -0.203 N  
HETATM   36  H   UNL     1      -6.796  17.588  67.111  1.00  0.00     0.000 HD 
BRANCH  35  37
HETATM   37  S   UNL     1      -8.175  19.004  68.436  1.00  0.00    -0.357 S  
HETATM   38  C   UNL     1      -7.949  20.471  67.453  1.00  0.00    -0.305 C  
HETATM   39  O   UNL     1      -9.565  18.886  68.812  1.00  0.00    -0.365 OA 
HETATM   40  O   UNL     1      -7.123  18.977  69.431  1.00  0.00    -0.269 OA 
ENDBRANCH  35  37
ENDBRANCH  24  35
ENDBRANCH  20  22
ENDBRANCH  17  20
ENDBRANCH  13  14
ENDBRANCH  12  13
ENDBRANCH  11  12
ENDBRANCH  10  11
ENDBRANCH   5  10
ENDBRANCH   4   5
ENDBRANCH   3   4
ENDBRANCH   2   3
TORSDOF 18
ENDMDL
