MODEL       17
REMARK 921   NORMALIZED FREE ENERGY PREDICTED BY IDOCK:   -6.97 KCAL/MOL
REMARK 922        TOTAL FREE ENERGY PREDICTED BY IDOCK:  -12.11 KCAL/MOL
REMARK 923 INTER-LIGAND FREE ENERGY PREDICTED BY IDOCK:  -10.82 KCAL/MOL
REMARK 924 INTRA-LIGAND FREE ENERGY PREDICTED BY IDOCK:   -1.29 KCAL/MOL
REMARK 927      BINDING AFFINITY PREDICTED BY RF-SCORE:    0.00 PKD
ROOT
HETATM    1  C   UNL     1     -10.227   7.224  73.580  1.00  0.00    -0.404 C  
HETATM    2  C   UNL     1     -10.478   6.113  72.559  1.00  0.00    -0.228 C  
HETATM    3  C   UNL     1     -11.420   5.062  73.143  1.00  0.00    -0.362 C  
HETATM    4  C   UNL     1     -10.972   6.670  71.210  1.00  0.00    -0.253 C  
ENDROOT
BRANCH   4   5
HETATM    5  O   UNL     1     -12.236   7.341  71.311  1.00  0.00    -0.321 OA 
BRANCH   5   6
HETATM    6  C   UNL     1     -12.168   8.713  71.266  1.00  0.00    -0.281 A  
HETATM    7  C   UNL     1     -13.019   9.581  71.957  1.00  0.00    -0.514 A  
HETATM    8  C   UNL     1     -13.025  10.959  71.664  1.00  0.00    -0.569 A  
HETATM    9  C   UNL     1     -12.157  11.486  70.701  1.00  0.00    -0.450 A  
HETATM   10  C   UNL     1     -11.190  10.631  70.146  1.00  0.00    -0.378 A  
HETATM   11  C   UNL     1     -11.198   9.258  70.425  1.00  0.00    -0.290 A  
BRANCH   9  12
HETATM   12  C   UNL     1     -12.399  12.849  70.086  1.00  0.00    -0.179 C  
BRANCH  12  13
HETATM   13  N   UNL     1     -11.297  13.783  70.150  1.00  0.00    -0.488 N  
HETATM   14  H   UNL     1     -10.419  13.522  70.598  1.00  0.00     0.000 HD 
BRANCH  13  15
HETATM   15  C   UNL     1     -11.456  15.030  69.597  1.00  0.00    -0.294 C  
HETATM   16  O   UNL     1     -12.380  15.763  69.958  1.00  0.00    -0.354 OA 
BRANCH  15  17
HETATM   17  N   UNL     1     -10.511  15.431  68.644  1.00  0.00    -0.232 N  
BRANCH  17  18
HETATM   18  C   UNL     1      -9.904  14.312  67.869  1.00  0.00    -0.226 C  
BRANCH  18  19
HETATM   19  C   UNL     1     -10.732  13.794  66.690  1.00  0.00    -0.277 A  
HETATM   20  C   UNL     1     -11.853  13.256  64.194  1.00  0.00    -0.443 A  
HETATM   21  C   UNL     1     -10.393  12.620  66.001  1.00  0.00    -0.287 A  
HETATM   22  C   UNL     1     -10.931  12.371  64.737  1.00  0.00    -0.340 A  
HETATM   23  F   UNL     1     -12.274  13.082  62.931  1.00  0.00    -0.574 F  
HETATM   24  C   UNL     1     -12.315  14.342  64.924  1.00  0.00    -0.435 A  
HETATM   25  C   UNL     1     -11.773  14.600  66.184  1.00  0.00    -0.316 A  
ENDBRANCH  18  19
ENDBRANCH  17  18
BRANCH  17  26
HETATM   26  C   UNL     1      -9.932  16.820  68.526  1.00  0.00    -0.271 C  
HETATM   27  C   UNL     1      -8.470  16.916  68.051  1.00  0.00    -0.213 C  
HETATM   28  C   UNL     1     -10.778  17.864  67.731  1.00  0.00    -0.339 C  
HETATM   29  C   UNL     1      -8.327  19.350  66.397  1.00  0.00    -0.331 C  
HETATM   30  C   UNL     1      -8.348  16.928  66.536  1.00  0.00    -0.280 C  
HETATM   31  N   UNL     1      -8.977  18.113  65.964  1.00  0.00    -0.511 NA 
HETATM   32  C   UNL     1     -10.408  18.087  66.259  1.00  0.00    -0.382 C  
ENDBRANCH  17  26
ENDBRANCH  15  17
ENDBRANCH  13  15
ENDBRANCH  12  13
ENDBRANCH   9  12
ENDBRANCH   5   6
ENDBRANCH   4   5
TORSDOF 9
ENDMDL
