MODEL       39
REMARK 921   NORMALIZED FREE ENERGY PREDICTED BY IDOCK:   -6.56 KCAL/MOL
REMARK 922        TOTAL FREE ENERGY PREDICTED BY IDOCK:   -9.47 KCAL/MOL
REMARK 923 INTER-LIGAND FREE ENERGY PREDICTED BY IDOCK:   -7.69 KCAL/MOL
REMARK 924 INTRA-LIGAND FREE ENERGY PREDICTED BY IDOCK:   -1.78 KCAL/MOL
REMARK 927      BINDING AFFINITY PREDICTED BY RF-SCORE:    0.00 PKD
ROOT
HETATM    1  C   UNL     1      -8.857   9.954  62.756  1.00  0.00    -0.242 C  
HETATM    2  C   UNL     1      -9.877  10.343  63.835  1.00  0.00    -0.267 C  
ENDROOT
BRANCH   2   3
HETATM    3  C   UNL     1      -9.167  11.258  64.868  1.00  0.00    -0.130 C  
BRANCH   3   4
HETATM    4  C   UNL     1      -9.697  11.158  66.280  1.00  0.00    -0.244 A  
HETATM    5  C   UNL     1     -11.024   9.981  67.941  1.00  0.00    -0.311 A  
HETATM    6  H   UNL     1     -11.684  10.020  70.393  1.00  0.00     0.000 HD 
HETATM    7  C   UNL     1      -9.347  12.105  67.253  1.00  0.00    -0.183 A  
HETATM    8  C   UNL     1     -10.546  10.099  66.636  1.00  0.00    -0.214 A  
HETATM    9  C   UNL     1      -9.827  11.988  68.561  1.00  0.00    -0.177 A  
HETATM   10  O   UNL     1     -11.120  10.750  70.165  1.00  0.00    -0.281 OA 
HETATM   11  C   UNL     1     -10.654  10.919  68.895  1.00  0.00    -0.210 A  
ENDBRANCH   3   4
ENDBRANCH   2   3
BRANCH   2  12
HETATM   12  N   UNL     1     -11.058  11.007  63.260  1.00  0.00    -0.714 NA 
HETATM   13  H   UNL     1     -11.903  10.721  63.754  1.00  0.00     0.000 HD 
BRANCH  12  14
HETATM   14  C   UNL     1     -10.963  12.470  63.212  1.00  0.00    -0.191 C  
BRANCH  14  15
HETATM   15  C   UNL     1     -12.178  13.154  63.893  1.00  0.00    -0.433 C  
HETATM   16  H   UNL     1     -13.842  12.586  64.791  1.00  0.00     0.000 HD 
HETATM   17  O   UNL     1     -13.099  12.167  64.374  1.00  0.00    -0.740 OA 
BRANCH  15  18
HETATM   18  C   UNL     1     -11.744  14.041  65.046  1.00  0.00    -0.366 A  
HETATM   19  O   UNL     1      -9.307  16.698  65.794  1.00  0.00    -0.501 OA 
HETATM   20  C   UNL     1     -10.302  15.777  65.938  1.00  0.00    -0.354 A  
HETATM   21  C   UNL     1     -10.728  14.992  64.865  1.00  0.00    -0.420 A  
HETATM   22  C   UNL     1     -10.877  15.645  67.196  1.00  0.00    -0.297 A  
HETATM   23  H   UNL     1      -9.018  17.232  66.524  1.00  0.00     0.000 HD 
HETATM   24  C   UNL     1     -11.887  14.710  67.378  1.00  0.00    -0.348 A  
HETATM   25  O   UNL     1     -12.486  14.531  68.589  1.00  0.00    -0.584 OA 
HETATM   26  C   UNL     1     -12.323  13.916  66.321  1.00  0.00    -0.489 A  
HETATM   27  H   UNL     1     -13.177  13.890  68.713  1.00  0.00     0.000 HD 
ENDBRANCH  15  18
ENDBRANCH  14  15
ENDBRANCH  12  14
ENDBRANCH   2  12
TORSDOF 6
ENDMDL
