MODEL      155
REMARK 921   NORMALIZED FREE ENERGY PREDICTED BY IDOCK:   -0.44 KCAL/MOL
REMARK 922        TOTAL FREE ENERGY PREDICTED BY IDOCK:   -0.90 KCAL/MOL
REMARK 923 INTER-LIGAND FREE ENERGY PREDICTED BY IDOCK:   -3.11 KCAL/MOL
REMARK 924 INTRA-LIGAND FREE ENERGY PREDICTED BY IDOCK:    2.21 KCAL/MOL
REMARK 927      BINDING AFFINITY PREDICTED BY RF-SCORE:    0.00 PKD
ROOT
HETATM    1  N   UNL     1     -12.607  16.275  64.700  1.00  0.00     1.262 N  
HETATM    2  H1  UNL     1     -11.990  16.832  64.109  1.00  0.00     0.000 HD 
HETATM    3  C   UNL     1     -12.080  15.630  65.784  1.00  0.00     0.875 C  
HETATM    4  H2  UNL     1     -13.601  16.201  64.486  1.00  0.00     0.000 HD 
HETATM    5  O   UNL     1     -12.821  14.962  66.494  1.00  0.00     0.506 OA 
ENDROOT
BRANCH   3   6
HETATM    6  C   UNL     1     -10.653  15.824  65.999  1.00  0.00    -0.334 A  
HETATM    7  C   UNL     1     -10.042  17.057  66.215  1.00  0.00    -0.320 A  
HETATM    8  N   UNL     1     -10.480  18.347  66.156  1.00  0.00    -0.428 NA 
HETATM    9  C   UNL     1      -9.462  19.391  66.023  1.00  0.00    -0.205 C  
HETATM   10  H   UNL     1     -11.474  18.574  66.202  1.00  0.00     0.000 HD 
HETATM   11  C   UNL     1      -8.404  19.181  67.096  1.00  0.00    -0.300 C  
HETATM   12  C   UNL     1      -7.779  17.758  67.048  1.00  0.00    -0.210 C  
HETATM   13  N   UNL     1      -8.757  16.774  66.584  1.00  0.00    -0.227 NA 
HETATM   14  C   UNL     1      -9.565  14.871  66.059  1.00  0.00    -0.313 A  
HETATM   15  N   UNL     1      -8.401  15.517  66.288  1.00  0.00    -0.124 NA 
BRANCH  12  16
HETATM   16  C   UNL     1      -6.989  17.414  68.376  1.00  0.00    -0.201 C  
HETATM   17  C   UNL     1      -7.751  16.578  69.420  1.00  0.00    -0.037 C  
HETATM   18  C   UNL     1      -7.910  15.144  68.948  1.00  0.00    -0.164 C  
HETATM   19  O   UNL     1      -7.614  12.476  69.200  1.00  0.00     0.062 OA 
HETATM   20  N   UNL     1      -6.606  14.512  68.810  1.00  0.00    -0.084 N  
HETATM   21  C   UNL     1      -5.603  16.750  68.226  1.00  0.00    -0.115 C  
HETATM   22  C   UNL     1      -5.648  15.233  67.967  1.00  0.00    -0.136 C  
HETATM   23  C   UNL     1      -6.604  13.125  68.929  1.00  0.00    -0.104 C  
BRANCH  23  24
HETATM   24  C   UNL     1      -5.305  12.426  68.748  1.00  0.00    -0.054 C  
HETATM   25  C   UNL     1      -5.278  11.235  68.134  1.00  0.00    -0.042 C  
ENDBRANCH  23  24
ENDBRANCH  12  16
BRANCH  14  26
HETATM   26  C   UNL     1      -9.537  13.390  65.981  1.00  0.00    -0.174 A  
HETATM   27  C   UNL     1      -8.730  12.648  66.869  1.00  0.00    -0.175 A  
HETATM   28  C   UNL     1     -10.254  12.664  65.028  1.00  0.00    -0.294 A  
HETATM   29  C   UNL     1      -8.691  11.245  66.840  1.00  0.00    -0.157 A  
HETATM   30  C   UNL     1     -10.203  11.260  64.981  1.00  0.00    -0.339 A  
HETATM   31  C   UNL     1      -9.453  10.539  65.910  1.00  0.00    -0.190 A  
BRANCH  31  32
HETATM   32  O   UNL     1      -9.331   9.169  65.943  1.00  0.00    -0.207 OA 
BRANCH  32  33
HETATM   33  C   UNL     1      -9.339   8.479  67.137  1.00  0.00    -0.152 A  
HETATM   34  C   UNL     1      -9.369   7.084  67.059  1.00  0.00    -0.174 A  
HETATM   35  C   UNL     1      -9.377   6.312  68.224  1.00  0.00    -0.112 A  
HETATM   36  C   UNL     1      -9.351   6.934  69.471  1.00  0.00    -0.147 A  
HETATM   37  C   UNL     1      -9.273   8.323  69.552  1.00  0.00    -0.158 A  
HETATM   38  C   UNL     1      -9.236   9.094  68.386  1.00  0.00    -0.132 A  
ENDBRANCH  32  33
ENDBRANCH  31  32
ENDBRANCH  14  26
ENDBRANCH   3   6
TORSDOF 6
ENDMDL
