MODEL       59
REMARK 921   NORMALIZED FREE ENERGY PREDICTED BY IDOCK:   -5.19 KCAL/MOL
REMARK 922        TOTAL FREE ENERGY PREDICTED BY IDOCK:   -8.43 KCAL/MOL
REMARK 923 INTER-LIGAND FREE ENERGY PREDICTED BY IDOCK:   -7.35 KCAL/MOL
REMARK 924 INTRA-LIGAND FREE ENERGY PREDICTED BY IDOCK:   -1.07 KCAL/MOL
REMARK 927      BINDING AFFINITY PREDICTED BY RF-SCORE:    0.00 PKD
ROOT
HETATM    1  C   UNL     1     -11.999  15.256  70.348  1.00  0.00    -0.335 C  
HETATM    2  O   UNL     1     -12.513  14.065  69.766  1.00  0.00    -0.325 OA 
ENDROOT
BRANCH   2   3
HETATM    3  N   UNL     1     -12.175  14.045  68.408  1.00  0.00    -0.541 NA 
HETATM    4  H   UNL     1     -12.178  14.872  67.811  1.00  0.00     0.000 HD 
BRANCH   3   5
HETATM    5  C   UNL     1     -11.855  12.850  67.991  1.00  0.00    -0.343 C  
BRANCH   5   6
HETATM    6  C   UNL     1     -11.823  11.594  68.891  1.00  0.00    -0.329 C  
HETATM    7  H   UNL     1      -9.749  11.726  69.032  1.00  0.00     0.000 HD 
HETATM    8  O   UNL     1     -12.846  11.007  69.217  1.00  0.00    -0.173 OA 
HETATM    9  N   UNL     1     -10.559  11.139  69.228  1.00  0.00    -0.205 N  
BRANCH   9  10
HETATM   10  CA  UNL     1     -10.356   9.807  69.871  1.00  0.00    -0.254 C  
HETATM   11  N   UNL     1      -8.994   8.359  69.268  1.00  0.00    -0.149 N  
HETATM   12  C   UNL     1      -8.858   9.403  70.116  1.00  0.00    -0.223 C  
HETATM   13  C   UNL     1     -10.398   8.537  68.979  1.00  0.00    -0.216 C  
HETATM   14  O   UNL     1      -7.921   9.919  70.673  1.00  0.00    -0.257 OA 
HETATM   15  S   UNL     1     -10.528   8.739  67.187  1.00  0.00    -0.240 SA 
HETATM   16  C   UNL     1      -9.881   7.084  66.881  1.00  0.00    -0.199 C  
HETATM   17  C   UNL     1      -8.602   6.724  67.601  1.00  0.00    -0.121 C  
HETATM   18  CA  UNL     1      -8.203   7.376  68.733  1.00  0.00    -0.129 C  
HETATM   19  O   UNL     1      -6.995   6.793  70.717  1.00  0.00    -0.064 OA 
HETATM   20  C   UNL     1      -6.872   6.974  69.476  1.00  0.00    -0.051 C  
HETATM   21  OXT UNL     1      -5.903   6.720  68.699  1.00  0.00    -0.017 OA 
BRANCH  17  22
HETATM   22  C   UNL     1      -7.898   5.481  67.053  1.00  0.00    -0.101 C  
BRANCH  22  23
HETATM   23  N   UNL     1      -7.313   5.476  65.592  1.00  0.00    -0.072 N  
HETATM   24  C   UNL     1      -8.250   5.095  64.461  1.00  0.00    -0.133 C  
HETATM   25  C   UNL     1      -6.657   6.828  65.344  1.00  0.00    -0.050 C  
HETATM   26  C   UNL     1      -8.432   3.606  64.641  1.00  0.00    -0.096 C  
HETATM   27  C   UNL     1      -7.004   3.147  64.877  1.00  0.00    -0.053 C  
HETATM   28  C   UNL     1      -6.264   4.342  65.498  1.00  0.00    -0.027 C  
ENDBRANCH  22  23
ENDBRANCH  17  22
ENDBRANCH   9  10
ENDBRANCH   5   6
BRANCH   5  29
HETATM   29  C   UNL     1     -11.530  12.740  66.565  1.00  0.00    -0.355 A  
HETATM   30  S   UNL     1     -10.292  12.587  64.341  1.00  0.00    -0.345 SA 
HETATM   31  C   UNL     1     -10.245  12.685  66.050  1.00  0.00    -0.272 A  
HETATM   32  H2  UNL     1     -12.273  12.498  62.372  1.00  0.00     0.000 HD 
HETATM   33  H1  UNL     1     -13.762  12.563  63.307  1.00  0.00     0.000 HD 
HETATM   34  C   UNL     1     -12.006  12.606  64.395  1.00  0.00    -0.400 A  
HETATM   35  N   UNL     1     -12.743  12.552  63.276  1.00  0.00    -0.659 NA 
HETATM   36  N   UNL     1     -12.530  12.672  65.593  1.00  0.00    -0.620 NA 
ENDBRANCH   5  29
ENDBRANCH   3   5
ENDBRANCH   2   3
TORSDOF 7
ENDMDL
