MODEL       31
REMARK 921   NORMALIZED FREE ENERGY PREDICTED BY IDOCK:   -7.27 KCAL/MOL
REMARK 922        TOTAL FREE ENERGY PREDICTED BY IDOCK:  -11.92 KCAL/MOL
REMARK 923 INTER-LIGAND FREE ENERGY PREDICTED BY IDOCK:  -10.16 KCAL/MOL
REMARK 924 INTRA-LIGAND FREE ENERGY PREDICTED BY IDOCK:   -1.76 KCAL/MOL
REMARK 927      BINDING AFFINITY PREDICTED BY RF-SCORE:    0.00 PKD
ROOT
HETATM    1  C   UNL     1      -8.880  16.763  66.088  1.00  0.00    -0.298 C  
HETATM    2  C   UNL     1     -10.101  15.905  66.389  1.00  0.00    -0.306 C  
HETATM    3  C   UNL     1     -10.670  16.192  67.783  1.00  0.00    -0.325 C  
HETATM    4  C   UNL     1     -11.867  15.291  68.088  1.00  0.00    -0.195 C  
HETATM    5  N   UNL     1     -11.599  13.849  67.833  1.00  0.00    -0.322 N  
HETATM    6  C   UNL     1     -11.003  13.549  66.513  1.00  0.00    -0.291 C  
HETATM    7  C   UNL     1     -11.533  13.004  68.949  1.00  0.00    -0.299 C  
HETATM    8  O   UNL     1     -11.669  13.506  70.073  1.00  0.00    -0.286 OA 
HETATM    9  O   UNL     1     -13.176  14.028  65.578  1.00  0.00    -0.710 OA 
HETATM   10  C   UNL     1      -9.756  14.411  66.288  1.00  0.00    -0.330 C  
HETATM   11  C   UNL     1     -11.920  13.676  65.292  1.00  0.00    -0.376 C  
HETATM   12  O   UNL     1     -11.553  13.483  64.144  1.00  0.00    -0.384 OA 
ENDROOT
BRANCH   7  13
HETATM   13  C   UNL     1     -11.417  11.440  68.877  1.00  0.00    -0.298 C  
BRANCH  13  14
HETATM   14  C   UNL     1     -12.391  10.563  69.707  1.00  0.00    -0.200 C  
BRANCH  14  15
HETATM   15  C   UNL     1     -11.857  10.248  71.119  1.00  0.00    -0.455 C  
BRANCH  15  16
HETATM   16  C   UNL     1     -12.918   9.686  72.077  1.00  0.00    -0.428 C  
BRANCH  16  17
HETATM   17  N   UNL     1     -12.500   8.362  72.500  1.00  0.00    -0.555 NA 
HETATM   18  H2  UNL     1     -11.554   6.249  73.295  1.00  0.00     0.000 HD 
HETATM   19  H1  UNL     1     -12.125   5.333  71.848  1.00  0.00     0.000 HD 
HETATM   20  N   UNL     1     -13.207   7.052  70.653  1.00  0.00    -0.399 NA 
HETATM   21  N   UNL     1     -12.032   6.189  72.396  1.00  0.00    -0.256 NA 
HETATM   22  C   UNL     1     -12.623   7.229  71.776  1.00  0.00    -0.341 C  
HETATM   23  H   UNL     1     -12.076   8.281  73.425  1.00  0.00     0.000 HD 
HETATM   24  H1  UNL     1     -13.300   6.196  70.105  1.00  0.00     0.000 HD 
HETATM   25  H2  UNL     1     -13.641   7.881  70.247  1.00  0.00     0.000 HD 
ENDBRANCH  16  17
ENDBRANCH  15  16
ENDBRANCH  14  15
ENDBRANCH  13  14
BRANCH  13  26
HETATM   26  N   UNL     1     -10.032  10.944  69.108  1.00  0.00    -0.335 N  
HETATM   27  H   UNL     1      -9.577  11.076  70.012  1.00  0.00     0.000 HD 
BRANCH  26  28
HETATM   28  S   UNL     1      -9.221  10.149  67.834  1.00  0.00    -0.138 S  
HETATM   29  O   UNL     1      -7.805  10.243  68.076  1.00  0.00    -0.098 OA 
HETATM   30  O   UNL     1      -9.794  10.697  66.622  1.00  0.00    -0.188 OA 
BRANCH  28  31
HETATM   31  C   UNL     1      -9.767   8.471  68.020  1.00  0.00    -0.154 A  
HETATM   32  C   UNL     1      -9.613   5.482  70.398  1.00  0.00    -0.224 C  
HETATM   33  C   UNL     1     -10.478   7.909  66.948  1.00  0.00    -0.388 A  
HETATM   34  C   UNL     1      -8.288   5.226  72.526  1.00  0.00    -0.118 C  
HETATM   35  C   UNL     1     -10.927   6.594  67.017  1.00  0.00    -0.463 A  
HETATM   36  C   UNL     1      -8.445   6.020  71.232  1.00  0.00    -0.128 C  
HETATM   37  C   UNL     1      -8.697   7.498  71.498  1.00  0.00    -0.116 C  
HETATM   38  H   UNL     1      -8.227   9.127  70.145  1.00  0.00     0.000 HD 
HETATM   39  N   UNL     1      -8.735   8.248  70.246  1.00  0.00    -0.137 NA 
HETATM   40  C   UNL     1     -10.669   5.839  68.155  1.00  0.00    -0.288 A  
HETATM   41  C   UNL     1      -9.492   7.725  69.185  1.00  0.00    -0.151 A  
HETATM   42  C   UNL     1      -9.947   6.387  69.232  1.00  0.00    -0.178 A  
ENDBRANCH  28  31
ENDBRANCH  26  28
ENDBRANCH  13  26
ENDBRANCH   7  13
TORSDOF 8
ENDMDL
