MODEL      177
REMARK 921   NORMALIZED FREE ENERGY PREDICTED BY IDOCK:   -4.61 KCAL/MOL
REMARK 922        TOTAL FREE ENERGY PREDICTED BY IDOCK:   -9.89 KCAL/MOL
REMARK 923 INTER-LIGAND FREE ENERGY PREDICTED BY IDOCK:   -8.65 KCAL/MOL
REMARK 924 INTRA-LIGAND FREE ENERGY PREDICTED BY IDOCK:   -1.24 KCAL/MOL
REMARK 927      BINDING AFFINITY PREDICTED BY RF-SCORE:    0.00 PKD
ROOT
HETATM    1  C   UNL     1      -9.957  12.114  67.447  1.00  0.00    -0.199 C  
ENDROOT
BRANCH   1   2
HETATM    2  C   UNL     1      -9.004  13.176  66.806  1.00  0.00    -0.176 C  
HETATM    3  O   UNL     1      -7.626  12.814  66.972  1.00  0.00    -0.354 OA 
HETATM    4  H   UNL     1      -7.047  13.459  66.582  1.00  0.00     0.000 HD 
BRANCH   2   5
HETATM    5  C   UNL     1      -9.265  14.601  67.300  1.00  0.00    -0.212 A  
HETATM    6  C   UNL     1     -10.379  18.958  66.115  1.00  0.00    -0.460 C  
HETATM    7  C   UNL     1      -9.466  16.975  66.791  1.00  0.00    -0.258 A  
HETATM    8  C   UNL     1      -9.734  14.879  68.599  1.00  0.00    -0.226 A  
HETATM    9  C   UNL     1      -9.919  17.238  68.085  1.00  0.00    -0.303 A  
HETATM   10  C   UNL     1     -10.158  19.499  67.519  1.00  0.00    -0.406 C  
HETATM   11  C   UNL     1      -9.101  15.681  66.411  1.00  0.00    -0.355 A  
HETATM   12  O   UNL     1     -10.314  18.478  68.515  1.00  0.00    -0.361 OA 
HETATM   13  O   UNL     1      -9.408  17.946  65.822  1.00  0.00    -0.507 OA 
HETATM   14  C   UNL     1     -10.033  16.190  68.995  1.00  0.00    -0.242 A  
ENDBRANCH   2   5
ENDBRANCH   1   2
BRANCH   1  15
HETATM   15  N   UNL     1      -9.133  11.004  67.955  1.00  0.00    -0.147 NA 
HETATM   16  H   UNL     1      -8.578  10.495  67.266  1.00  0.00     0.000 HD 
BRANCH  15  17
HETATM   17  C   UNL     1      -9.040  10.611  69.162  1.00  0.00    -0.139 C  
HETATM   18  H   UNL     1      -7.841  10.185  70.758  1.00  0.00     0.000 HD 
HETATM   19  O   UNL     1      -7.910  10.479  69.856  1.00  0.00    -0.117 OA 
BRANCH  17  20
HETATM   20  C   UNL     1     -10.281  10.237  69.933  1.00  0.00    -0.250 C  
BRANCH  20  21
HETATM   21  C   UNL     1     -10.054   9.065  70.883  1.00  0.00    -0.329 C  
BRANCH  21  22
HETATM   22  C   UNL     1      -9.959   7.717  70.166  1.00  0.00    -0.186 C  
BRANCH  22  23
HETATM   23  C   UNL     1     -11.160   6.833  70.507  1.00  0.00    -0.346 C  
BRANCH  23  24
HETATM   24  C   UNL     1     -10.748   5.380  70.741  1.00  0.00    -0.252 C  
BRANCH  24  25
HETATM   25  C   UNL     1     -10.116   5.204  72.122  1.00  0.00    -0.247 C  
HETATM   26  C   UNL     1     -11.164   4.908  73.182  1.00  0.00    -0.403 C  
ENDBRANCH  24  25
ENDBRANCH  23  24
ENDBRANCH  22  23
ENDBRANCH  21  22
ENDBRANCH  20  21
ENDBRANCH  17  20
ENDBRANCH  15  17
ENDBRANCH   1  15
BRANCH   1  27
HETATM   27  C   UNL     1     -10.981  11.408  66.491  1.00  0.00    -0.272 C  
BRANCH  27  28
HETATM   28  N   UNL     1     -12.063  12.150  65.798  1.00  0.00    -0.554 NA 
HETATM   29  C   UNL     1     -11.605  12.536  64.442  1.00  0.00    -0.358 C  
HETATM   30  C   UNL     1     -12.406  13.398  66.482  1.00  0.00    -0.295 C  
HETATM   31  C   UNL     1     -12.093  13.952  64.168  1.00  0.00    -0.464 C  
HETATM   32  C   UNL     1     -12.859  14.363  65.404  1.00  0.00    -0.235 C  
ENDBRANCH  27  28
ENDBRANCH   1  27
TORSDOF 12
ENDMDL
