MODEL       28
REMARK 921   NORMALIZED FREE ENERGY PREDICTED BY IDOCK:   -6.40 KCAL/MOL
REMARK 922        TOTAL FREE ENERGY PREDICTED BY IDOCK:   -9.82 KCAL/MOL
REMARK 923 INTER-LIGAND FREE ENERGY PREDICTED BY IDOCK:   -8.61 KCAL/MOL
REMARK 924 INTRA-LIGAND FREE ENERGY PREDICTED BY IDOCK:   -1.21 KCAL/MOL
REMARK 927      BINDING AFFINITY PREDICTED BY RF-SCORE:    0.00 PKD
ROOT
HETATM    1 CA   UNL     1      -9.367  12.348  69.241  1.00  0.00    -0.373 Ca 
HETATM    2  O   UNL     2     -11.118   6.192  66.410  1.00  0.00    -0.697 OA 
HETATM    3  C   UNL     2     -10.891   7.309  67.278  1.00  0.00    -0.284 C  
HETATM    4  H   UNL     2     -11.559   5.522  66.920  1.00  0.00     0.000 HD 
HETATM    5  O   UNL     3     -12.981  13.761  65.416  1.00  0.00    -0.706 OA 
HETATM    6  H   UNL     3     -13.329  13.549  64.558  1.00  0.00     0.000 HD 
HETATM    7  C   UNL     3     -11.719  14.451  65.190  1.00  0.00    -0.372 C  
ENDROOT
BRANCH   3   8
HETATM    8  C   UNL     2     -10.191   8.374  66.466  1.00  0.00    -0.207 C  
HETATM    9  H   UNL     2      -8.653   8.430  65.245  1.00  0.00     0.000 HD 
HETATM   10  O   UNL     2      -9.093   7.759  65.755  1.00  0.00    -0.124 OA 
BRANCH   8  11
HETATM   11  C   UNL     2      -9.637   9.576  67.260  1.00  0.00    -0.150 C  
HETATM   12  C   UNL     2     -10.537  10.369  68.174  1.00  0.00    -0.211 C  
HETATM   13  O   UNL     2      -9.437  10.565  66.243  1.00  0.00    -0.168 OA 
HETATM   14  O   UNL     2     -11.101  11.596  65.016  1.00  0.00    -0.299 OA 
HETATM   15  H   UNL     2     -12.694  12.030  68.614  1.00  0.00     0.000 HD 
HETATM   16  O   UNL     2     -10.302  10.344  69.413  1.00  0.00    -0.213 OA 
HETATM   17  C   UNL     2     -10.681  11.086  66.030  1.00  0.00    -0.177 C  
HETATM   18  C   UNL     2     -11.335  11.108  67.367  1.00  0.00    -0.255 C  
HETATM   19  O   UNL     2     -12.277  12.015  67.761  1.00  0.00    -0.474 OA 
ENDBRANCH   8  11
ENDBRANCH   3   8
BRANCH   7  20
HETATM   20  C   UNL     3     -11.156  14.793  66.574  1.00  0.00    -0.334 C  
HETATM   21  O   UNL     3     -12.187  14.706  67.557  1.00  0.00    -0.583 OA 
HETATM   22  H   UNL     3     -11.839  14.918  68.415  1.00  0.00     0.000 HD 
BRANCH  20  23
HETATM   23  C   UNL     3     -10.219  16.012  66.794  1.00  0.00    -0.274 C  
HETATM   24  O   UNL     3     -10.652  19.171  65.438  1.00  0.00    -0.508 OA 
HETATM   25  C   UNL     3     -10.582  18.142  67.597  1.00  0.00    -0.406 C  
HETATM   26  C   UNL     3     -10.228  16.911  67.986  1.00  0.00    -0.310 C  
HETATM   27  O   UNL     3     -10.648  19.265  68.389  1.00  0.00    -0.426 OA 
HETATM   28  O   UNL     3     -10.232  16.917  65.677  1.00  0.00    -0.542 OA 
HETATM   29  C   UNL     3     -10.578  18.171  66.133  1.00  0.00    -0.274 C  
HETATM   30  O   UNL     3      -9.789  16.393  69.039  1.00  0.00    -0.244 OA 
HETATM   31  H   UNL     3     -10.650  19.246  69.339  1.00  0.00     0.000 HD 
ENDBRANCH  20  23
ENDBRANCH   7  20
TORSDOF 4
ENDMDL
