MODEL      192
REMARK 921   NORMALIZED FREE ENERGY PREDICTED BY IDOCK:   17.69 KCAL/MOL
REMARK 922        TOTAL FREE ENERGY PREDICTED BY IDOCK:   27.94 KCAL/MOL
REMARK 923 INTER-LIGAND FREE ENERGY PREDICTED BY IDOCK:   18.71 KCAL/MOL
REMARK 924 INTRA-LIGAND FREE ENERGY PREDICTED BY IDOCK:    9.24 KCAL/MOL
REMARK 927      BINDING AFFINITY PREDICTED BY RF-SCORE:    0.00 PKD
ROOT
HETATM    1  C   UNL     1     -13.668  19.193  66.519  1.00  0.00    12.186 C  
HETATM    2  O   UNL     1     -12.931  18.112  67.085  1.00  0.00     5.886 OA 
ENDROOT
BRANCH   2   3
HETATM    3  C   UNL     1     -12.095  17.465  66.136  1.00  0.00     3.915 C  
BRANCH   3   4
HETATM    4  C   UNL     1     -10.859  16.791  66.756  1.00  0.00    -0.009 C  
HETATM    5  O   UNL     1     -10.063  17.419  67.450  1.00  0.00    -0.299 OA 
HETATM    6  N   UNL     1     -10.746  15.423  66.484  1.00  0.00    -0.307 N  
HETATM    7  H   UNL     1     -11.412  14.945  65.876  1.00  0.00     0.000 HD 
BRANCH   6   8
HETATM    8  C   UNL     1      -9.661  14.726  67.093  1.00  0.00    -0.227 A  
HETATM    9  C   UNL     1      -9.668  13.312  67.193  1.00  0.00    -0.236 A  
HETATM   10  C   UNL     1      -8.483  12.591  67.525  1.00  0.00    -0.177 A  
HETATM   11  I   UNL     1     -11.544  12.341  66.779  1.00  0.00    -0.266 I  
HETATM   12  C   UNL     1      -8.534  15.448  67.547  1.00  0.00    -0.173 A  
HETATM   13  C   UNL     1      -7.309  13.357  67.751  1.00  0.00    -0.157 A  
HETATM   14  I   UNL     1      -5.365  12.486  67.389  1.00  0.00     0.111 I  
HETATM   15  I   UNL     1      -8.762  17.583  67.797  1.00  0.00    -0.246 I  
HETATM   16  C   UNL     1      -7.361  14.768  67.922  1.00  0.00    -0.162 A  
BRANCH  10  17
HETATM   17  C   UNL     1      -8.492  11.082  67.479  1.00  0.00    -0.127 C  
HETATM   18  O   UNL     1      -8.736  10.497  68.535  1.00  0.00    -0.126 OA 
HETATM   19  C   UNL     1      -8.009  10.861  64.968  1.00  0.00     0.181 C  
HETATM   20  N   UNL     1      -8.179  10.344  66.320  1.00  0.00    -0.138 N  
BRANCH  20  21
HETATM   21  C   UNL     1      -8.001   8.871  66.442  1.00  0.00    -0.103 C  
BRANCH  21  22
HETATM   22  C   UNL     1      -8.760   8.081  65.345  1.00  0.00    -0.068 C  
HETATM   23  H   UNL     1     -10.201   8.425  64.023  1.00  0.00     0.000 HD 
HETATM   24  O   UNL     1      -9.736   8.910  64.695  1.00  0.00     0.559 OA 
BRANCH  22  25
HETATM   25  C   UNL     1      -7.827   7.515  64.264  1.00  0.00    -0.133 C  
HETATM   26  H   UNL     1      -5.908   7.090  64.067  1.00  0.00     0.000 HD 
HETATM   27  O   UNL     1      -6.485   7.440  64.735  1.00  0.00    -0.037 OA 
ENDBRANCH  22  25
ENDBRANCH  21  22
ENDBRANCH  20  21
ENDBRANCH  10  17
BRANCH  16  28
HETATM   28  C   UNL     1      -6.218  15.523  68.525  1.00  0.00    -0.098 C  
HETATM   29  H   UNL     1      -7.370  16.034  70.203  1.00  0.00     0.000 HD 
HETATM   30  O   UNL     1      -5.141  15.624  67.962  1.00  0.00    -0.110 OA 
HETATM   31  N   UNL     1      -6.476  16.172  69.732  1.00  0.00    -0.190 N  
BRANCH  31  32
HETATM   32  C   UNL     1      -5.469  17.047  70.318  1.00  0.00    -0.225 C  
BRANCH  32  33
HETATM   33  C   UNL     1      -5.987  18.471  70.541  1.00  0.00     0.036 C  
HETATM   34  O   UNL     1      -5.747  18.844  71.906  1.00  0.00    -0.138 OA 
HETATM   35  H   UNL     1      -6.069  19.728  72.045  1.00  0.00     0.000 HD 
BRANCH  33  36
HETATM   36  C   UNL     1      -5.312  19.464  69.580  1.00  0.00    -0.201 C  
HETATM   37  O   UNL     1      -5.954  19.484  68.307  1.00  0.00    -0.212 OA 
HETATM   38  H   UNL     1      -5.537  20.098  67.713  1.00  0.00     0.000 HD 
ENDBRANCH  33  36
ENDBRANCH  32  33
ENDBRANCH  31  32
ENDBRANCH  16  28
ENDBRANCH   6   8
ENDBRANCH   3   4
ENDBRANCH   2   3
TORSDOF 11
ENDMDL
