MODEL       18
REMARK 921   NORMALIZED FREE ENERGY PREDICTED BY IDOCK:   -5.37 KCAL/MOL
REMARK 922        TOTAL FREE ENERGY PREDICTED BY IDOCK:  -15.19 KCAL/MOL
REMARK 923 INTER-LIGAND FREE ENERGY PREDICTED BY IDOCK:  -12.76 KCAL/MOL
REMARK 924 INTRA-LIGAND FREE ENERGY PREDICTED BY IDOCK:   -2.43 KCAL/MOL
REMARK 927      BINDING AFFINITY PREDICTED BY RF-SCORE:    0.00 PKD
ROOT
HETATM    1  C   UNL     1     -12.722  15.951  73.542  1.00  0.00    -0.585 C  
HETATM    2  O   UNL     1     -13.983  15.882  72.892  1.00  0.00    -0.592 OA 
ENDROOT
BRANCH   2   3
HETATM    3  C   UNL     1     -13.899  15.145  71.674  1.00  0.00    -0.503 C  
BRANCH   3   4
HETATM    4  C   UNL     1     -13.708  13.669  71.992  1.00  0.00    -0.493 C  
BRANCH   4   5
HETATM    5  O   UNL     1     -12.640  13.156  71.196  1.00  0.00    -0.370 OA 
BRANCH   5   6
HETATM    6  C   UNL     1     -12.330  14.045  70.126  1.00  0.00    -0.345 C  
BRANCH   6   7
HETATM    7  C   UNL     1     -11.744  13.256  68.967  1.00  0.00    -0.322 C  
BRANCH   7   8
HETATM    8  O   UNL     1     -12.148  13.879  67.749  1.00  0.00    -0.371 OA 
BRANCH   8   9
HETATM    9  C   UNL     1     -11.905  13.035  66.630  1.00  0.00    -0.393 C  
BRANCH   9  10
HETATM   10  C   UNL     1     -12.773  13.495  65.472  1.00  0.00    -0.440 C  
BRANCH  10  11
HETATM   11  O   UNL     1     -11.926  13.868  64.393  1.00  0.00    -0.412 OA 
BRANCH  11  12
HETATM   12  C   UNL     1     -11.975  15.271  64.159  1.00  0.00    -0.130 C  
BRANCH  12  13
HETATM   13  C   UNL     1     -10.826  15.927  64.905  1.00  0.00    -0.400 C  
BRANCH  13  14
HETATM   14  O   UNL     1     -10.934  17.339  64.790  1.00  0.00    -0.950 OA 
BRANCH  14  15
HETATM   15  C   UNL     1     -10.517  17.968  65.996  1.00  0.00    -0.313 C  
BRANCH  15  16
HETATM   16  C   UNL     1     -10.691  17.018  67.168  1.00  0.00    -0.177 C  
BRANCH  16  17
HETATM   17  O   UNL     1      -9.559  17.172  68.015  1.00  0.00    -0.255 OA 
BRANCH  17  18
HETATM   18  C   UNL     1      -9.205  15.966  68.671  1.00  0.00    -0.209 C  
BRANCH  18  19
HETATM   19  C   UNL     1      -8.114  15.299  67.855  1.00  0.00    -0.138 C  
BRANCH  19  20
HETATM   20  O   UNL     1      -7.930  13.962  68.299  1.00  0.00    -0.131 OA 
BRANCH  20  21
HETATM   21  C   UNL     1      -8.342  13.013  67.317  1.00  0.00    -0.185 C  
BRANCH  21  22
HETATM   22  C   UNL     1      -8.593  11.641  67.952  1.00  0.00    -0.150 C  
BRANCH  22  23
HETATM   23  O   UNL     1      -8.298  10.496  67.112  1.00  0.00    -0.125 OA 
BRANCH  23  24
HETATM   24  C   UNL     1      -9.352   9.503  67.053  1.00  0.00    -0.148 C  
HETATM   25  C   UNL     1      -8.874   8.279  66.324  1.00  0.00    -0.192 C  
HETATM   26  C   UNL     1      -8.211   7.128  67.280  1.00  0.00    -0.119 C  
HETATM   27  C   UNL     1      -8.996   6.651  68.648  1.00  0.00    -0.124 C  
HETATM   28  C   UNL     1      -9.820   5.273  69.098  1.00  0.00    -0.187 C  
HETATM   29  O   UNL     1      -8.109   7.034  69.709  1.00  0.00    -0.121 OA 
HETATM   30  C   UNL     1     -10.338   5.172  70.536  1.00  0.00    -0.314 C  
HETATM   31  H   UNL     1      -8.563   6.759  70.498  1.00  0.00     0.000 HD 
HETATM   32  C   UNL     1     -11.072   6.473  70.750  1.00  0.00    -0.354 A  
HETATM   33  C   UNL     1     -11.652   6.796  71.962  1.00  0.00    -0.327 A  
HETATM   34  C   UNL     1     -12.021   8.101  72.254  1.00  0.00    -0.434 A  
HETATM   35  C   UNL     1     -11.781   9.143  71.315  1.00  0.00    -0.326 A  
HETATM   36  O   UNL     1     -11.918  10.440  71.703  1.00  0.00    -0.291 OA 
HETATM   37  C   UNL     1     -11.312   8.809  70.047  1.00  0.00    -0.032 A  
HETATM   38  H   UNL     1     -11.758  11.136  71.076  1.00  0.00     0.000 HD 
HETATM   39  C   UNL     1     -10.995   7.485  69.713  1.00  0.00    -0.195 A  
HETATM   40  C   UNL     1     -10.239   7.417  68.415  1.00  0.00    -0.207 C  
HETATM   41  C   UNL     1      -9.837   8.965  68.418  1.00  0.00    -0.174 C  
HETATM   42  C   UNL     1     -10.810   6.370  67.060  1.00  0.00    -0.464 C  
HETATM   43  O   UNL     1     -10.917   9.697  69.059  1.00  0.00    -0.208 OA 
HETATM   44  C   UNL     1     -10.048   4.743  66.965  1.00  0.00    -0.189 C  
HETATM   45  N   UNL     1      -9.602   4.147  68.247  1.00  0.00    -0.151 NA 
BRANCH  45  46
HETATM   46  C   UNL     1      -8.242   3.688  68.466  1.00  0.00    -0.073 C  
BRANCH  46  47
HETATM   47  C   UNL     1      -8.125   2.414  69.235  1.00  0.00    -0.060 C  
HETATM   48  C   UNL     1      -8.287   2.343  70.560  1.00  0.00    -0.079 C  
ENDBRANCH  46  47
ENDBRANCH  45  46
ENDBRANCH  23  24
ENDBRANCH  22  23
ENDBRANCH  21  22
ENDBRANCH  20  21
ENDBRANCH  19  20
ENDBRANCH  18  19
ENDBRANCH  17  18
ENDBRANCH  16  17
ENDBRANCH  15  16
ENDBRANCH  14  15
ENDBRANCH  13  14
ENDBRANCH  12  13
ENDBRANCH  11  12
ENDBRANCH  10  11
ENDBRANCH   9  10
ENDBRANCH   8   9
ENDBRANCH   7   8
ENDBRANCH   6   7
ENDBRANCH   5   6
ENDBRANCH   4   5
ENDBRANCH   3   4
ENDBRANCH   2   3
TORSDOF 24
ENDMDL
