MODEL      168
REMARK 921   NORMALIZED FREE ENERGY PREDICTED BY IDOCK:   -1.27 KCAL/MOL
REMARK 922        TOTAL FREE ENERGY PREDICTED BY IDOCK:   -1.61 KCAL/MOL
REMARK 923 INTER-LIGAND FREE ENERGY PREDICTED BY IDOCK:   -1.36 KCAL/MOL
REMARK 924 INTRA-LIGAND FREE ENERGY PREDICTED BY IDOCK:   -0.25 KCAL/MOL
REMARK 927      BINDING AFFINITY PREDICTED BY RF-SCORE:    0.00 PKD
ROOT
HETATM    1  O   UNL     1     -10.389  16.716  69.424  1.00  0.00    -0.300 OA 
HETATM    2  C   UNL     1     -10.013  15.839  68.657  1.00  0.00    -0.208 C  
HETATM    3  C   UNL     1      -9.224  14.699  69.142  1.00  0.00    -0.039 C  
HETATM    4  C   UNL     1      -8.769  13.783  68.272  1.00  0.00    -0.179 C  
HETATM    5  C   UNL     1     -10.338  15.848  67.228  1.00  0.00    -0.293 A  
HETATM    6  O   UNL     1      -9.014  13.836  66.902  1.00  0.00    -0.237 OA 
HETATM    7  C   UNL     1      -9.825  14.836  66.420  1.00  0.00    -0.280 A  
HETATM    8  C   UNL     1     -11.169  16.838  66.696  1.00  0.00     0.464 A  
HETATM    9  C   UNL     1     -10.144  14.812  65.062  1.00  0.00    -0.308 A  
HETATM   10  C   UNL     1     -11.495  16.805  65.341  1.00  0.00     0.666 A  
HETATM   11  C   UNL     1     -10.984  15.793  64.526  1.00  0.00    -0.209 A  
ENDROOT
BRANCH   4  12
HETATM   12  C   UNL     1      -8.007  12.594  68.728  1.00  0.00     0.068 A  
HETATM   13  C   UNL     1      -6.073  11.591  69.838  1.00  0.00    -0.141 A  
HETATM   14  C   UNL     1      -7.860  10.180  69.056  1.00  0.00    -0.107 A  
HETATM   15  C   UNL     1      -8.538  11.303  68.571  1.00  0.00    -0.156 A  
HETATM   16  C   UNL     1      -6.748  12.712  69.344  1.00  0.00    -0.022 A  
HETATM   17  C   UNL     1      -6.634  10.326  69.701  1.00  0.00    -0.077 A  
ENDBRANCH   4  12
TORSDOF 1
ENDMDL
