MODEL      430
REMARK 921   NORMALIZED FREE ENERGY PREDICTED BY IDOCK:    0.50 KCAL/MOL
REMARK 922        TOTAL FREE ENERGY PREDICTED BY IDOCK:   -2.43 KCAL/MOL
REMARK 923 INTER-LIGAND FREE ENERGY PREDICTED BY IDOCK:   -0.26 KCAL/MOL
REMARK 924 INTRA-LIGAND FREE ENERGY PREDICTED BY IDOCK:   -2.18 KCAL/MOL
REMARK 927      BINDING AFFINITY PREDICTED BY RF-SCORE:    0.00 PKD
ROOT
HETATM    1  C   UNL     1     -11.592  18.174  66.113  1.00  0.00     2.112 C  
HETATM    2  C   UNL     1     -11.063  16.743  66.193  1.00  0.00     0.305 C  
HETATM    3  C   UNL     1     -10.909  16.329  67.661  1.00  0.00    -0.293 C  
HETATM    4  C   UNL     1     -11.992  15.802  65.402  1.00  0.00     0.667 C  
ENDROOT
BRANCH   4   5
HETATM    5  C   UNL     1     -11.504  14.360  65.443  1.00  0.00    -0.344 C  
BRANCH   5   6
HETATM    6  C   UNL     1     -12.257  13.508  66.459  1.00  0.00    -0.433 C  
HETATM    7  C   UNL     1     -11.369  12.379  67.018  1.00  0.00    -0.388 C  
HETATM    8  C   UNL     1     -10.113  12.925  67.715  1.00  0.00    -0.229 C  
HETATM    9  C   UNL     1     -12.207  11.501  67.963  1.00  0.00     0.286 C  
BRANCH   9  10
HETATM   10  C   UNL     1     -11.379  10.364  68.552  1.00  0.00    -0.283 C  
BRANCH  10  11
HETATM   11  C   UNL     1     -10.918   9.378  67.490  1.00  0.00    -0.088 C  
HETATM   12  C   UNL     1      -9.417   9.059  67.618  1.00  0.00    -0.166 C  
HETATM   13  C   UNL     1      -8.941   8.169  66.453  1.00  0.00    -0.207 C  
HETATM   14  C   UNL     1      -9.071   8.394  68.957  1.00  0.00    -0.147 C  
BRANCH  13  15
HETATM   15  C   UNL     1      -9.135   8.777  65.058  1.00  0.00    -0.047 C  
BRANCH  15  16
HETATM   16  C   UNL     1      -8.229   9.983  64.808  1.00  0.00    -0.155 C  
BRANCH  16  17
HETATM   17  C   UNL     1      -6.824   9.742  65.299  1.00  0.00    -0.103 C  
HETATM   18  C   UNL     1      -6.520   9.987  66.589  1.00  0.00    -0.072 C  
HETATM   19  C   UNL     1      -5.847   9.181  64.309  1.00  0.00    -0.070 C  
BRANCH  18  20
HETATM   20  C   UNL     1      -5.202   9.724  67.270  1.00  0.00    -0.035 C  
BRANCH  20  21
HETATM   21  C   UNL     1      -5.395   9.029  68.603  1.00  0.00    -0.034 C  
HETATM   22  C   UNL     1      -5.439   9.657  69.798  1.00  0.00    -0.033 C  
HETATM   23  C   UNL     1      -5.253  11.135  70.017  1.00  0.00    -0.057 C  
HETATM   24  C   UNL     1      -5.713   8.899  71.054  1.00  0.00    -0.039 C  
HETATM   25  O   UNL     1      -5.709   9.458  72.143  1.00  0.00    -0.147 OA 
HETATM   26  C   UNL     1      -6.010   7.463  70.957  1.00  0.00    -0.035 A  
HETATM   27  C   UNL     1      -5.936   6.811  69.735  1.00  0.00    -0.023 A  
HETATM   28  C   UNL     1      -5.557   7.547  68.522  1.00  0.00    -0.027 C  
HETATM   29  C   UNL     1      -6.212   5.440  69.655  1.00  0.00    -0.026 A  
HETATM   30  C   UNL     1      -6.570   4.728  70.802  1.00  0.00    -0.031 A  
HETATM   31  O   UNL     1      -5.397   6.937  67.471  1.00  0.00    -0.011 OA 
HETATM   32  C   UNL     1      -6.650   5.384  72.030  1.00  0.00    -0.056 A  
HETATM   33  C   UNL     1      -6.370   6.750  72.110  1.00  0.00    -0.049 A  
ENDBRANCH  20  21
ENDBRANCH  18  20
ENDBRANCH  16  17
ENDBRANCH  15  16
ENDBRANCH  13  15
ENDBRANCH  10  11
ENDBRANCH   9  10
ENDBRANCH   5   6
ENDBRANCH   4   5
TORSDOF 9
ENDMDL
