MODEL      122
REMARK 921   NORMALIZED FREE ENERGY PREDICTED BY IDOCK:   14.88 KCAL/MOL
REMARK 922        TOTAL FREE ENERGY PREDICTED BY IDOCK:   17.61 KCAL/MOL
REMARK 923 INTER-LIGAND FREE ENERGY PREDICTED BY IDOCK:   17.81 KCAL/MOL
REMARK 924 INTRA-LIGAND FREE ENERGY PREDICTED BY IDOCK:   -0.20 KCAL/MOL
REMARK 927      BINDING AFFINITY PREDICTED BY RF-SCORE:    0.00 PKD
ROOT
HETATM    1  C   UNL     1     -12.212  19.331  67.228  1.00  0.00     3.252 C  
HETATM    2  N   UNL     1     -12.255  17.907  67.029  1.00  0.00     3.497 NA 
HETATM    3  N   UNL     1     -13.308  17.280  66.493  1.00  0.00     9.582 NA 
HETATM    4  N   UNL     1     -13.003  15.991  66.572  1.00  0.00     3.507 NA 
HETATM    5  C   UNL     1     -11.763  15.908  67.167  1.00  0.00     0.432 A  
HETATM    6  N   UNL     1     -11.256  17.125  67.459  1.00  0.00     0.028 NA 
ENDROOT
BRANCH   5   7
HETATM    7  C   UNL     1     -11.092  14.656  67.512  1.00  0.00    -0.313 A  
HETATM    8  N   UNL     1     -11.464  13.522  66.869  1.00  0.00    -0.329 NA 
HETATM    9  C   UNL     1     -10.867  12.367  67.260  1.00  0.00    -0.243 A  
HETATM   10  C   UNL     1      -9.925  12.241  68.290  1.00  0.00    -0.216 A  
HETATM   11  C   UNL     1     -10.135  14.648  68.520  1.00  0.00    -0.238 A  
HETATM   12  C   UNL     1      -9.564  13.442  68.912  1.00  0.00     0.155 A  
BRANCH  10  13
HETATM   13  C   UNL     1      -9.341  10.941  68.683  1.00  0.00    -0.188 A  
HETATM   14  C   UNL     1      -9.588   9.754  67.974  1.00  0.00    -0.142 A  
HETATM   15  C   UNL     1      -9.065   8.521  68.368  1.00  0.00    -0.139 A  
HETATM   16  F   UNL     1     -10.363   9.759  66.877  1.00  0.00    -0.261 F  
HETATM   17  C   UNL     1      -8.269   8.412  69.506  1.00  0.00    -0.118 A  
HETATM   18  C   UNL     1      -8.492  10.827  69.796  1.00  0.00     0.367 A  
HETATM   19  C   UNL     1      -7.973   9.589  70.205  1.00  0.00    -0.171 A  
BRANCH  17  20
HETATM   20  N   UNL     1      -7.744   7.167  69.921  1.00  0.00    -0.105 N  
HETATM   21  C   UNL     1      -8.549   6.054  70.320  1.00  0.00    -0.143 C  
HETATM   22  C   UNL     1      -7.607   5.290  71.220  1.00  0.00    -0.100 C  
HETATM   23  O   UNL     1      -6.313   5.598  70.682  1.00  0.00    -0.029 OA 
HETATM   24  O   UNL     1      -5.414   7.432  69.705  1.00  0.00    -0.022 OA 
HETATM   25  C   UNL     1      -6.408   6.815  70.048  1.00  0.00    -0.039 C  
BRANCH  22  26
HETATM   26  C   UNL     1      -7.673   5.722  72.690  1.00  0.00    -0.101 C  
HETATM   27  H   UNL     1      -8.624   7.070  73.818  1.00  0.00     0.000 HD 
HETATM   28  O   UNL     1      -8.582   6.803  72.907  1.00  0.00    -0.117 OA 
ENDBRANCH  22  26
ENDBRANCH  17  20
ENDBRANCH  10  13
ENDBRANCH   5   7
TORSDOF 4
ENDMDL
