MODEL       25
REMARK 921   NORMALIZED FREE ENERGY PREDICTED BY IDOCK:   -4.56 KCAL/MOL
REMARK 922        TOTAL FREE ENERGY PREDICTED BY IDOCK:   -9.49 KCAL/MOL
REMARK 923 INTER-LIGAND FREE ENERGY PREDICTED BY IDOCK:   -8.55 KCAL/MOL
REMARK 924 INTRA-LIGAND FREE ENERGY PREDICTED BY IDOCK:   -0.94 KCAL/MOL
REMARK 927      BINDING AFFINITY PREDICTED BY RF-SCORE:    0.00 PKD
ROOT
HETATM    1  C   UNL     1     -12.806  15.865  73.511  1.00  0.00    -0.705 C  
HETATM    2  C   UNL     1     -13.808  15.332  72.500  1.00  0.00    -0.626 C  
ENDROOT
BRANCH   2   3
HETATM    3  C   UNL     1     -13.239  15.386  71.085  1.00  0.00    -0.583 C  
BRANCH   3   4
HETATM    4  C   UNL     1     -11.787  15.853  71.093  1.00  0.00    -0.483 C  
BRANCH   4   5
HETATM    5  C   UNL     1     -10.994  15.160  69.988  1.00  0.00    -0.291 C  
BRANCH   5   6
HETATM    6  C   UNL     1     -11.837  14.086  69.313  1.00  0.00    -0.389 C  
BRANCH   6   7
HETATM    7  C   UNL     1     -11.175  13.591  68.032  1.00  0.00    -0.300 C  
BRANCH   7   8
HETATM    8  C   UNL     1     -12.120  13.783  66.853  1.00  0.00    -0.454 C  
BRANCH   8   9
HETATM    9  C   UNL     1     -11.488  14.630  65.753  1.00  0.00    -0.338 C  
BRANCH   9  10
HETATM   10  C   UNL     1      -9.988  14.837  65.966  1.00  0.00    -0.336 C  
BRANCH  10  11
HETATM   11  C   UNL     1      -9.529  16.300  65.962  1.00  0.00    -0.369 C  
BRANCH  11  12
HETATM   12  C   UNL     1     -10.501  17.234  66.693  1.00  0.00    -0.257 C  
BRANCH  12  13
HETATM   13  N   UNL     1      -9.937  18.649  66.931  1.00  0.00    -0.325 N  
HETATM   14  C   UNL     1     -10.697  19.677  66.102  1.00  0.00    -0.416 C  
HETATM   15  C   UNL     1     -10.025  19.023  68.406  1.00  0.00    -0.408 C  
BRANCH  13  16
HETATM   16  C   UNL     1      -8.431  18.619  66.498  1.00  0.00    -0.291 C  
BRANCH  16  17
HETATM   17  C   UNL     1      -7.491  19.378  67.400  1.00  0.00    -0.259 A  
HETATM   18  C   UNL     1      -7.095  20.687  67.080  1.00  0.00    -0.385 A  
HETATM   19  C   UNL     1      -6.072  21.309  67.794  1.00  0.00    -0.402 A  
HETATM   20  C   UNL     1      -5.454  20.642  68.850  1.00  0.00    -0.365 A  
HETATM   21  C   UNL     1      -5.889  19.374  69.225  1.00  0.00    -0.277 A  
HETATM   22  C   UNL     1      -6.914  18.749  68.515  1.00  0.00    -0.288 A  
ENDBRANCH  16  17
ENDBRANCH  13  16
ENDBRANCH  12  13
ENDBRANCH  11  12
ENDBRANCH  10  11
ENDBRANCH   9  10
ENDBRANCH   8   9
ENDBRANCH   7   8
ENDBRANCH   6   7
ENDBRANCH   5   6
ENDBRANCH   4   5
ENDBRANCH   3   4
ENDBRANCH   2   3
TORSDOF 13
ENDMDL
