MODEL        4
REMARK 921   NORMALIZED FREE ENERGY PREDICTED BY IDOCK:   -8.33 KCAL/MOL
REMARK 922        TOTAL FREE ENERGY PREDICTED BY IDOCK:  -11.85 KCAL/MOL
REMARK 923 INTER-LIGAND FREE ENERGY PREDICTED BY IDOCK:  -11.32 KCAL/MOL
REMARK 924 INTRA-LIGAND FREE ENERGY PREDICTED BY IDOCK:   -0.53 KCAL/MOL
REMARK 927      BINDING AFFINITY PREDICTED BY RF-SCORE:    0.00 PKD
ROOT
HETATM    1  O   UNL     1     -11.517  16.549  63.745  1.00  0.00    -1.615 OA 
HETATM    2  H   UNL     1     -11.879  17.410  63.914  1.00  0.00     0.000 HD 
HETATM    3  C   UNL     1     -11.120  15.898  64.947  1.00  0.00    -0.389 C  
ENDROOT
BRANCH   3   4
HETATM    4  C   UNL     1     -10.532  14.499  64.672  1.00  0.00    -0.210 C  
HETATM    5  O   UNL     1      -9.868  13.942  65.828  1.00  0.00    -0.291 OA 
HETATM    6  C   UNL     1     -10.744  13.495  66.884  1.00  0.00    -0.274 C  
HETATM    7  C   UNL     1     -11.722  12.420  66.329  1.00  0.00    -0.395 C  
HETATM    8  H   UNL     1     -13.970  14.166  64.769  1.00  0.00     0.000 HD 
HETATM    9  C   UNL     1     -12.493  12.926  65.104  1.00  0.00    -0.501 C  
HETATM   10  O   UNL     1     -11.032  11.208  65.955  1.00  0.00    -0.213 OA 
HETATM   11  H   UNL     1     -11.432  11.863  62.982  1.00  0.00     0.000 HD 
HETATM   12  C   UNL     1     -11.540  13.511  64.047  1.00  0.00    -0.353 C  
HETATM   13  H   UNL     1     -11.629  10.551  65.616  1.00  0.00     0.000 HD 
HETATM   14  O   UNL     1     -13.493  13.853  65.528  1.00  0.00    -0.657 OA 
HETATM   15  O   UNL     1     -10.811  12.471  63.367  1.00  0.00    -0.439 OA 
BRANCH   6  16
HETATM   16  O   UNL     1     -11.369  14.631  67.484  1.00  0.00    -0.319 OA 
BRANCH  16  17
HETATM   17  C   UNL     1     -11.796  14.576  68.778  1.00  0.00    -0.315 A  
HETATM   18  C   UNL     1     -12.192  15.491  70.959  1.00  0.00    -0.396 A  
HETATM   19  C   UNL     1     -12.426  14.220  71.470  1.00  0.00    -0.435 A  
HETATM   20  O   UNL     1     -12.240  16.547  71.825  1.00  0.00    -0.574 OA 
HETATM   21  C   UNL     1     -11.901  15.683  69.614  1.00  0.00    -0.377 A  
HETATM   22  H   UNL     1     -12.439  16.416  72.745  1.00  0.00     0.000 HD 
HETATM   23  C   UNL     1     -12.367  13.095  70.639  1.00  0.00    -0.405 A  
HETATM   24  C   UNL     1     -12.018  13.285  69.293  1.00  0.00    -0.354 A  
BRANCH  23  25
HETATM   25  C   UNL     1     -12.643  11.782  71.256  1.00  0.00    -0.401 C  
HETATM   26  C   UNL     1     -12.178  10.591  70.842  1.00  0.00    -0.490 C  
BRANCH  26  27
HETATM   27  C   UNL     1     -12.655   9.296  71.379  1.00  0.00    -0.411 A  
HETATM   28  C   UNL     1     -11.710   8.387  71.883  1.00  0.00    -0.398 A  
HETATM   29  C   UNL     1     -12.093   7.115  72.324  1.00  0.00    -0.219 A  
HETATM   30  C   UNL     1     -13.434   6.751  72.279  1.00  0.00     0.253 A  
HETATM   31  C   UNL     1     -14.394   7.649  71.835  1.00  0.00    -0.536 A  
HETATM   32  O   UNL     1     -13.846   5.508  72.659  1.00  0.00    -0.304 OA 
HETATM   33  H   UNL     1     -14.762   5.258  72.629  1.00  0.00     0.000 HD 
HETATM   34  C   UNL     1     -14.008   8.919  71.392  1.00  0.00    -0.299 A  
ENDBRANCH  26  27
ENDBRANCH  23  25
ENDBRANCH  16  17
ENDBRANCH   6  16
ENDBRANCH   3   4
TORSDOF 5
ENDMDL
