MODEL        1
REMARK 921   NORMALIZED FREE ENERGY PREDICTED BY IDOCK:   -9.72 KCAL/MOL
REMARK 922        TOTAL FREE ENERGY PREDICTED BY IDOCK:  -13.74 KCAL/MOL
REMARK 923 INTER-LIGAND FREE ENERGY PREDICTED BY IDOCK:  -13.13 KCAL/MOL
REMARK 924 INTRA-LIGAND FREE ENERGY PREDICTED BY IDOCK:   -0.61 KCAL/MOL
REMARK 927      BINDING AFFINITY PREDICTED BY RF-SCORE:    0.00 PKD
ROOT
HETATM    1  C   UNL     1      -9.850   1.848  73.595  1.00  0.00    -0.127 C  
HETATM    2  C   UNL     1     -10.259   3.197  73.155  1.00  0.00    -0.148 A  
HETATM    3  C   UNL     1      -9.993   3.852  71.969  1.00  0.00    -0.170 A  
HETATM    4  N   UNL     1     -10.611   5.080  72.054  1.00  0.00    -0.203 NA 
HETATM    5  N   UNL     1     -11.022   3.984  73.970  1.00  0.00    -0.205 NA 
HETATM    6  C   UNL     1     -11.219   5.093  73.294  1.00  0.00    -0.321 A  
ENDROOT
BRANCH   4   7
HETATM    7  C   UNL     1     -10.623   6.111  71.072  1.00  0.00    -0.246 A  
HETATM    8  C   UNL     1     -10.896   7.430  71.455  1.00  0.00    -0.247 A  
HETATM    9  C   UNL     1     -10.939   8.468  70.520  1.00  0.00    -0.241 A  
HETATM   10  F   UNL     1     -10.166   7.658  66.504  1.00  0.00    -0.313 F  
HETATM   11  C   UNL     1     -10.644   8.196  69.185  1.00  0.00    -0.179 A  
HETATM   12  F   UNL     1      -8.915   5.985  67.107  1.00  0.00    -0.116 F  
HETATM   13  F   UNL     1     -11.049   5.696  66.808  1.00  0.00    -0.316 F  
HETATM   14  C   UNL     1     -10.379   6.879  68.769  1.00  0.00    -0.200 A  
HETATM   15  C   UNL     1     -10.130   6.563  67.314  1.00  0.00    -0.164 C  
HETATM   16  C   UNL     1     -10.375   5.842  69.721  1.00  0.00    -0.332 A  
BRANCH   9  17
HETATM   17  N   UNL     1     -11.251   9.795  70.883  1.00  0.00    -0.332 N  
HETATM   18  O   UNL     1     -12.203  10.561  68.895  1.00  0.00    -0.282 OA 
HETATM   19  H   UNL     1     -10.971  10.104  71.813  1.00  0.00     0.000 HD 
HETATM   20  C   UNL     1     -11.907  10.713  70.075  1.00  0.00    -0.322 C  
BRANCH  20  21
HETATM   21  C   UNL     1     -12.318  11.968  70.745  1.00  0.00    -0.403 A  
HETATM   22  C   UNL     1     -13.089  11.991  71.904  1.00  0.00    -0.475 A  
HETATM   23  C   UNL     1     -13.505  13.219  72.417  1.00  0.00    -0.670 A  
HETATM   24  C   UNL     1     -13.169  14.426  71.771  1.00  0.00    -0.435 A  
HETATM   25  C   UNL     1     -12.372  14.406  70.606  1.00  0.00    -0.351 A  
HETATM   26  C   UNL     1     -13.663  15.722  72.355  1.00  0.00    -0.539 C  
HETATM   27  C   UNL     1     -11.929  13.166  70.134  1.00  0.00    -0.381 A  
BRANCH  25  28
HETATM   28  N   UNL     1     -11.981  15.595  69.977  1.00  0.00    -0.365 NA 
HETATM   29  H   UNL     1     -12.022  16.424  70.571  1.00  0.00     0.000 HD 
BRANCH  28  30
HETATM   30  C   UNL     1     -11.546  15.836  68.677  1.00  0.00    -0.386 A  
HETATM   31  N   UNL     1     -10.796  16.931  68.492  1.00  0.00    -0.354 NA 
HETATM   32  C   UNL     1     -10.284  17.114  67.261  1.00  0.00    -0.316 A  
HETATM   33  C   UNL     1     -10.455  16.230  66.223  1.00  0.00    -0.314 A  
HETATM   34  C   UNL     1     -11.240  15.129  66.493  1.00  0.00    -0.283 A  
HETATM   35  N   UNL     1     -11.801  14.950  67.706  1.00  0.00    -0.316 NA 
BRANCH  34  36
HETATM   36  C   UNL     1     -11.505  14.057  65.524  1.00  0.00    -0.318 A  
HETATM   37  C   UNL     1     -12.771  13.492  65.358  1.00  0.00    -0.442 A  
HETATM   38  N   UNL     1     -13.082  12.523  64.460  1.00  0.00    -0.839 NA 
HETATM   39  C   UNL     1     -12.079  12.093  63.666  1.00  0.00    -0.551 A  
HETATM   40  C   UNL     1     -10.787  12.581  63.732  1.00  0.00    -0.489 A  
HETATM   41  C   UNL     1     -10.504  13.572  64.669  1.00  0.00    -0.439 A  
ENDBRANCH  34  36
ENDBRANCH  28  30
ENDBRANCH  25  28
ENDBRANCH  20  21
ENDBRANCH   9  17
ENDBRANCH   4   7
TORSDOF 6
ENDMDL
