MODEL      126
REMARK 921   NORMALIZED FREE ENERGY PREDICTED BY IDOCK:   -2.04 KCAL/MOL
REMARK 922        TOTAL FREE ENERGY PREDICTED BY IDOCK:   -2.67 KCAL/MOL
REMARK 923 INTER-LIGAND FREE ENERGY PREDICTED BY IDOCK:   -2.74 KCAL/MOL
REMARK 924 INTRA-LIGAND FREE ENERGY PREDICTED BY IDOCK:    0.07 KCAL/MOL
REMARK 927      BINDING AFFINITY PREDICTED BY RF-SCORE:    0.00 PKD
ROOT
HETATM    1  C   UNL     1      -6.300   7.283  72.122  1.00  0.00    -0.043 C  
HETATM    2  C   UNL     1      -5.970   8.665  71.665  1.00  0.00    -0.054 A  
HETATM    3  C   UNL     1      -6.133   9.070  70.334  1.00  0.00    -0.037 A  
HETATM    4  C   UNL     1      -5.837  10.382  69.953  1.00  0.00    -0.055 A  
HETATM    5  C   UNL     1      -5.355  11.231  70.951  1.00  0.00    -0.117 A  
HETATM    6  N   UNL     1      -5.160  10.875  72.239  1.00  0.00    -0.317 NA 
HETATM    7  C   UNL     1      -5.468   9.602  72.565  1.00  0.00     0.057 A  
ENDROOT
BRANCH   4   8
HETATM    8  C   UNL     1      -5.898  10.892  68.530  1.00  0.00    -0.043 C  
BRANCH   8   9
HETATM    9  N   UNL     1      -7.138  10.636  67.768  1.00  0.00    -0.082 NA 
HETATM   10  C   UNL     1      -8.321  10.392  68.620  1.00  0.00    -0.127 C  
HETATM   11  C   UNL     1      -8.753  11.613  69.443  1.00  0.00     0.722 C  
HETATM   12  C   UNL     1      -9.149  12.744  68.503  1.00  0.00    -0.049 C  
HETATM   13  C   UNL     1     -10.360  13.375  68.508  1.00  0.00    -0.240 C  
HETATM   14  C   UNL     1      -7.979  13.052  67.568  1.00  0.00    -0.177 C  
HETATM   15  C   UNL     1     -10.603  14.497  67.568  1.00  0.00    -0.262 A  
HETATM   16  C   UNL     1      -7.439  11.779  66.870  1.00  0.00    -0.106 C  
HETATM   17  C   UNL     1     -10.767  14.261  66.196  1.00  0.00    -0.295 A  
HETATM   18  C   UNL     1     -11.007  15.325  65.322  1.00  0.00    -0.403 A  
HETATM   19  C   UNL     1     -11.103  16.621  65.821  1.00  0.00     0.168 A  
HETATM   20  C   UNL     1     -10.968  16.866  67.188  1.00  0.00     0.024 A  
HETATM   21 CL   UNL     1     -11.408  17.931  64.748  1.00  0.00     1.337 Cl 
HETATM   22  C   UNL     1     -10.723  15.805  68.072  1.00  0.00    -0.296 A  
HETATM   23  C   UNL     1     -10.631  16.040  69.559  1.00  0.00    -0.290 C  
HETATM   24  C   UNL     1     -11.842  15.463  70.296  1.00  0.00    -0.368 C  
HETATM   25  C   UNL     1     -12.040  13.962  70.333  1.00  0.00    -0.421 A  
HETATM   26  C   UNL     1     -11.410  13.017  69.510  1.00  0.00    -0.155 A  
HETATM   27  N   UNL     1     -11.722  11.692  69.554  1.00  0.00    -0.316 NA 
HETATM   28  C   UNL     1     -12.614  11.272  70.475  1.00  0.00    -0.246 A  
HETATM   29  C   UNL     1     -13.262  12.119  71.346  1.00  0.00    -0.168 A  
HETATM   30  C   UNL     1     -12.985  13.477  71.257  1.00  0.00    -0.384 A  
ENDBRANCH   8   9
ENDBRANCH   4   8
TORSDOF 2
ENDMDL
