MODEL      200
REMARK 921   NORMALIZED FREE ENERGY PREDICTED BY IDOCK:   -3.39 KCAL/MOL
REMARK 922        TOTAL FREE ENERGY PREDICTED BY IDOCK:   -5.90 KCAL/MOL
REMARK 923 INTER-LIGAND FREE ENERGY PREDICTED BY IDOCK:   -5.29 KCAL/MOL
REMARK 924 INTRA-LIGAND FREE ENERGY PREDICTED BY IDOCK:   -0.61 KCAL/MOL
REMARK 927      BINDING AFFINITY PREDICTED BY RF-SCORE:    0.00 PKD
ROOT
HETATM    1  F   UNL     1      -8.694  19.630  68.952  1.00  0.00    -0.383 F  
HETATM    2  C   UNL     1      -9.833  19.623  68.216  1.00  0.00    -0.419 C  
HETATM    3  O   UNL     1      -9.648  18.758  67.109  1.00  0.00    -0.290 OA 
HETATM    4  F   UNL     1      -9.994  20.882  67.734  1.00  0.00    -0.545 F  
ENDROOT
BRANCH   3   5
HETATM    5  C   UNL     1     -10.025  17.457  67.317  1.00  0.00    -0.302 A  
HETATM    6  C   UNL     1      -8.990  16.531  67.557  1.00  0.00    -0.196 A  
HETATM    7  C   UNL     1     -11.662  15.684  67.516  1.00  0.00     0.069 A  
HETATM    8  C   UNL     1      -9.300  15.180  67.752  1.00  0.00    -0.189 A  
HETATM    9  C   UNL     1     -11.359  17.034  67.332  1.00  0.00     0.370 A  
HETATM   10  C   UNL     1     -10.635  14.754  67.700  1.00  0.00    -0.262 A  
BRANCH   6  11
HETATM   11  O   UNL     1      -7.723  17.052  67.597  1.00  0.00    -0.166 OA 
BRANCH  11  12
HETATM   12  C   UNL     1      -7.038  17.034  68.847  1.00  0.00    -0.233 C  
BRANCH  12  13
HETATM   13  C   UNL     1      -6.644  15.615  69.136  1.00  0.00    -0.140 C  
HETATM   14  C   UNL     1      -5.228  15.153  68.900  1.00  0.00    -0.096 C  
HETATM   15  C   UNL     1      -5.750  15.278  70.304  1.00  0.00    -0.144 C  
ENDBRANCH  12  13
ENDBRANCH  11  12
ENDBRANCH   6  11
BRANCH  10  16
HETATM   16  C   UNL     1     -10.985  13.305  67.779  1.00  0.00    -0.258 C  
HETATM   17  O   UNL     1     -12.055  12.914  67.334  1.00  0.00    -0.333 OA 
HETATM   18  H   UNL     1      -9.135  12.938  68.661  1.00  0.00     0.000 HD 
HETATM   19  N   UNL     1      -9.943  12.502  68.216  1.00  0.00    -0.226 N  
BRANCH  19  20
HETATM   20  C   UNL     1      -9.968  11.087  68.062  1.00  0.00    -0.173 A  
HETATM   21  C   UNL     1     -10.716  10.345  68.992  1.00  0.00    -0.228 A  
HETATM   22  C   UNL     1     -10.756   8.964  68.873  1.00  0.00    -0.106 A  
HETATM   23 CL   UNL     1     -11.542  11.106  70.303  1.00  0.00    -0.399 Cl 
HETATM   24  N   UNL     1     -10.133   8.278  67.890  1.00  0.00    -0.191 NA 
HETATM   25  C   UNL     1      -9.445   9.015  66.983  1.00  0.00    -0.163 A  
HETATM   26  C   UNL     1      -9.331  10.402  67.017  1.00  0.00    -0.154 A  
HETATM   27 CL   UNL     1      -8.561  11.188  65.692  1.00  0.00    -0.133 Cl 
ENDBRANCH  19  20
ENDBRANCH  10  16
ENDBRANCH   3   5
TORSDOF 6
ENDMDL
