MODEL      203
REMARK 921   NORMALIZED FREE ENERGY PREDICTED BY IDOCK:   21.26 KCAL/MOL
REMARK 922        TOTAL FREE ENERGY PREDICTED BY IDOCK:   30.97 KCAL/MOL
REMARK 923 INTER-LIGAND FREE ENERGY PREDICTED BY IDOCK:   22.31 KCAL/MOL
REMARK 924 INTRA-LIGAND FREE ENERGY PREDICTED BY IDOCK:    8.66 KCAL/MOL
REMARK 927      BINDING AFFINITY PREDICTED BY RF-SCORE:    0.00 PKD
ROOT
HETATM    1  O   UNL     1      -8.215   7.550  68.019  1.00  0.00    -0.122 OA 
HETATM    2  C   UNL     1      -9.448   8.221  67.784  1.00  0.00    -0.149 C  
HETATM    3  H   UNL     1      -7.491   8.112  67.767  1.00  0.00     0.000 HD 
ENDROOT
BRANCH   2   4
HETATM    4  C   UNL     1     -10.607   7.321  68.186  1.00  0.00    -0.177 C  
BRANCH   4   5
HETATM    5  O   UNL     1     -11.094   7.707  69.471  1.00  0.00    -0.155 OA 
BRANCH   5   6
HETATM    6  C   UNL     1     -10.648   9.026  69.803  1.00  0.00    -0.228 C  
BRANCH   6   7
HETATM    7  C   UNL     1     -11.314  10.041  68.866  1.00  0.00    -0.068 C  
BRANCH   7   8
HETATM    8  N   UNL     1     -10.451  11.182  68.491  1.00  0.00    -0.182 NA 
HETATM    9  C   UNL     1     -10.184  11.255  67.039  1.00  0.00    -0.215 C  
HETATM   10  C   UNL     1     -11.389  11.722  66.185  1.00  0.00    -0.280 C  
HETATM   11  N   UNL     1     -11.954  13.032  66.595  1.00  0.00    -0.403 NA 
HETATM   12  C   UNL     1     -12.249  12.940  68.048  1.00  0.00     0.031 C  
HETATM   13  C   UNL     1     -11.069  12.456  68.929  1.00  0.00    -0.258 C  
BRANCH  11  14
HETATM   14  C   UNL     1     -11.034  14.168  66.263  1.00  0.00    -0.303 C  
BRANCH  14  15
HETATM   15  C   UNL     1     -11.712  15.537  66.454  1.00  0.00     0.327 A  
HETATM   16  C   UNL     1     -11.000  16.716  66.147  1.00  0.00     0.110 A  
HETATM   17  C   UNL     1     -13.069  15.660  66.794  1.00  0.00     3.617 A  
HETATM   18  C   UNL     1     -11.639  17.960  66.140  1.00  0.00     2.069 A  
HETATM   19  C   UNL     1     -12.991  18.054  66.455  1.00  0.00     9.564 A  
HETATM   20  C   UNL     1     -13.703  16.907  66.799  1.00  0.00    10.322 A  
ENDBRANCH  14  15
BRANCH  14  21
HETATM   21  C   UNL     1      -9.682  14.048  66.986  1.00  0.00    -0.256 A  
HETATM   22  C   UNL     1      -7.770  15.159  68.017  1.00  0.00    -0.131 A  
HETATM   23  C   UNL     1      -7.669  12.791  67.549  1.00  0.00    -0.168 A  
HETATM   24  C   UNL     1      -9.069  15.205  67.504  1.00  0.00    -0.187 A  
HETATM   25 CL   UNL     1      -5.464  13.902  68.635  1.00  0.00    -0.082 Cl 
HETATM   26  C   UNL     1      -8.962  12.842  67.023  1.00  0.00    -0.221 A  
HETATM   27  C   UNL     1      -7.075  13.953  68.036  1.00  0.00    -0.144 A  
ENDBRANCH  14  21
ENDBRANCH  11  14
ENDBRANCH   7   8
ENDBRANCH   6   7
ENDBRANCH   5   6
ENDBRANCH   4   5
ENDBRANCH   2   4
TORSDOF 8
ENDMDL
