MODEL       11
REMARK 921   NORMALIZED FREE ENERGY PREDICTED BY IDOCK:   -6.92 KCAL/MOL
REMARK 922        TOTAL FREE ENERGY PREDICTED BY IDOCK:  -10.95 KCAL/MOL
REMARK 923 INTER-LIGAND FREE ENERGY PREDICTED BY IDOCK:  -10.13 KCAL/MOL
REMARK 924 INTRA-LIGAND FREE ENERGY PREDICTED BY IDOCK:   -0.82 KCAL/MOL
REMARK 927      BINDING AFFINITY PREDICTED BY RF-SCORE:    0.00 PKD
ROOT
HETATM    1  C   UNL     1     -10.813   6.075  69.433  1.00  0.00    -0.363 C  
HETATM    2  O   UNL     1     -10.020   7.253  69.474  1.00  0.00    -0.166 OA 
ENDROOT
BRANCH   2   3
HETATM    3  C   UNL     1     -10.677   8.451  69.606  1.00  0.00    -0.198 A  
HETATM    4  C   UNL     1     -10.419   9.407  68.606  1.00  0.00    -0.209 A  
HETATM    5  C   UNL     1     -11.044  10.654  68.665  1.00  0.00    -0.315 A  
HETATM    6  C   UNL     1     -12.198  10.007  70.690  1.00  0.00    -0.360 A  
HETATM    7  C   UNL     1     -11.577   8.753  70.634  1.00  0.00    -0.236 A  
HETATM    8  C   UNL     1     -11.940  10.950  69.695  1.00  0.00    -0.414 A  
BRANCH   4   9
HETATM    9  O   UNL     1      -9.513   9.058  67.637  1.00  0.00    -0.138 OA 
BRANCH   9  10
HETATM   10  C   UNL     1      -8.943  10.104  66.849  1.00  0.00    -0.132 C  
BRANCH  10  11
HETATM   11  C   UNL     1      -9.472  10.102  65.410  1.00  0.00    -0.296 C  
BRANCH  11  12
HETATM   12  C   UNL     1      -9.910  11.483  64.888  1.00  0.00    -0.252 C  
BRANCH  12  13
HETATM   13  N   UNL     1     -10.312  12.380  65.977  1.00  0.00    -0.245 NA 
HETATM   14  C   UNL     1     -11.618  13.011  65.752  1.00  0.00    -0.356 C  
HETATM   15  C   UNL     1     -12.075  13.764  67.018  1.00  0.00    -0.436 C  
HETATM   16  C   UNL     1     -11.004  14.718  67.587  1.00  0.00    -0.292 C  
HETATM   17  C   UNL     1      -9.670  13.956  67.664  1.00  0.00    -0.226 C  
HETATM   18  C   UNL     1      -9.300  13.379  66.305  1.00  0.00    -0.121 C  
BRANCH  16  19
HETATM   19  C   UNL     1     -10.855  16.003  66.816  1.00  0.00    -0.195 A  
HETATM   20  N   UNL     1     -10.967  16.024  65.479  1.00  0.00    -0.258 NA 
HETATM   21  O   UNL     1     -10.602  17.295  65.085  1.00  0.00    -0.686 OA 
HETATM   22  C   UNL     1     -10.291  18.039  66.180  1.00  0.00    -0.366 A  
HETATM   23  C   UNL     1     -10.505  17.293  67.318  1.00  0.00    -0.319 A  
HETATM   24  C   UNL     1     -10.282  17.895  68.570  1.00  0.00    -0.393 A  
HETATM   25  C   UNL     1      -9.791  19.210  68.594  1.00  0.00    -0.485 A  
HETATM   26  C   UNL     1      -9.553  19.901  67.407  1.00  0.00    -0.374 A  
HETATM   27  C   UNL     1      -9.820  19.347  66.159  1.00  0.00    -0.461 A  
HETATM   28  F   UNL     1      -9.044  21.138  67.472  1.00  0.00    -0.418 F  
ENDBRANCH  16  19
ENDBRANCH  12  13
ENDBRANCH  11  12
ENDBRANCH  10  11
ENDBRANCH   9  10
ENDBRANCH   4   9
BRANCH   6  29
HETATM   29  C   UNL     1     -13.123  10.285  71.823  1.00  0.00    -0.465 C  
HETATM   30  O   UNL     1     -13.362  11.450  72.136  1.00  0.00    -0.469 OA 
HETATM   31  C   UNL     1     -13.804   9.139  72.531  1.00  0.00    -0.485 C  
ENDBRANCH   6  29
ENDBRANCH   2   3
TORSDOF 8
ENDMDL
