MODEL       52
REMARK 921   NORMALIZED FREE ENERGY PREDICTED BY IDOCK:   -6.12 KCAL/MOL
REMARK 922        TOTAL FREE ENERGY PREDICTED BY IDOCK:   -8.44 KCAL/MOL
REMARK 923 INTER-LIGAND FREE ENERGY PREDICTED BY IDOCK:   -7.85 KCAL/MOL
REMARK 924 INTRA-LIGAND FREE ENERGY PREDICTED BY IDOCK:   -0.59 KCAL/MOL
REMARK 927      BINDING AFFINITY PREDICTED BY RF-SCORE:    0.00 PKD
ROOT
HETATM    1  O   UNL     1     -10.217   9.596  65.858  1.00  0.00    -0.259 OA 
HETATM    2  C   UNL     1      -9.280  10.075  66.711  1.00  0.00    -0.148 C  
HETATM    3  O   UNL     1      -8.392   9.381  67.175  1.00  0.00    -0.122 OA 
HETATM    4  C   UNL     1      -9.451  11.510  67.050  1.00  0.00    -0.193 A  
HETATM    5  C   UNL     1      -9.968  12.430  66.133  1.00  0.00    -0.267 A  
HETATM    6  C   UNL     1     -10.098  13.779  66.487  1.00  0.00    -0.286 A  
HETATM    7  C   UNL     1      -9.649  14.240  67.733  1.00  0.00    -0.221 A  
HETATM    8  C   UNL     1      -9.149  13.312  68.659  1.00  0.00     0.025 A  
HETATM    9  C   UNL     1      -9.039  11.955  68.313  1.00  0.00    -0.183 A  
ENDROOT
BRANCH   7  10
HETATM   10  N   UNL     1      -9.676  15.629  68.083  1.00  0.00    -0.204 NA 
HETATM   11  N   UNL     1      -8.869  16.500  67.411  1.00  0.00    -0.189 NA 
HETATM   12  C   UNL     1      -8.901  17.605  68.167  1.00  0.00    -0.269 A  
HETATM   13  N   UNL     1      -9.804  17.519  69.200  1.00  0.00    -0.210 NA 
HETATM   14  C   UNL     1     -10.334  16.313  69.106  1.00  0.00    -0.272 A  
BRANCH  12  15
HETATM   15  C   UNL     1      -8.089  18.821  68.001  1.00  0.00    -0.308 A  
HETATM   16  C   UNL     1      -7.110  19.101  68.982  1.00  0.00    -0.377 A  
HETATM   17  C   UNL     1      -6.281  20.224  68.900  1.00  0.00    -0.365 A  
HETATM   18  H   UNL     1      -9.170  20.118  65.193  1.00  0.00     0.000 HD 
HETATM   19  C   UNL     1      -6.410  21.098  67.830  1.00  0.00    -0.401 A  
HETATM   20  O   UNL     1      -9.099  19.512  65.921  1.00  0.00    -0.406 OA 
HETATM   21  C   UNL     1      -7.363  20.847  66.843  1.00  0.00    -0.272 A  
HETATM   22  C   UNL     1      -8.194  19.716  66.926  1.00  0.00    -0.294 A  
ENDBRANCH  12  15
BRANCH  14  23
HETATM   23  C   UNL     1     -11.394  15.840  70.010  1.00  0.00    -0.354 A  
HETATM   24  C   UNL     1     -13.203  14.862  71.934  1.00  0.00    -0.441 A  
HETATM   25  C   UNL     1     -13.249  14.384  70.626  1.00  0.00    -0.203 A  
HETATM   26  C   UNL     1     -11.417  16.360  71.317  1.00  0.00    -0.261 A  
HETATM   27  C   UNL     1     -12.376  14.901  69.665  1.00  0.00    -0.208 A  
HETATM   28  C   UNL     1     -12.311  15.876  72.272  1.00  0.00    -0.567 A  
HETATM   29  O   UNL     1     -12.483  14.471  68.372  1.00  0.00    -0.592 OA 
HETATM   30  H   UNL     1     -13.148  13.834  68.138  1.00  0.00     0.000 HD 
ENDBRANCH  14  23
ENDBRANCH   7  10
TORSDOF 3
ENDMDL
