MODEL        2
REMARK 921   NORMALIZED FREE ENERGY PREDICTED BY IDOCK:   -1.15 KCAL/MOL
REMARK 922        TOTAL FREE ENERGY PREDICTED BY IDOCK:    0.70 KCAL/MOL
REMARK 923 INTER-LIGAND FREE ENERGY PREDICTED BY IDOCK:   -7.18 KCAL/MOL
REMARK 924 INTRA-LIGAND FREE ENERGY PREDICTED BY IDOCK:    7.88 KCAL/MOL
REMARK 927      BINDING AFFINITY PREDICTED BY RF-SCORE:    0.00 PKD
ROOT
HETATM    1  C   UNL     1      -8.981   6.558  64.395  1.00  0.00     0.792 C  
HETATM    2  C   UNL     1      -8.381   7.429  65.461  1.00  0.00    -0.139 A  
HETATM    3  C   UNL     1      -9.154   8.516  65.926  1.00  0.00    -0.237 A  
HETATM    4  C   UNL     1      -8.710   9.387  66.931  1.00  0.00    -0.137 A  
HETATM    5  C   UNL     1      -7.456   9.108  67.494  1.00  0.00    -0.088 A  
HETATM    6  C   UNL     1      -7.090   7.214  65.984  1.00  0.00    -0.073 A  
HETATM    7  C   UNL     1      -6.664   8.050  67.025  1.00  0.00    -0.065 A  
ENDROOT
BRANCH   4   8
HETATM    8  C   UNL     1      -9.533  10.538  67.380  1.00  0.00    -0.172 A  
HETATM    9  C   UNL     1      -9.688  12.878  68.132  1.00  0.00    -0.227 A  
HETATM   10  C   UNL     1      -8.954  11.799  67.600  1.00  0.00    -0.169 A  
HETATM   11  C   UNL     1      -8.959  14.162  68.426  1.00  0.00    -0.189 C  
HETATM   12  C   UNL     1     -10.911  10.422  67.626  1.00  0.00    -0.374 A  
HETATM   13  C   UNL     1     -11.060  12.720  68.418  1.00  0.00    -0.262 A  
HETATM   14  C   UNL     1     -11.664  11.494  68.126  1.00  0.00    -0.357 A  
BRANCH  13  15
HETATM   15  N   UNL     1     -11.741  13.733  69.123  1.00  0.00    -0.310 NA 
HETATM   16  H   UNL     1     -11.699  13.815  70.139  1.00  0.00     0.000 HD 
BRANCH  15  17
HETATM   17  N   UNL     1     -12.401  14.522  68.413  1.00  0.00    -0.605 NA 
HETATM   18  H   UNL     1     -13.417  14.504  68.324  1.00  0.00     0.000 HD 
BRANCH  17  19
HETATM   19  C   UNL     1     -11.549  15.454  67.743  1.00  0.00    -0.228 A  
HETATM   20  H1  UNL     1      -8.871  19.328  70.406  1.00  0.00     0.000 HD 
HETATM   21  S   UNL     1      -7.000  20.114  65.635  1.00  0.00    -0.279 S  
HETATM   22  C   UNL     1      -8.827  18.082  65.775  1.00  0.00     0.384 A  
HETATM   23  C   UNL     1      -8.097  19.031  66.498  1.00  0.00    -0.289 A  
HETATM   24  C   UNL     1      -8.263  19.169  67.869  1.00  0.00    -0.325 A  
HETATM   25  O   UNL     1      -7.972  20.866  64.589  1.00  0.00     0.869 OA 
HETATM   26  O   UNL     1      -6.070  19.294  64.894  1.00  0.00    -0.246 OA 
HETATM   27  N   UNL     1      -9.410  18.625  69.900  1.00  0.00     0.900 NA 
HETATM   28  H   UNL     1     -10.320  17.052  70.314  1.00  0.00     0.000 HD 
HETATM   29  C   UNL     1      -9.730  17.237  66.438  1.00  0.00    -0.303 A  
HETATM   30  O   UNL     1      -6.562  21.144  66.552  1.00  0.00    -0.279 OA 
HETATM   31  C   UNL     1     -10.477  16.296  65.712  1.00  0.00    -0.379 A  
HETATM   32  C   UNL     1      -9.132  18.318  68.551  1.00  0.00    -0.311 A  
HETATM   33  C   UNL     1      -9.888  17.333  67.841  1.00  0.00    -0.283 A  
HETATM   34  O   UNL     1     -10.837  16.413  69.838  1.00  0.00    -0.344 OA 
HETATM   35  C   UNL     1     -11.373  15.425  66.359  1.00  0.00    -0.087 A  
HETATM   36  C   UNL     1     -10.777  16.407  68.454  1.00  0.00    -0.327 A  
HETATM   37  S   UNL     1     -12.264  14.255  65.380  1.00  0.00    -0.390 S  
HETATM   38  H2  UNL     1      -9.375  17.757  70.433  1.00  0.00     0.000 HD 
HETATM   39  O   UNL     1     -13.671  14.374  65.693  1.00  0.00    -0.114 OA 
HETATM   40  O   UNL     1     -11.798  12.819  65.943  1.00  0.00    -0.393 OA 
HETATM   41  O   UNL     1     -11.791  14.351  64.013  1.00  0.00    -0.326 OA 
ENDBRANCH  17  19
ENDBRANCH  15  17
ENDBRANCH  13  15
ENDBRANCH   4   8
BRANCH   6  42
HETATM   42  N   UNL     1      -6.193   6.190  65.603  1.00  0.00    -0.036 NA 
HETATM   43  H   UNL     1      -5.423   6.346  64.952  1.00  0.00     0.000 HD 
BRANCH  42  44
HETATM   44  N   UNL     1      -6.416   5.083  66.126  1.00  0.00    -0.042 NA 
HETATM   45  H   UNL     1      -6.074   4.206  65.731  1.00  0.00     0.000 HD 
BRANCH  44  46
HETATM   46  C   UNL     1      -7.186   5.141  67.318  1.00  0.00    -0.081 A  
HETATM   47  C   UNL     1      -8.370   4.398  67.393  1.00  0.00    -0.100 A  
HETATM   48  H   UNL     1      -5.490   7.183  69.216  1.00  0.00     0.000 HD 
HETATM   49  S   UNL     1      -8.888   3.381  66.038  1.00  0.00    -0.142 S  
HETATM   50  C   UNL     1      -9.190   4.421  68.531  1.00  0.00    -0.186 A  
HETATM   51  O   UNL     1      -5.704   6.662  68.451  1.00  0.00    -0.015 OA 
HETATM   52  C   UNL     1      -8.856   5.193  69.645  1.00  0.00    -0.125 A  
HETATM   53  O   UNL     1      -7.775   2.549  65.628  1.00  0.00    -0.075 OA 
HETATM   54  O   UNL     1      -9.163   4.407  64.830  1.00  0.00    -0.149 OA 
HETATM   55  H1  UNL     1      -5.590   7.557  70.105  1.00  0.00     0.000 HD 
HETATM   56  C   UNL     1      -6.867   5.918  68.462  1.00  0.00    -0.070 A  
HETATM   57  O   UNL     1     -10.160   2.785  66.387  1.00  0.00     0.665 OA 
HETATM   58  C   UNL     1      -9.708   5.175  70.754  1.00  0.00    -0.255 A  
HETATM   59  H2  UNL     1      -5.646   7.148  71.715  1.00  0.00     0.000 HD 
HETATM   60  N   UNL     1      -6.192   7.496  70.926  1.00  0.00    -0.035 NA 
HETATM   61  C   UNL     1      -7.676   5.971  69.645  1.00  0.00    -0.097 A  
HETATM   62  C   UNL     1      -9.385   5.906  71.893  1.00  0.00    -0.151 A  
HETATM   63  O   UNL     1      -9.618   5.813  74.483  1.00  0.00    -0.155 OA 
HETATM   64  C   UNL     1      -8.215   6.657  71.951  1.00  0.00    -0.103 A  
HETATM   65  O   UNL     1     -11.508   6.789  73.100  1.00  0.00    -0.091 OA 
HETATM   66  S   UNL     1     -10.453   5.824  73.303  1.00  0.00    -0.249 S  
HETATM   67  O   UNL     1     -11.091   4.343  73.227  1.00  0.00    -0.251 OA 
HETATM   68  C   UNL     1      -7.389   6.742  70.822  1.00  0.00    -0.078 A  
ENDBRANCH  44  46
ENDBRANCH  42  44
ENDBRANCH   6  42
TORSDOF 7
ENDMDL
