MODEL      208
REMARK 921   NORMALIZED FREE ENERGY PREDICTED BY IDOCK:   -4.27 KCAL/MOL
REMARK 922        TOTAL FREE ENERGY PREDICTED BY IDOCK:  -10.66 KCAL/MOL
REMARK 923 INTER-LIGAND FREE ENERGY PREDICTED BY IDOCK:   -9.83 KCAL/MOL
REMARK 924 INTRA-LIGAND FREE ENERGY PREDICTED BY IDOCK:   -0.83 KCAL/MOL
REMARK 927      BINDING AFFINITY PREDICTED BY RF-SCORE:    0.00 PKD
ROOT
HETATM    1  C   UNL     1      -7.512   8.713  71.080  1.00  0.00    -0.093 C  
HETATM    2  C   UNL     1      -8.739   9.069  70.253  1.00  0.00    -0.184 C  
ENDROOT
BRANCH   2   3
HETATM    3  N   UNL     1     -10.039   8.281  70.599  1.00  0.00    -0.190 N  
BRANCH   3   4
HETATM    4  C   UNL     1     -11.056   9.217  71.314  1.00  0.00    -0.357 C  
HETATM    5  C   UNL     1     -12.074   8.534  72.191  1.00  0.00    -0.449 C  
ENDBRANCH   3   4
BRANCH   3   6
HETATM    6  C   UNL     1      -9.736   7.169  71.631  1.00  0.00    -0.159 C  
BRANCH   6   7
HETATM    7  C   UNL     1      -9.623   5.697  71.247  1.00  0.00    -0.198 A  
HETATM    8  C   UNL     1     -10.068   3.357  71.854  1.00  0.00    -0.156 A  
HETATM    9  C   UNL     1      -8.946   5.199  70.122  1.00  0.00    -0.151 A  
HETATM   10  C   UNL     1     -10.226   4.731  72.080  1.00  0.00    -0.195 A  
HETATM   11  C   UNL     1      -8.836   3.833  69.858  1.00  0.00    -0.147 A  
HETATM   12 CL   UNL     1     -11.167   5.210  73.451  1.00  0.00    -0.378 Cl 
HETATM   13  C   UNL     1      -9.374   2.910  70.737  1.00  0.00    -0.222 A  
ENDBRANCH   6   7
ENDBRANCH   3   6
BRANCH   3  14
HETATM   14  C   UNL     1     -10.570   7.700  69.226  1.00  0.00    -0.201 C  
BRANCH  14  15
HETATM   15  C   UNL     1     -10.492   8.647  67.979  1.00  0.00    -0.197 C  
BRANCH  15  16
HETATM   16  N   UNL     1     -11.207   9.914  68.037  1.00  0.00    -0.521 N  
HETATM   17  H   UNL     1     -12.098   9.978  68.528  1.00  0.00     0.000 HD 
HETATM   18  C   UNL     1     -10.666  11.038  67.419  1.00  0.00    -0.257 C  
HETATM   19  O   UNL     1      -9.528  11.087  66.983  1.00  0.00    -0.170 OA 
BRANCH  18  20
HETATM   20  C   UNL     1     -11.582  12.287  67.425  1.00  0.00    -0.355 C  
HETATM   21  N   UNL     1     -11.663  12.966  68.642  1.00  0.00    -0.306 N  
HETATM   22  O   UNL     1     -12.171  12.636  66.416  1.00  0.00    -0.550 OA 
HETATM   23  H   UNL     1     -11.419  12.502  69.517  1.00  0.00     0.000 HD 
BRANCH  21  24
HETATM   24  C   UNL     1     -12.107  14.354  68.633  1.00  0.00    -0.239 C  
BRANCH  24  25
HETATM   25  C   UNL     1     -11.505  15.234  67.503  1.00  0.00    -0.265 C  
BRANCH  25  26
HETATM   26  N   UNL     1     -10.175  15.938  67.869  1.00  0.00    -0.246 N  
BRANCH  26  27
HETATM   27  C   UNL     1      -9.587  15.338  69.180  1.00  0.00    -0.243 C  
HETATM   28  C   UNL     1      -8.143  14.864  69.087  1.00  0.00    -0.160 C  
ENDBRANCH  26  27
BRANCH  26  29
HETATM   29  C   UNL     1      -9.200  15.756  66.674  1.00  0.00    -0.255 C  
HETATM   30  C   UNL     1      -9.808  15.148  65.422  1.00  0.00    -0.309 C  
ENDBRANCH  26  29
BRANCH  26  31
HETATM   31  C   UNL     1     -10.423  17.471  68.125  1.00  0.00    -0.386 C  
BRANCH  31  32
HETATM   32  C   UNL     1      -9.330  18.466  67.770  1.00  0.00    -0.283 A  
HETATM   33  C   UNL     1      -8.206  18.622  68.608  1.00  0.00    -0.348 A  
HETATM   34  C   UNL     1      -7.254  19.620  68.374  1.00  0.00    -0.355 A  
HETATM   35  C   UNL     1      -7.414  20.498  67.311  1.00  0.00    -0.384 A  
HETATM   36  C   UNL     1      -8.503  20.355  66.458  1.00  0.00    -0.188 A  
HETATM   37  C   UNL     1      -9.447  19.346  66.676  1.00  0.00    -0.350 A  
HETATM   38 CL   UNL     1     -10.763  19.261  65.561  1.00  0.00    -0.387 Cl 
ENDBRANCH  31  32
ENDBRANCH  26  31
ENDBRANCH  25  26
ENDBRANCH  24  25
ENDBRANCH  21  24
ENDBRANCH  18  20
ENDBRANCH  15  16
ENDBRANCH  14  15
ENDBRANCH   3  14
ENDBRANCH   2   3
TORSDOF 15
ENDMDL
