MODEL       25
REMARK 921   NORMALIZED FREE ENERGY PREDICTED BY IDOCK:   -6.39 KCAL/MOL
REMARK 922        TOTAL FREE ENERGY PREDICTED BY IDOCK:   -9.94 KCAL/MOL
REMARK 923 INTER-LIGAND FREE ENERGY PREDICTED BY IDOCK:   -9.33 KCAL/MOL
REMARK 924 INTRA-LIGAND FREE ENERGY PREDICTED BY IDOCK:   -0.60 KCAL/MOL
REMARK 927      BINDING AFFINITY PREDICTED BY RF-SCORE:    0.00 PKD
ROOT
HETATM    1  O   UNL     1     -11.376  11.937  68.411  1.00  0.00    -0.229 OA 
HETATM    2  C   UNL     1     -11.347  13.368  68.259  1.00  0.00    -0.295 C  
HETATM    3  H   UNL     1     -12.260  11.690  68.658  1.00  0.00     0.000 HD 
HETATM    4  C   UNL     1      -9.914  13.768  67.858  1.00  0.00    -0.240 C  
HETATM    5  C   UNL     1     -12.372  13.748  67.170  1.00  0.00    -0.244 C  
HETATM    6  C   UNL     1      -9.586  13.343  66.425  1.00  0.00    -0.257 C  
HETATM    7  C   UNL     1     -11.908  13.344  65.768  1.00  0.00    -0.377 C  
HETATM    8  N   UNL     1     -10.558  13.822  65.432  1.00  0.00    -0.307 NA 
ENDROOT
BRANCH   2   9
HETATM    9  C   UNL     1     -11.741  13.998  69.602  1.00  0.00    -0.368 A  
HETATM   10  C   UNL     1     -11.469  15.350  69.881  1.00  0.00    -0.329 A  
HETATM   11  C   UNL     1     -12.363  13.235  70.609  1.00  0.00    -0.416 A  
HETATM   12  C   UNL     1     -12.384  15.134  72.101  1.00  0.00    -0.358 A  
HETATM   13  C   UNL     1     -11.786  15.914  71.119  1.00  0.00    -0.490 A  
HETATM   14 CL   UNL     1     -12.752  15.821  73.636  1.00  0.00    -0.660 Cl 
HETATM   15  C   UNL     1     -12.681  13.797  71.850  1.00  0.00    -0.347 A  
ENDBRANCH   2   9
BRANCH   8  16
HETATM   16  C   UNL     1     -10.536  15.281  65.227  1.00  0.00    -0.411 C  
BRANCH  16  17
HETATM   17  C   UNL     1      -9.618  16.041  66.189  1.00  0.00    -0.366 C  
BRANCH  17  18
HETATM   18  C   UNL     1     -10.358  17.125  66.972  1.00  0.00    -0.308 C  
BRANCH  18  19
HETATM   19  C   UNL     1      -9.998  18.511  66.475  1.00  0.00    -0.380 C  
HETATM   20  O   UNL     1     -10.613  19.075  65.572  1.00  0.00    -0.557 OA 
BRANCH  19  21
HETATM   21  C   UNL     1      -8.822  19.189  67.076  1.00  0.00    -0.318 A  
HETATM   22  C   UNL     1      -8.445  18.830  68.380  1.00  0.00    -0.374 A  
HETATM   23  C   UNL     1      -7.361  19.455  68.997  1.00  0.00    -0.395 A  
HETATM   24  C   UNL     1      -6.649  20.427  68.303  1.00  0.00    -0.292 A  
HETATM   25  F   UNL     1      -5.608  21.026  68.894  1.00  0.00    -0.331 F  
HETATM   26  C   UNL     1      -6.998  20.785  67.007  1.00  0.00    -0.386 A  
HETATM   27  C   UNL     1      -8.088  20.168  66.387  1.00  0.00    -0.298 A  
ENDBRANCH  19  21
ENDBRANCH  18  19
ENDBRANCH  17  18
ENDBRANCH  16  17
ENDBRANCH   8  16
TORSDOF 6
ENDMDL
