MODEL      146
REMARK 921   NORMALIZED FREE ENERGY PREDICTED BY IDOCK:   -2.62 KCAL/MOL
REMARK 922        TOTAL FREE ENERGY PREDICTED BY IDOCK:   -6.90 KCAL/MOL
REMARK 923 INTER-LIGAND FREE ENERGY PREDICTED BY IDOCK:   -6.82 KCAL/MOL
REMARK 924 INTRA-LIGAND FREE ENERGY PREDICTED BY IDOCK:   -0.07 KCAL/MOL
REMARK 927      BINDING AFFINITY PREDICTED BY RF-SCORE:    0.00 PKD
ROOT
HETATM    1  C   UNL     1     -14.029  14.986  71.089  1.00  0.00    -0.451 C  
HETATM    2  C   UNL     1     -12.625  15.588  71.162  1.00  0.00    -0.509 C  
HETATM    3  C   UNL     1     -11.536  14.837  70.384  1.00  0.00    -0.279 A  
HETATM    4  C   UNL     1     -12.266  15.920  72.613  1.00  0.00    -0.603 C  
HETATM    5  C   UNL     1     -11.384  13.484  70.021  1.00  0.00    -0.028 A  
HETATM    6  N   UNL     1     -10.498  15.544  69.763  1.00  0.00    -0.283 NA 
HETATM    7  C   UNL     1     -10.355  13.443  68.973  1.00  0.00    -0.004 A  
HETATM    8  C   UNL     1      -9.767  14.719  68.891  1.00  0.00    -0.215 A  
ENDROOT
BRANCH   5   9
HETATM    9  C   UNL     1     -12.197  12.321  70.495  1.00  0.00    -0.300 C  
HETATM   10  O   UNL     1     -13.400  12.457  70.722  1.00  0.00     0.293 OA 
HETATM   11  N   UNL     1     -11.506  11.126  70.642  1.00  0.00    -0.398 N  
HETATM   12  H   UNL     1     -10.499  11.151  70.477  1.00  0.00     0.000 HD 
BRANCH  11  13
HETATM   13  C   UNL     1     -12.069   9.873  71.000  1.00  0.00    -0.358 A  
HETATM   14  C   UNL     1     -12.016   7.442  71.157  1.00  0.00    -0.351 A  
HETATM   15  C   UNL     1     -13.275   7.432  71.751  1.00  0.00    -0.371 A  
HETATM   16  C   UNL     1     -13.319   9.851  71.632  1.00  0.00    -0.481 A  
HETATM   17  C   UNL     1     -11.421   8.654  70.777  1.00  0.00    -0.293 A  
HETATM   18  C   UNL     1     -13.932   8.637  71.980  1.00  0.00    -0.506 A  
ENDBRANCH  11  13
ENDBRANCH   5   9
BRANCH   7  19
HETATM   19  C   UNL     1      -9.950  12.301  68.107  1.00  0.00    -0.210 A  
HETATM   20  C   UNL     1      -8.934  11.411  68.512  1.00  0.00    -0.158 A  
HETATM   21  C   UNL     1     -10.136  10.985  66.054  1.00  0.00    -0.297 A  
HETATM   22  C   UNL     1      -9.162  10.094  66.498  1.00  0.00    -0.182 A  
HETATM   23  C   UNL     1     -10.546  12.060  66.860  1.00  0.00    -0.260 A  
HETATM   24  C   UNL     1      -8.568  10.303  67.734  1.00  0.00    -0.118 A  
ENDBRANCH   7  19
BRANCH   8  25
HETATM   25  C   UNL     1      -8.573  15.193  68.101  1.00  0.00    -0.158 A  
HETATM   26  C   UNL     1      -8.695  15.698  66.796  1.00  0.00    -0.306 A  
HETATM   27  C   UNL     1      -6.169  15.615  67.893  1.00  0.00    -0.163 A  
HETATM   28  C   UNL     1      -7.272  15.151  68.631  1.00  0.00    -0.118 A  
HETATM   29  F   UNL     1      -5.316  16.685  65.966  1.00  0.00     0.123 F  
HETATM   30  C   UNL     1      -7.620  16.251  66.094  1.00  0.00     0.248 A  
HETATM   31  C   UNL     1      -6.358  16.194  66.646  1.00  0.00     0.448 A  
ENDBRANCH   8  25
BRANCH   6  32
HETATM   32  C   UNL     1     -10.152  16.940  70.073  1.00  0.00     0.479 C  
BRANCH  32  33
HETATM   33  C   UNL     1     -10.983  18.012  69.345  1.00  0.00     1.188 C  
BRANCH  33  34
HETATM   34  C   UNL     1     -10.392  18.456  67.991  1.00  0.00    -0.384 C  
HETATM   35  O   UNL     1     -10.958  19.681  67.525  1.00  0.00    -0.419 OA 
HETATM   36  H   UNL     1     -10.594  19.955  66.691  1.00  0.00     0.000 HD 
BRANCH  34  37
HETATM   37  C   UNL     1      -8.876  18.687  68.121  1.00  0.00    -0.335 C  
BRANCH  37  38
HETATM   38  C   UNL     1      -8.502  20.150  68.416  1.00  0.00     0.024 C  
HETATM   39  H   UNL     1      -7.484  21.155  69.796  1.00  0.00     0.000 HD 
HETATM   40  O   UNL     1      -7.714  20.252  69.613  1.00  0.00     0.235 OA 
BRANCH  38  41
HETATM   41  C   UNL     1      -7.667  20.732  67.277  1.00  0.00    -0.332 C  
HETATM   42  C   UNL     1      -7.780  19.942  65.993  1.00  0.00    -0.325 C  
HETATM   43  O   UNL     1      -9.023  19.493  65.717  1.00  0.00    -0.381 OA 
HETATM   44  O   UNL     1      -6.841  19.782  65.226  1.00  0.00    -0.289 OA 
ENDBRANCH  38  41
ENDBRANCH  37  38
ENDBRANCH  34  37
ENDBRANCH  33  34
ENDBRANCH  32  33
ENDBRANCH   6  32
TORSDOF 10
ENDMDL
