MODEL       62
REMARK 921   NORMALIZED FREE ENERGY PREDICTED BY IDOCK:   -4.15 KCAL/MOL
REMARK 922        TOTAL FREE ENERGY PREDICTED BY IDOCK:   -4.88 KCAL/MOL
REMARK 923 INTER-LIGAND FREE ENERGY PREDICTED BY IDOCK:   -4.56 KCAL/MOL
REMARK 924 INTRA-LIGAND FREE ENERGY PREDICTED BY IDOCK:   -0.32 KCAL/MOL
REMARK 927      BINDING AFFINITY PREDICTED BY RF-SCORE:    0.00 PKD
ROOT
HETATM    1  O   UNL     1      -8.593  16.648  66.354  1.00  0.00    -0.256 OA 
HETATM    2  C   UNL     1      -8.721  17.354  67.636  1.00  0.00    -0.221 C  
HETATM    3  H   UNL     1      -8.040  17.173  65.789  1.00  0.00     0.000 HD 
HETATM    4  P   UNL     1      -9.431  18.998  67.259  1.00  0.00    -0.326 P  
HETATM    5  O   UNL     1      -6.599  16.144  67.726  1.00  0.00    -0.126 OA 
HETATM    6  P   UNL     1      -7.086  17.564  68.431  1.00  0.00    -0.241 P  
HETATM    7  O   UNL     1      -9.886  19.139  68.831  1.00  0.00    -0.409 OA 
HETATM    8  O   UNL     1     -10.781  18.209  66.717  1.00  0.00    -0.321 OA 
HETATM    9  O   UNL     1      -6.695  18.448  67.092  1.00  0.00    -0.189 OA 
HETATM   10  O   UNL     1      -5.702  17.742  69.103  1.00  0.00    -0.186 OA 
HETATM   11  O   UNL     1     -10.031  20.389  66.939  1.00  0.00    -0.450 OA 
ENDROOT
BRANCH   2  12
HETATM   12  C   UNL     1      -9.633  16.487  68.570  1.00  0.00    -0.233 C  
BRANCH  12  13
HETATM   13  C   UNL     1     -10.049  15.108  68.102  1.00  0.00    -0.222 A  
HETATM   14  C   UNL     1     -11.296  14.893  67.544  1.00  0.00    -0.342 A  
HETATM   15  N   UNL     1     -11.788  13.670  67.223  1.00  0.00    -0.378 NA 
HETATM   16  C   UNL     1     -10.988  12.612  67.480  1.00  0.00    -0.246 A  
HETATM   17  C   UNL     1      -9.726  12.713  68.016  1.00  0.00    -0.215 A  
HETATM   18  C   UNL     1      -9.237  13.981  68.336  1.00  0.00    -0.196 A  
ENDBRANCH  12  13
ENDBRANCH   2  12
TORSDOF 2
ENDMDL
