MODEL        7
REMARK 921   NORMALIZED FREE ENERGY PREDICTED BY IDOCK:   -4.58 KCAL/MOL
REMARK 922        TOTAL FREE ENERGY PREDICTED BY IDOCK:  -16.21 KCAL/MOL
REMARK 923 INTER-LIGAND FREE ENERGY PREDICTED BY IDOCK:  -12.74 KCAL/MOL
REMARK 924 INTRA-LIGAND FREE ENERGY PREDICTED BY IDOCK:   -3.47 KCAL/MOL
REMARK 927      BINDING AFFINITY PREDICTED BY RF-SCORE:    0.00 PKD
ROOT
HETATM    1  C   UNL     1      -6.583  17.863  69.156  1.00  0.00    -0.240 C  
HETATM    2  C   UNL     1      -5.844  18.915  68.350  1.00  0.00    -0.217 C  
ENDROOT
BRANCH   2   3
HETATM    3  C   UNL     1      -6.512  20.289  68.444  1.00  0.00    -0.344 C  
BRANCH   3   4
HETATM    4  C   UNL     1      -7.121  20.651  67.093  1.00  0.00    -0.331 C  
BRANCH   4   5
HETATM    5  N   UNL     1      -8.577  20.698  67.153  1.00  0.00    -0.537 NA 
HETATM    6  H   UNL     1      -9.080  21.581  67.063  1.00  0.00     0.000 HD 
BRANCH   5   7
HETATM    7  C   UNL     1      -9.265  19.488  67.340  1.00  0.00    -0.315 A  
HETATM    8  C   UNL     1      -9.991  19.191  68.501  1.00  0.00    -0.496 A  
HETATM    9  C   UNL     1     -10.598  17.950  68.685  1.00  0.00    -0.158 A  
HETATM   10  C   UNL     1     -10.468  16.948  67.721  1.00  0.00    -0.340 A  
HETATM   11  C   UNL     1      -9.124  18.469  66.386  1.00  0.00    -0.276 A  
HETATM   12  C   UNL     1      -9.722  17.211  66.566  1.00  0.00    -0.299 A  
BRANCH  10  13
HETATM   13  C   UNL     1     -11.115  15.642  68.005  1.00  0.00    -0.335 C  
HETATM   14  O   UNL     1     -11.654  15.380  69.071  1.00  0.00    -0.306 OA 
BRANCH  13  15
HETATM   15  O   UNL     1     -10.997  14.797  66.956  1.00  0.00    -0.308 OA 
BRANCH  15  16
HETATM   16  C   UNL     1     -12.237  14.219  66.509  1.00  0.00    -0.391 C  
BRANCH  16  17
HETATM   17  C   UNL     1     -12.267  14.077  64.987  1.00  0.00    -0.433 C  
BRANCH  17  18
HETATM   18  O   UNL     1     -13.068  12.944  64.635  1.00  0.00    -0.742 OA 
BRANCH  18  19
HETATM   19  C   UNL     1     -12.528  12.259  63.507  1.00  0.00    -0.534 C  
BRANCH  19  20
HETATM   20  C   UNL     1     -11.008  12.354  63.534  1.00  0.00    -0.450 C  
BRANCH  20  21
HETATM   21  O   UNL     1     -10.457  11.065  63.268  1.00  0.00    -0.337 OA 
BRANCH  21  22
HETATM   22  C   UNL     1      -9.151  11.163  62.704  1.00  0.00    -0.330 C  
BRANCH  22  23
HETATM   23  C   UNL     1      -8.200  10.269  63.490  1.00  0.00    -0.159 C  
BRANCH  23  24
HETATM   24  O   UNL     1      -8.867   9.053  63.820  1.00  0.00    -0.143 OA 
BRANCH  24  25
HETATM   25  C   UNL     1      -8.467   8.576  65.103  1.00  0.00    -0.175 C  
BRANCH  25  26
HETATM   26  C   UNL     1      -8.957   9.545  66.169  1.00  0.00    -0.158 C  
BRANCH  26  27
HETATM   27  O   UNL     1     -10.382   9.573  66.150  1.00  0.00    -0.233 OA 
BRANCH  27  28
HETATM   28  C   UNL     1     -10.886  10.678  66.897  1.00  0.00    -0.205 C  
BRANCH  28  29
HETATM   29  C   UNL     1      -9.772  11.236  67.769  1.00  0.00    -0.173 C  
BRANCH  29  30
HETATM   30  O   UNL     1     -10.352  11.951  68.857  1.00  0.00    -0.191 OA 
BRANCH  30  31
HETATM   31  C   UNL     1     -11.749  11.689  68.958  1.00  0.00    -0.324 C  
BRANCH  31  32
HETATM   32  C   UNL     1     -12.157  11.736  70.423  1.00  0.00    -0.352 C  
BRANCH  32  33
HETATM   33  O   UNL     1     -13.106  10.704  70.671  1.00  0.00    -0.318 OA 
BRANCH  33  34
HETATM   34  C   UNL     1     -12.812  10.017  71.884  1.00  0.00    -0.426 C  
BRANCH  34  35
HETATM   35  C   UNL     1     -11.868   8.863  71.581  1.00  0.00    -0.345 C  
BRANCH  35  36
HETATM   36  O   UNL     1     -10.527   9.286  71.819  1.00  0.00    -0.337 OA 
BRANCH  36  37
HETATM   37  C   UNL     1      -9.679   8.953  70.723  1.00  0.00    -0.227 C  
BRANCH  37  38
HETATM   38  C   UNL     1     -10.519   8.322  69.622  1.00  0.00    -0.221 C  
BRANCH  38  39
HETATM   39  O   UNL     1      -9.694   7.462  68.841  1.00  0.00    -0.148 OA 
BRANCH  39  40
HETATM   40  C   UNL     1     -10.242   6.146  68.768  1.00  0.00    -0.184 C  
BRANCH  40  41
HETATM   41  C   UNL     1     -10.947   5.827  70.080  1.00  0.00    -0.311 C  
BRANCH  41  42
HETATM   42  O   UNL     1     -10.025   5.202  70.971  1.00  0.00    -0.184 OA 
HETATM   43  C   UNL     1     -10.598   5.015  72.259  1.00  0.00    -0.206 C  
ENDBRANCH  41  42
ENDBRANCH  40  41
ENDBRANCH  39  40
ENDBRANCH  38  39
ENDBRANCH  37  38
ENDBRANCH  36  37
ENDBRANCH  35  36
ENDBRANCH  34  35
ENDBRANCH  33  34
ENDBRANCH  32  33
ENDBRANCH  31  32
ENDBRANCH  30  31
ENDBRANCH  29  30
ENDBRANCH  28  29
ENDBRANCH  27  28
ENDBRANCH  26  27
ENDBRANCH  25  26
ENDBRANCH  24  25
ENDBRANCH  23  24
ENDBRANCH  22  23
ENDBRANCH  21  22
ENDBRANCH  20  21
ENDBRANCH  19  20
ENDBRANCH  18  19
ENDBRANCH  17  18
ENDBRANCH  16  17
ENDBRANCH  15  16
ENDBRANCH  13  15
ENDBRANCH  10  13
ENDBRANCH   5   7
ENDBRANCH   4   5
ENDBRANCH   3   4
ENDBRANCH   2   3
TORSDOF 33
ENDMDL
