MODEL        4
REMARK 921   NORMALIZED FREE ENERGY PREDICTED BY IDOCK:   -6.07 KCAL/MOL
REMARK 922        TOTAL FREE ENERGY PREDICTED BY IDOCK:  -12.22 KCAL/MOL
REMARK 923 INTER-LIGAND FREE ENERGY PREDICTED BY IDOCK:  -10.87 KCAL/MOL
REMARK 924 INTRA-LIGAND FREE ENERGY PREDICTED BY IDOCK:   -1.36 KCAL/MOL
REMARK 927      BINDING AFFINITY PREDICTED BY RF-SCORE:    0.00 PKD
ROOT
HETATM    1  C   UNL     1     -10.741   5.885  73.264  1.00  0.00    -0.290 C  
HETATM    2  C   UNL     1     -11.162   6.742  72.079  1.00  0.00    -0.297 C  
ENDROOT
BRANCH   2   3
HETATM    3  C   UNL     1     -11.482   8.170  72.521  1.00  0.00    -0.470 C  
BRANCH   3   4
HETATM    4  C   UNL     1     -10.880   9.218  71.577  1.00  0.00    -0.442 C  
HETATM    5  C   UNL     1     -11.845   9.660  70.455  1.00  0.00    -0.284 C  
HETATM    6  C   UNL     1     -13.208  10.189  70.958  1.00  0.00    -0.412 C  
HETATM    7  C   UNL     1     -11.149  10.671  69.519  1.00  0.00    -0.274 C  
HETATM    8  C   UNL     1     -13.138  11.501  71.726  1.00  0.00    -0.503 C  
BRANCH   7   9
HETATM    9  O   UNL     1     -12.082  11.083  68.504  1.00  0.00    -0.573 OA 
BRANCH   9  10
HETATM   10  C   UNL     1     -11.956  12.365  68.069  1.00  0.00    -0.203 C  
HETATM   11  O   UNL     1     -12.184  13.359  68.742  1.00  0.00    -0.295 OA 
BRANCH  10  12
HETATM   12  C   UNL     1     -11.307  12.417  66.712  1.00  0.00    -0.391 C  
BRANCH  12  13
HETATM   13  C   UNL     1     -11.695  13.641  65.887  1.00  0.00    -0.354 C  
HETATM   14  O   UNL     1     -10.908  12.430  63.664  1.00  0.00    -0.411 OA 
HETATM   15  S   UNL     1     -11.991  13.219  64.198  1.00  0.00    -0.462 S  
HETATM   16  O   UNL     1     -13.239  12.221  64.442  1.00  0.00    -0.806 OA 
HETATM   17  O   UNL     1     -12.559  14.343  63.490  1.00  0.00    -0.784 OA 
BRANCH  13  18
HETATM   18  C   UNL     1     -10.601  14.661  65.917  1.00  0.00    -0.311 C  
HETATM   19  O   UNL     1      -9.416  14.393  66.057  1.00  0.00    -0.282 OA 
BRANCH  18  20
HETATM   20  O   UNL     1     -11.118  15.922  65.954  1.00  0.00    -0.203 OA 
BRANCH  20  21
HETATM   21  C   UNL     1     -10.210  16.937  66.415  1.00  0.00    -0.321 C  
HETATM   22  C   UNL     1     -10.625  17.612  67.736  1.00  0.00    -0.380 C  
HETATM   23  C   UNL     1     -10.829  16.592  68.878  1.00  0.00    -0.321 C  
HETATM   24  C   UNL     1      -9.627  18.720  68.145  1.00  0.00    -0.373 C  
HETATM   25  C   UNL     1      -9.579  15.836  69.306  1.00  0.00    -0.270 C  
BRANCH  24  26
HETATM   26  C   UNL     1      -9.474  19.829  67.100  1.00  0.00    -0.471 C  
BRANCH  26  27
HETATM   27  C   UNL     1      -8.005  20.187  66.870  1.00  0.00    -0.356 C  
HETATM   28  C   UNL     1      -7.175  19.900  68.114  1.00  0.00    -0.330 C  
ENDBRANCH  26  27
ENDBRANCH  24  26
ENDBRANCH  20  21
ENDBRANCH  18  20
ENDBRANCH  13  18
ENDBRANCH  12  13
ENDBRANCH  10  12
ENDBRANCH   9  10
ENDBRANCH   7   9
ENDBRANCH   3   4
ENDBRANCH   2   3
TORSDOF 11
ENDMDL
