MODEL       14
REMARK 921   NORMALIZED FREE ENERGY PREDICTED BY IDOCK:   -8.04 KCAL/MOL
REMARK 922        TOTAL FREE ENERGY PREDICTED BY IDOCK:  -10.99 KCAL/MOL
REMARK 923 INTER-LIGAND FREE ENERGY PREDICTED BY IDOCK:  -10.57 KCAL/MOL
REMARK 924 INTRA-LIGAND FREE ENERGY PREDICTED BY IDOCK:   -0.42 KCAL/MOL
REMARK 927      BINDING AFFINITY PREDICTED BY RF-SCORE:    0.00 PKD
ROOT
HETATM    1  C   UNL     1     -11.153   9.979  69.582  1.00  0.00    -0.259 C  
HETATM    2  O   UNL     1     -11.640   8.630  69.749  1.00  0.00     0.120 OA 
HETATM    3  H   UNL     1     -12.215  12.969  70.404  1.00  0.00     0.000 HD 
HETATM    4  C   UNL     1     -11.895   8.294  71.116  1.00  0.00    -0.275 C  
HETATM    5  O   UNL     1     -11.590  12.333  70.078  1.00  0.00    -0.260 OA 
HETATM    6  C   UNL     1     -13.001   9.190  71.691  1.00  0.00    -0.365 C  
HETATM    7  H   UNL     1     -13.381  12.409  71.931  1.00  0.00     0.000 HD 
HETATM    8  O   UNL     1     -13.644  11.500  72.013  1.00  0.00    -0.302 OA 
HETATM    9  O   UNL     1     -13.248   8.949  73.084  1.00  0.00    -0.867 OA 
HETATM   10  C   UNL     1     -12.577  10.654  71.558  1.00  0.00    -0.412 C  
HETATM   11  H   UNL     1     -13.933   9.503  73.440  1.00  0.00     0.000 HD 
HETATM   12  C   UNL     1     -12.170  11.016  70.114  1.00  0.00    -0.344 C  
ENDROOT
BRANCH   1  13
HETATM   13  C   UNL     1     -10.790  10.193  68.115  1.00  0.00    -0.310 A  
HETATM   14  C   UNL     1     -10.003  10.724  65.437  1.00  0.00    -0.330 A  
HETATM   15  C   UNL     1      -9.476  11.021  64.058  1.00  0.00    -0.278 C  
HETATM   16  C   UNL     1     -10.962  11.548  66.059  1.00  0.00    -0.316 A  
HETATM   17  C   UNL     1      -9.858   9.377  67.467  1.00  0.00    -0.220 A  
HETATM   18  C   UNL     1      -9.472   9.639  66.149  1.00  0.00    -0.274 A  
HETATM   19  C   UNL     1     -11.362  11.251  67.382  1.00  0.00    -0.349 A  
BRANCH  16  20
HETATM   20  C   UNL     1     -11.481  12.811  65.398  1.00  0.00    -0.363 C  
BRANCH  20  21
HETATM   21  C   UNL     1     -11.474  14.081  66.206  1.00  0.00    -0.351 A  
HETATM   22  C   UNL     1     -11.871  14.336  67.502  1.00  0.00    -0.429 A  
HETATM   23  C   UNL     1     -11.425  15.619  67.961  1.00  0.00    -0.294 A  
HETATM   24  C   UNL     1     -10.689  16.309  67.011  1.00  0.00    -0.233 A  
HETATM   25  S   UNL     1     -10.763  15.477  65.507  1.00  0.00    -0.393 SA 
BRANCH  24  26
HETATM   26  C   UNL     1      -9.901  17.556  67.143  1.00  0.00    -0.297 A  
HETATM   27  C   UNL     1     -10.467  18.718  67.702  1.00  0.00    -0.495 A  
HETATM   28  C   UNL     1      -9.753  19.919  67.762  1.00  0.00    -0.516 A  
HETATM   29  C   UNL     1      -8.468  19.975  67.246  1.00  0.00    -0.334 A  
HETATM   30  F   UNL     1      -7.796  21.134  67.276  1.00  0.00    -0.389 F  
HETATM   31  C   UNL     1      -7.877  18.847  66.695  1.00  0.00    -0.271 A  
HETATM   32  C   UNL     1      -8.588  17.641  66.645  1.00  0.00    -0.282 A  
ENDBRANCH  24  26
ENDBRANCH  20  21
ENDBRANCH  16  20
ENDBRANCH   1  13
BRANCH   4  33
HETATM   33  C   UNL     1     -12.279   6.812  71.206  1.00  0.00    -0.364 C  
HETATM   34  O   UNL     1     -12.074   6.336  72.539  1.00  0.00    -0.516 OA 
HETATM   35  H   UNL     1     -12.312   5.419  72.595  1.00  0.00     0.000 HD 
ENDBRANCH   4  33
TORSDOF 5
ENDMDL
