MODEL      320
REMARK 921   NORMALIZED FREE ENERGY PREDICTED BY IDOCK:   -4.62 KCAL/MOL
REMARK 922        TOTAL FREE ENERGY PREDICTED BY IDOCK:   -9.82 KCAL/MOL
REMARK 923 INTER-LIGAND FREE ENERGY PREDICTED BY IDOCK:   -8.78 KCAL/MOL
REMARK 924 INTRA-LIGAND FREE ENERGY PREDICTED BY IDOCK:   -1.05 KCAL/MOL
REMARK 927      BINDING AFFINITY PREDICTED BY RF-SCORE:    0.00 PKD
ROOT
HETATM    1 CA   UNL     1      -8.908  14.446  69.453  1.00  0.00    -0.228 Ca 
HETATM    2  O   UNL     2      -6.832   9.127  68.884  1.00  0.00    -0.055 OA 
HETATM    3  O   UNL     3      -9.434  19.733  66.087  1.00  0.00    -0.388 OA 
HETATM    4  H   UNL     2      -6.020   9.185  69.374  1.00  0.00     0.000 HD 
HETATM    5  C   UNL     2      -7.454  10.411  68.869  1.00  0.00    -0.099 C  
HETATM    6  C   UNL     3      -8.603  19.111  67.063  1.00  0.00    -0.290 C  
HETATM    7  H   UNL     3      -9.690  20.600  66.378  1.00  0.00     0.000 HD 
ENDROOT
BRANCH   5   8
HETATM    8  C   UNL     2      -8.773  10.317  68.073  1.00  0.00    -0.122 C  
HETATM    9  O   UNL     2      -8.678   9.205  67.190  1.00  0.00    -0.122 OA 
HETATM   10  H   UNL     2      -9.490   9.147  66.700  1.00  0.00     0.000 HD 
BRANCH   8  11
HETATM   11  C   UNL     2      -9.973  10.084  69.006  1.00  0.00    -0.196 C  
HETATM   12  H   UNL     2     -11.978  10.186  68.934  1.00  0.00     0.000 HD 
HETATM   13  O   UNL     2     -11.237  10.330  68.358  1.00  0.00    -0.265 OA 
BRANCH  11  14
HETATM   14  C   UNL     2     -10.072   8.763  69.808  1.00  0.00    -0.196 C  
HETATM   15  O   UNL     2      -9.198   7.792  69.257  1.00  0.00    -0.146 OA 
HETATM   16  H   UNL     2      -9.259   6.982  69.749  1.00  0.00     0.000 HD 
BRANCH  14  17
HETATM   17  C   UNL     2     -11.475   8.244  70.174  1.00  0.00     0.010 C  
HETATM   18  H   UNL     2     -12.337   6.491  70.211  1.00  0.00     0.000 HD 
HETATM   19  O   UNL     2     -11.471   6.811  69.986  1.00  0.00    -0.338 OA 
BRANCH  17  20
HETATM   20  C   UNL     2     -11.993   8.632  71.559  1.00  0.00    -0.306 C  
HETATM   21  O   UNL     2     -11.914  10.058  71.773  1.00  0.00    -0.354 OA 
HETATM   22  C   UNL     2     -13.476   8.174  71.649  1.00  0.00    -0.332 C  
HETATM   23  H   UNL     2     -12.235  10.299  72.634  1.00  0.00     0.000 HD 
HETATM   24  O   UNL     2     -13.703   7.052  71.122  1.00  0.00    -0.255 OA 
HETATM   25  O   UNL     2     -14.225   9.013  72.217  1.00  0.00    -0.436 OA 
ENDBRANCH  17  20
ENDBRANCH  14  17
ENDBRANCH  11  14
ENDBRANCH   8  11
ENDBRANCH   5   8
BRANCH   6  26
HETATM   26  C   UNL     3      -8.190  17.710  66.592  1.00  0.00    -0.260 C  
HETATM   27  H   UNL     3      -6.518  16.785  66.409  1.00  0.00     0.000 HD 
HETATM   28  O   UNL     3      -6.774  17.652  66.700  1.00  0.00    -0.170 OA 
BRANCH  26  29
HETATM   29  C   UNL     3      -8.911  16.587  67.384  1.00  0.00    -0.199 C  
HETATM   30  O   UNL     3      -8.815  16.884  68.846  1.00  0.00    -0.262 OA 
HETATM   31  H   UNL     3      -9.256  16.196  69.331  1.00  0.00     0.000 HD 
BRANCH  29  32
HETATM   32  C   UNL     3     -10.437  16.530  67.157  1.00  0.00    -0.300 C  
HETATM   33  H   UNL     3     -12.009  16.373  68.334  1.00  0.00     0.000 HD 
HETATM   34  O   UNL     3     -11.070  16.408  68.473  1.00  0.00    -0.341 OA 
BRANCH  32  35
HETATM   35  C   UNL     3     -11.135  15.748  66.034  1.00  0.00    -0.085 C  
HETATM   36  H   UNL     3     -11.115  15.830  64.102  1.00  0.00     0.000 HD 
HETATM   37  O   UNL     3     -10.684  16.314  64.797  1.00  0.00    -0.680 OA 
BRANCH  35  38
HETATM   38  C   UNL     3     -10.990  14.231  66.063  1.00  0.00    -0.312 C  
HETATM   39  C   UNL     3     -12.302  13.547  65.597  1.00  0.00    -0.476 C  
HETATM   40  O   UNL     3     -10.678  13.768  67.392  1.00  0.00    -0.270 OA 
HETATM   41  O   UNL     3     -13.225  14.324  65.198  1.00  0.00    -0.686 OA 
HETATM   42  O   UNL     3     -12.369  12.322  65.894  1.00  0.00    -0.618 OA 
HETATM   43  H   UNL     3     -10.587  12.822  67.410  1.00  0.00     0.000 HD 
ENDBRANCH  35  38
ENDBRANCH  32  35
ENDBRANCH  29  32
ENDBRANCH  26  29
ENDBRANCH   6  26
TORSDOF 10
ENDMDL
