MODEL      137
REMARK 921   NORMALIZED FREE ENERGY PREDICTED BY IDOCK:   -1.05 KCAL/MOL
REMARK 922        TOTAL FREE ENERGY PREDICTED BY IDOCK:   -1.85 KCAL/MOL
REMARK 923 INTER-LIGAND FREE ENERGY PREDICTED BY IDOCK:   -1.43 KCAL/MOL
REMARK 924 INTRA-LIGAND FREE ENERGY PREDICTED BY IDOCK:   -0.42 KCAL/MOL
REMARK 927      BINDING AFFINITY PREDICTED BY RF-SCORE:    0.00 PKD
ROOT
HETATM    1  C   UNL     1      -7.659  17.206  67.326  1.00  0.00    -0.167 C  
HETATM    2  O   UNL     1      -8.437  17.141  66.134  1.00  0.00    -0.406 OA 
ENDROOT
BRANCH   2   3
HETATM    3  C   UNL     1      -9.074  15.958  65.877  1.00  0.00    -0.269 A  
HETATM    4  C   UNL     1     -10.180  15.942  65.018  1.00  0.00    -0.042 A  
HETATM    5  C   UNL     1     -10.816  14.720  64.758  1.00  0.00    -0.395 A  
HETATM    6  C   UNL     1      -9.194  13.526  66.096  1.00  0.00     0.029 A  
HETATM    7  C   UNL     1     -10.319  13.504  65.279  1.00  0.00    -0.344 A  
HETATM    8  C   UNL     1      -8.604  14.742  66.396  1.00  0.00     0.042 A  
HETATM    9  C   UNL     1     -10.848  12.229  65.059  1.00  0.00    -0.298 A  
HETATM   10  N   UNL     1     -12.013  12.040  64.306  1.00  0.00    -0.355 NA 
HETATM   11  N   UNL     1     -10.306  11.112  65.568  1.00  0.00    -0.261 NA 
HETATM   12  H1  UNL     1     -12.398  11.109  64.146  1.00  0.00     0.000 HD 
HETATM   13  C   UNL     1      -9.198  11.232  66.314  1.00  0.00    -0.200 A  
HETATM   14  H2  UNL     1     -11.874  12.482  63.398  1.00  0.00     0.000 HD 
HETATM   15  N   UNL     1      -8.645  12.419  66.593  1.00  0.00    -0.130 NA 
BRANCH   4  16
HETATM   16  O   UNL     1     -10.770  16.988  64.360  1.00  0.00    -0.436 OA 
HETATM   17  C   UNL     1     -11.885  17.630  64.961  1.00  0.00     3.188 C  
ENDBRANCH   4  16
BRANCH  13  18
HETATM   18  N   UNL     1      -8.612  10.104  66.873  1.00  0.00    -0.126 NA 
HETATM   19  C   UNL     1      -6.745   8.479  66.912  1.00  0.00    -0.062 C  
HETATM   20  C   UNL     1      -7.536   9.497  66.070  1.00  0.00    -0.100 C  
HETATM   21  N   UNL     1      -7.621   7.530  67.613  1.00  0.00    -0.110 N  
HETATM   22  C   UNL     1      -8.690   8.184  68.386  1.00  0.00    -0.134 C  
HETATM   23  C   UNL     1      -7.149   6.228  67.817  1.00  0.00    -0.081 C  
HETATM   24  O   UNL     1      -6.040   5.901  67.392  1.00  0.00    -0.017 OA 
HETATM   25  C   UNL     1      -9.516   9.137  67.504  1.00  0.00    -0.139 C  
BRANCH  23  26
HETATM   26  C   UNL     1      -7.969   5.264  68.534  1.00  0.00    -0.087 A  
HETATM   27  C   UNL     1      -8.201   5.146  69.894  1.00  0.00    -0.086 A  
HETATM   28  C   UNL     1      -9.042   4.024  70.077  1.00  0.00    -0.187 A  
HETATM   29  C   UNL     1      -9.246   3.496  68.825  1.00  0.00    -0.163 A  
HETATM   30  O   UNL     1      -8.581   4.221  67.889  1.00  0.00    -0.097 OA 
ENDBRANCH  23  26
ENDBRANCH  13  18
ENDBRANCH   2   3
TORSDOF 4
ENDMDL
