MODEL       87
REMARK 921   NORMALIZED FREE ENERGY PREDICTED BY IDOCK:   -2.45 KCAL/MOL
REMARK 922        TOTAL FREE ENERGY PREDICTED BY IDOCK:   -3.32 KCAL/MOL
REMARK 923 INTER-LIGAND FREE ENERGY PREDICTED BY IDOCK:   -2.97 KCAL/MOL
REMARK 924 INTRA-LIGAND FREE ENERGY PREDICTED BY IDOCK:   -0.35 KCAL/MOL
REMARK 927      BINDING AFFINITY PREDICTED BY RF-SCORE:    0.00 PKD
ROOT
HETATM    1  C   UNL     1     -10.108   8.164  66.274  1.00  0.00    -0.074 C  
HETATM    2  C   UNL     1      -9.243   9.406  66.535  1.00  0.00    -0.202 C  
HETATM    3  C   UNL     1      -9.083  10.350  65.306  1.00  0.00    -0.227 C  
HETATM    4  C   UNL     1      -7.887   8.960  67.090  1.00  0.00    -0.096 C  
HETATM    5  C   UNL     1     -10.410  10.957  64.906  1.00  0.00    -0.371 C  
HETATM    6  C   UNL     1      -8.436   9.689  64.087  1.00  0.00    -0.186 C  
HETATM    7  C   UNL     1     -10.557  12.200  64.421  1.00  0.00    -0.363 C  
HETATM    8  C   UNL     1     -11.880  12.886  64.123  1.00  0.00    -0.479 C  
HETATM    9  C   UNL     1     -12.328  13.909  65.237  1.00  0.00    -0.485 C  
HETATM   10  C   UNL     1     -13.012  11.889  63.786  1.00  0.00    -0.290 C  
HETATM   11  C   UNL     1     -12.513  13.225  66.598  1.00  0.00    -0.129 C  
HETATM   12  C   UNL     1     -11.209  13.414  67.359  1.00  0.00    -0.311 C  
HETATM   13  C   UNL     1     -10.399  14.515  66.645  1.00  0.00    -0.274 C  
HETATM   14  C   UNL     1      -9.738  15.482  67.627  1.00  0.00    -0.212 C  
HETATM   15  C   UNL     1      -9.763  16.926  67.195  1.00  0.00    -0.253 C  
HETATM   16  C   UNL     1      -9.139  15.036  68.753  1.00  0.00    -0.197 C  
HETATM   17  C   UNL     1     -10.688  15.643  64.284  1.00  0.00     0.581 C  
HETATM   18  C   UNL     1     -11.145  17.408  66.734  1.00  0.00     0.372 C  
HETATM   19  C   UNL     1     -11.365  15.117  65.571  1.00  0.00    -0.274 C  
HETATM   20  C   UNL     1     -12.104  16.311  66.231  1.00  0.00     1.919 C  
ENDROOT
BRANCH  16  21
HETATM   21  C   UNL     1      -8.224  15.808  69.560  1.00  0.00    -0.136 C  
HETATM   22  C   UNL     1      -6.970  16.194  69.255  1.00  0.00    -0.210 C  
HETATM   23  C   UNL     1      -6.135  15.724  68.077  1.00  0.00    -0.149 C  
HETATM   24  C   UNL     1      -5.811  16.888  67.133  1.00  0.00    -0.172 C  
HETATM   25  C   UNL     1      -5.218  18.086  67.874  1.00  0.00    -0.151 C  
HETATM   26  O   UNL     1      -6.985  17.287  66.425  1.00  0.00    -0.229 OA 
HETATM   27  C   UNL     1      -6.055  18.501  69.090  1.00  0.00    -0.247 C  
HETATM   28  H   UNL     1      -6.785  18.008  65.840  1.00  0.00     0.000 HD 
HETATM   29  C   UNL     1      -6.355  17.337  70.053  1.00  0.00     0.079 C  
HETATM   30  C   UNL     1      -5.146  16.925  70.884  1.00  0.00    -0.209 C  
ENDBRANCH  16  21
TORSDOF 1
ENDMDL
