MODEL      162
REMARK 921   NORMALIZED FREE ENERGY PREDICTED BY IDOCK:   -4.43 KCAL/MOL
REMARK 922        TOTAL FREE ENERGY PREDICTED BY IDOCK:   -8.41 KCAL/MOL
REMARK 923 INTER-LIGAND FREE ENERGY PREDICTED BY IDOCK:   -7.40 KCAL/MOL
REMARK 924 INTRA-LIGAND FREE ENERGY PREDICTED BY IDOCK:   -1.00 KCAL/MOL
REMARK 927      BINDING AFFINITY PREDICTED BY RF-SCORE:    0.00 PKD
ROOT
HETATM    1  C   UNL     1     -10.225   5.216  69.740  1.00  0.00    -0.357 C  
HETATM    2  C   UNL     1     -11.119   6.417  69.465  1.00  0.00    -0.396 C  
ENDROOT
BRANCH   2   3
HETATM    3  N   UNL     1     -10.368   7.629  69.122  1.00  0.00    -0.211 N  
BRANCH   3   4
HETATM    4  C   UNL     1      -9.493   8.207  70.148  1.00  0.00    -0.167 C  
HETATM    5  C   UNL     1     -10.221   9.009  71.211  1.00  0.00    -0.384 C  
ENDBRANCH   3   4
BRANCH   3   6
HETATM    6  C   UNL     1     -10.384   8.023  67.784  1.00  0.00    -0.231 C  
HETATM    7  O   UNL     1      -9.759   7.411  66.919  1.00  0.00    -0.178 OA 
BRANCH   6   8
HETATM    8  N   UNL     1     -11.182   9.118  67.512  1.00  0.00    -0.293 N  
HETATM    9  H   UNL     1     -12.150   8.966  67.230  1.00  0.00     0.000 HD 
BRANCH   8  10
HETATM   10  C   UNL     1     -10.700  10.436  67.613  1.00  0.00    -0.286 A  
HETATM   11  C   UNL     1      -9.575  10.866  66.913  1.00  0.00    -0.203 A  
HETATM   12  C   UNL     1      -9.165  12.200  66.989  1.00  0.00    -0.202 A  
HETATM   13  C   UNL     1      -9.885  13.135  67.745  1.00  0.00    -0.228 A  
HETATM   14  C   UNL     1     -11.383  11.339  68.427  1.00  0.00    -0.348 A  
HETATM   15  C   UNL     1     -11.001  12.692  68.478  1.00  0.00    -0.292 A  
BRANCH  13  16
HETATM   16  O   UNL     1      -9.588  14.471  67.770  1.00  0.00    -0.209 OA 
BRANCH  16  17
HETATM   17  C   UNL     1      -8.763  14.986  66.712  1.00  0.00    -0.260 C  
BRANCH  17  18
HETATM   18  C   UNL     1      -7.586  15.758  67.324  1.00  0.00    -0.210 C  
HETATM   19  H   UNL     1      -5.669  15.435  67.605  1.00  0.00     0.000 HD 
HETATM   20  O   UNL     1      -6.398  14.957  67.226  1.00  0.00    -0.310 OA 
BRANCH  18  21
HETATM   21  C   UNL     1      -7.318  17.114  66.643  1.00  0.00    -0.250 C  
BRANCH  21  22
HETATM   22  N   UNL     1      -6.712  18.108  67.537  1.00  0.00    -0.189 NA 
HETATM   23  C   UNL     1      -7.506  19.339  67.735  1.00  0.00    -0.257 C  
HETATM   24  H   UNL     1      -5.773  18.344  67.216  1.00  0.00     0.000 HD 
HETATM   25  C   UNL     1      -6.665  20.277  68.623  1.00  0.00    -0.294 C  
HETATM   26  C   UNL     1      -8.827  19.052  68.471  1.00  0.00    -0.398 C  
HETATM   27  C   UNL     1      -7.788  20.057  66.405  1.00  0.00    -0.326 C  
ENDBRANCH  21  22
ENDBRANCH  18  21
ENDBRANCH  17  18
ENDBRANCH  16  17
ENDBRANCH  13  16
BRANCH  15  28
HETATM   28  C   UNL     1     -11.918  13.565  69.273  1.00  0.00    -0.330 C  
HETATM   29  O   UNL     1     -12.392  14.574  68.747  1.00  0.00    -0.189 OA 
HETATM   30  C   UNL     1     -12.314  13.201  70.679  1.00  0.00    -0.405 C  
ENDBRANCH  15  28
ENDBRANCH   8  10
ENDBRANCH   6   8
ENDBRANCH   3   6
ENDBRANCH   2   3
TORSDOF 11
ENDMDL
