MODEL      109
REMARK 921   NORMALIZED FREE ENERGY PREDICTED BY IDOCK:   -5.82 KCAL/MOL
REMARK 922        TOTAL FREE ENERGY PREDICTED BY IDOCK:  -10.19 KCAL/MOL
REMARK 923 INTER-LIGAND FREE ENERGY PREDICTED BY IDOCK:   -9.62 KCAL/MOL
REMARK 924 INTRA-LIGAND FREE ENERGY PREDICTED BY IDOCK:   -0.58 KCAL/MOL
REMARK 927      BINDING AFFINITY PREDICTED BY RF-SCORE:    0.00 PKD
ROOT
HETATM    1  C   UNL     1     -10.754   4.583  74.194  1.00  0.00    -0.259 C  
HETATM    2  N   UNL     1     -10.521   5.815  73.491  1.00  0.00    -0.238 N  
HETATM    3  C   UNL     1     -10.517   5.860  72.114  1.00  0.00    -0.207 C  
HETATM    4  H   UNL     1     -10.356   6.670  74.021  1.00  0.00     0.000 HD 
HETATM    5  O   UNL     1     -10.758   4.891  71.402  1.00  0.00    -0.104 OA 
ENDROOT
BRANCH   3   6
HETATM    6  C   UNL     1     -10.187   7.195  71.522  1.00  0.00    -0.197 A  
HETATM    7  C   UNL     1     -11.171   8.174  71.497  1.00  0.00    -0.307 A  
HETATM    8  C   UNL     1     -10.836   9.420  70.982  1.00  0.00    -0.336 A  
HETATM    9  C   UNL     1      -9.564   9.627  70.458  1.00  0.00    -0.261 A  
HETATM   10  N   UNL     1      -8.926   7.369  71.038  1.00  0.00    -0.151 NA 
HETATM   11  C   UNL     1      -8.652   8.583  70.511  1.00  0.00    -0.147 A  
BRANCH   8  12
HETATM   12  O   UNL     1     -11.725  10.466  70.884  1.00  0.00    -0.335 OA 
BRANCH  12  13
HETATM   13  C   UNL     1     -11.679  11.295  69.783  1.00  0.00    -0.349 A  
HETATM   14  C   UNL     1     -11.988  12.638  70.009  1.00  0.00    -0.377 A  
HETATM   15  C   UNL     1     -12.016  13.526  68.937  1.00  0.00    -0.341 A  
HETATM   16  F   UNL     1     -12.327  14.812  69.158  1.00  0.00    -0.308 F  
HETATM   17  C   UNL     1     -11.798  13.084  67.631  1.00  0.00    -0.351 A  
HETATM   18  C   UNL     1     -11.435  10.847  68.479  1.00  0.00    -0.380 A  
HETATM   19  C   UNL     1     -11.487  11.741  67.405  1.00  0.00    -0.375 A  
BRANCH  17  20
HETATM   20  N   UNL     1     -11.915  14.003  66.563  1.00  0.00    -0.424 N  
HETATM   21  H   UNL     1     -12.821  14.418  66.347  1.00  0.00     0.000 HD 
BRANCH  20  22
HETATM   22  C   UNL     1     -10.801  14.343  65.807  1.00  0.00    -0.307 C  
HETATM   23  O   UNL     1     -10.706  14.190  64.592  1.00  0.00    -0.416 OA 
BRANCH  22  24
HETATM   24  N   UNL     1      -9.804  14.870  66.607  1.00  0.00    -0.250 N  
HETATM   25  H   UNL     1      -9.156  14.236  67.074  1.00  0.00     0.000 HD 
BRANCH  24  26
HETATM   26  C   UNL     1      -9.661  16.258  66.793  1.00  0.00    -0.239 A  
HETATM   27  C   UNL     1     -10.774  16.994  67.188  1.00  0.00    -0.177 A  
HETATM   28  C   UNL     1     -10.660  18.370  67.377  1.00  0.00    -0.445 A  
HETATM   29  C   UNL     1      -9.458  19.036  67.105  1.00  0.00    -0.307 A  
HETATM   30 CL   UNL     1      -9.465  20.743  67.356  1.00  0.00    -0.526 Cl 
HETATM   31  C   UNL     1      -8.341  18.323  66.656  1.00  0.00    -0.281 A  
HETATM   32  C   UNL     1      -8.451  16.915  66.540  1.00  0.00    -0.307 A  
HETATM   33  C   UNL     1      -7.036  18.960  66.247  1.00  0.00    -0.243 C  
HETATM   34  F   UNL     1      -5.989  18.528  67.003  1.00  0.00    -0.153 F  
HETATM   35  F   UNL     1      -6.709  18.642  64.957  1.00  0.00    -0.284 F  
HETATM   36  F   UNL     1      -6.985  20.318  66.295  1.00  0.00    -0.235 F  
ENDBRANCH  24  26
ENDBRANCH  22  24
ENDBRANCH  20  22
ENDBRANCH  17  20
ENDBRANCH  12  13
ENDBRANCH   8  12
ENDBRANCH   3   6
TORSDOF 7
ENDMDL
