MODEL        1
REMARK 921   NORMALIZED FREE ENERGY PREDICTED BY IDOCK:   -7.52 KCAL/MOL
REMARK 922        TOTAL FREE ENERGY PREDICTED BY IDOCK:  -12.51 KCAL/MOL
REMARK 923 INTER-LIGAND FREE ENERGY PREDICTED BY IDOCK:  -11.04 KCAL/MOL
REMARK 924 INTRA-LIGAND FREE ENERGY PREDICTED BY IDOCK:   -1.47 KCAL/MOL
REMARK 927      BINDING AFFINITY PREDICTED BY RF-SCORE:    0.00 PKD
ROOT
HETATM    1  C   UNL     1      -9.828   3.348  71.707  1.00  0.00    -0.159 C  
HETATM    2  O   UNL     1      -9.380   4.507  72.402  1.00  0.00    -0.123 OA 
ENDROOT
BRANCH   2   3
HETATM    3  C   UNL     1     -10.139   5.641  72.284  1.00  0.00    -0.187 A  
HETATM    4  C   UNL     1     -11.537   5.619  72.213  1.00  0.00    -0.244 A  
HETATM    5  C   UNL     1     -12.296   6.765  72.042  1.00  0.00    -0.271 A  
HETATM    6  C   UNL     1     -11.648   8.010  71.990  1.00  0.00    -0.369 A  
HETATM    7  C   UNL     1     -10.241   8.052  72.115  1.00  0.00    -0.308 A  
HETATM    8  C   UNL     1     -12.464   9.144  71.786  1.00  0.00    -0.372 A  
HETATM    9  C   UNL     1     -13.844   9.004  71.656  1.00  0.00    -0.422 A  
HETATM   10  C   UNL     1      -9.484   6.878  72.212  1.00  0.00    -0.140 A  
HETATM   11  N   UNL     1     -13.624   6.625  71.912  1.00  0.00    -0.072 NA 
HETATM   12  C   UNL     1     -14.367   7.730  71.714  1.00  0.00    -0.470 A  
BRANCH   8  13
HETATM   13  O   UNL     1     -11.841  10.374  71.804  1.00  0.00    -0.147 OA 
BRANCH  13  14
HETATM   14  C   UNL     1     -11.813  11.160  70.678  1.00  0.00    -0.302 A  
HETATM   15  C   UNL     1     -11.485  10.498  69.498  1.00  0.00    -0.339 A  
HETATM   16  C   UNL     1     -11.502  11.178  68.278  1.00  0.00    -0.373 A  
HETATM   17  C   UNL     1     -11.848  12.529  68.223  1.00  0.00    -0.309 A  
HETATM   18  C   UNL     1     -12.169  12.505  70.632  1.00  0.00    -0.365 A  
HETATM   19  C   UNL     1     -12.160  13.195  69.413  1.00  0.00    -0.285 A  
BRANCH  17  20
HETATM   20  N   UNL     1     -11.911  13.262  67.017  1.00  0.00    -0.385 N  
HETATM   21  H   UNL     1     -12.838  13.489  66.659  1.00  0.00     0.000 HD 
HETATM   22  C   UNL     1     -10.831  13.697  66.279  1.00  0.00    -0.282 C  
HETATM   23  O   UNL     1      -9.647  13.486  66.485  1.00  0.00    -0.269 OA 
BRANCH  22  24
HETATM   24  C   UNL     1     -11.186  14.536  65.093  1.00  0.00    -0.367 C  
HETATM   25  C   UNL     1     -11.195  13.827  63.741  1.00  0.00     0.195 C  
HETATM   26  C   UNL     1     -12.488  14.277  64.340  1.00  0.00    -0.328 C  
BRANCH  24  27
HETATM   27  C   UNL     1     -10.706  15.946  65.197  1.00  0.00    -0.429 C  
HETATM   28  O   UNL     1     -10.975  16.727  64.294  1.00  0.00    -0.933 OA 
HETATM   29  N   UNL     1      -9.985  16.225  66.342  1.00  0.00    -0.282 N  
HETATM   30  H   UNL     1      -9.772  15.458  66.980  1.00  0.00     0.000 HD 
BRANCH  29  31
HETATM   31  C   UNL     1      -9.531  17.514  66.670  1.00  0.00    -0.275 A  
HETATM   32  C   UNL     1     -10.421  18.560  66.942  1.00  0.00    -0.434 A  
HETATM   33  C   UNL     1      -9.941  19.845  67.195  1.00  0.00    -0.557 A  
HETATM   34  C   UNL     1      -8.574  20.081  67.149  1.00  0.00    -0.335 A  
HETATM   35  C   UNL     1      -7.677  19.044  66.914  1.00  0.00    -0.253 A  
HETATM   36  F   UNL     1      -8.113  21.325  67.329  1.00  0.00    -0.335 F  
HETATM   37  C   UNL     1      -8.154  17.747  66.710  1.00  0.00    -0.265 A  
ENDBRANCH  29  31
ENDBRANCH  24  27
ENDBRANCH  22  24
ENDBRANCH  17  20
ENDBRANCH  13  14
ENDBRANCH   8  13
BRANCH  10  38
HETATM   38  O   UNL     1      -8.131   7.092  72.276  1.00  0.00    -0.097 OA 
HETATM   39  C   UNL     1      -7.686   7.937  73.332  1.00  0.00    -0.149 C  
ENDBRANCH  10  38
ENDBRANCH   2   3
TORSDOF 8
ENDMDL
