MODEL       31
REMARK 921   NORMALIZED FREE ENERGY PREDICTED BY IDOCK:   -5.24 KCAL/MOL
REMARK 922        TOTAL FREE ENERGY PREDICTED BY IDOCK:   -6.76 KCAL/MOL
REMARK 923 INTER-LIGAND FREE ENERGY PREDICTED BY IDOCK:   -6.25 KCAL/MOL
REMARK 924 INTRA-LIGAND FREE ENERGY PREDICTED BY IDOCK:   -0.51 KCAL/MOL
REMARK 927      BINDING AFFINITY PREDICTED BY RF-SCORE:    0.00 PKD
ROOT
HETATM    1  C   UNL     1     -10.197  17.056  67.486  1.00  0.00    -0.323 C  
HETATM    2  C   UNL     1      -9.478  16.556  66.230  1.00  0.00    -0.310 C  
HETATM    3  C   UNL     1      -8.591  15.363  66.595  1.00  0.00    -0.318 C  
ENDROOT
BRANCH   2   4
HETATM    4  N   UNL     1     -10.491  16.210  65.226  1.00  0.00    -0.572 NA 
HETATM    5  H   UNL     1     -10.220  16.560  64.307  1.00  0.00     0.000 HD 
BRANCH   4   6
HETATM    6  C   UNL     1     -10.800  14.773  65.162  1.00  0.00    -0.404 C  
BRANCH   6   7
HETATM    7  C   UNL     1     -12.174  14.463  65.812  1.00  0.00    -0.343 C  
HETATM    8  H   UNL     1     -13.883  13.599  65.288  1.00  0.00     0.000 HD 
HETATM    9  O   UNL     1     -13.041  13.790  64.891  1.00  0.00    -0.716 OA 
BRANCH   7  10
HETATM   10  C   UNL     1     -12.019  13.634  67.072  1.00  0.00    -0.448 A  
HETATM   11  C   UNL     1     -11.910  12.233  67.033  1.00  0.00    -0.329 A  
HETATM   12  C   UNL     1     -11.760  11.517  68.216  1.00  0.00    -0.301 A  
HETATM   13  O   UNL     1     -11.667  10.151  68.227  1.00  0.00    -0.673 OA 
HETATM   14  C   UNL     1     -11.707  12.177  69.440  1.00  0.00    -0.329 A  
HETATM   15  H   UNL     1     -11.565   9.662  69.034  1.00  0.00     0.000 HD 
HETATM   16  C   UNL     1     -11.797  13.557  69.503  1.00  0.00    -0.392 A  
HETATM   17  O   UNL     1     -11.573  11.462  70.594  1.00  0.00    -0.448 OA 
HETATM   18  C   UNL     1     -11.951  14.285  68.320  1.00  0.00    -0.346 A  
HETATM   19  H   UNL     1     -11.537  11.913  71.430  1.00  0.00     0.000 HD 
ENDBRANCH   7  10
ENDBRANCH   6   7
ENDBRANCH   4   6
ENDBRANCH   2   4
TORSDOF 4
ENDMDL
