MODEL       63
REMARK 921   NORMALIZED FREE ENERGY PREDICTED BY IDOCK:   -4.81 KCAL/MOL
REMARK 922        TOTAL FREE ENERGY PREDICTED BY IDOCK:  -10.15 KCAL/MOL
REMARK 923 INTER-LIGAND FREE ENERGY PREDICTED BY IDOCK:   -8.85 KCAL/MOL
REMARK 924 INTRA-LIGAND FREE ENERGY PREDICTED BY IDOCK:   -1.30 KCAL/MOL
REMARK 927      BINDING AFFINITY PREDICTED BY RF-SCORE:    0.00 PKD
ROOT
HETATM    1  C   UNL     1      -9.878   4.493  71.719  1.00  0.00    -0.252 C  
HETATM    2  C   UNL     1      -9.922   5.454  72.899  1.00  0.00    -0.193 C  
ENDROOT
BRANCH   2   3
HETATM    3  C   UNL     1     -11.128   6.388  72.801  1.00  0.00    -0.281 C  
BRANCH   3   4
HETATM    4  C   UNL     1     -10.718   7.833  72.492  1.00  0.00    -0.372 C  
HETATM    5  C   UNL     1     -11.490   8.449  71.304  1.00  0.00    -0.325 C  
HETATM    6  C   UNL     1     -13.028   8.404  71.451  1.00  0.00    -0.248 C  
HETATM    7  C   UNL     1     -10.984   9.880  71.023  1.00  0.00    -0.290 C  
HETATM    8  C   UNL     1     -13.589   9.280  72.562  1.00  0.00    -0.478 C  
BRANCH   7   9
HETATM    9  O   UNL     1     -11.740  10.435  69.931  1.00  0.00    -0.258 OA 
BRANCH   9  10
HETATM   10  C   UNL     1     -11.905  11.784  69.950  1.00  0.00    -0.348 C  
HETATM   11  O   UNL     1     -12.524  12.403  70.803  1.00  0.00    -0.349 OA 
BRANCH  10  12
HETATM   12  C   UNL     1     -11.060  12.449  68.896  1.00  0.00    -0.307 C  
BRANCH  12  13
HETATM   13  C   UNL     1     -11.682  12.429  67.502  1.00  0.00    -0.357 C  
HETATM   14  O   UNL     1      -9.274  12.422  66.395  1.00  0.00    -0.231 OA 
HETATM   15  S   UNL     1     -10.562  11.781  66.301  1.00  0.00    -0.262 S  
HETATM   16  O   UNL     1     -10.410  10.299  66.927  1.00  0.00    -0.222 OA 
HETATM   17  O   UNL     1     -11.239  11.574  65.041  1.00  0.00    -0.252 OA 
BRANCH  13  18
HETATM   18  C   UNL     1     -12.057  13.813  67.076  1.00  0.00    -0.397 C  
HETATM   19  O   UNL     1     -12.648  14.076  66.038  1.00  0.00    -0.481 OA 
BRANCH  18  20
HETATM   20  O   UNL     1     -11.492  14.741  67.900  1.00  0.00    -0.315 OA 
BRANCH  20  21
HETATM   21  C   UNL     1     -10.603  15.668  67.251  1.00  0.00    -0.305 C  
HETATM   22  C   UNL     1      -9.905  16.656  68.203  1.00  0.00    -0.250 C  
HETATM   23  C   UNL     1      -9.120  15.939  69.323  1.00  0.00    -0.253 C  
HETATM   24  C   UNL     1      -9.003  17.647  67.432  1.00  0.00    -0.231 C  
HETATM   25  C   UNL     1      -7.944  15.092  68.853  1.00  0.00    -0.178 C  
BRANCH  24  26
HETATM   26  C   UNL     1      -9.753  18.480  66.387  1.00  0.00    -0.347 C  
BRANCH  26  27
HETATM   27  C   UNL     1     -10.713  19.472  67.043  1.00  0.00    -0.592 C  
HETATM   28  C   UNL     1     -10.087  20.094  68.285  1.00  0.00    -0.471 C  
ENDBRANCH  26  27
ENDBRANCH  24  26
ENDBRANCH  20  21
ENDBRANCH  18  20
ENDBRANCH  13  18
ENDBRANCH  12  13
ENDBRANCH  10  12
ENDBRANCH   9  10
ENDBRANCH   7   9
ENDBRANCH   3   4
ENDBRANCH   2   3
TORSDOF 11
ENDMDL
