MODEL       16
REMARK 921   NORMALIZED FREE ENERGY PREDICTED BY IDOCK:   -6.84 KCAL/MOL
REMARK 922        TOTAL FREE ENERGY PREDICTED BY IDOCK:  -12.56 KCAL/MOL
REMARK 923 INTER-LIGAND FREE ENERGY PREDICTED BY IDOCK:  -11.92 KCAL/MOL
REMARK 924 INTRA-LIGAND FREE ENERGY PREDICTED BY IDOCK:   -0.64 KCAL/MOL
REMARK 927      BINDING AFFINITY PREDICTED BY RF-SCORE:    0.00 PKD
ROOT
HETATM    1  C   UNL     1      -9.987   7.514  66.981  1.00  0.00    -0.234 C  
HETATM    2  O   UNL     1      -9.977   8.864  66.526  1.00  0.00    -0.250 OA 
ENDROOT
BRANCH   2   3
HETATM    3  C   UNL     1     -10.528   9.810  67.356  1.00  0.00    -0.259 A  
HETATM    4  C   UNL     1     -10.886  11.117  67.019  1.00  0.00    -0.284 A  
HETATM    5  C   UNL     1     -11.248  10.173  69.712  1.00  0.00    -0.272 A  
HETATM    6  C   UNL     1     -11.570  11.866  67.984  1.00  0.00    -0.401 A  
HETATM    7  C   UNL     1     -11.694  11.447  69.313  1.00  0.00    -0.337 A  
HETATM    8  C   UNL     1     -10.738   9.355  68.675  1.00  0.00    -0.196 A  
BRANCH   4   9
HETATM    9  N   UNL     1     -10.581  11.702  65.777  1.00  0.00    -0.264 NA 
HETATM   10  H   UNL     1     -10.205  11.087  65.057  1.00  0.00     0.000 HD 
BRANCH   9  11
HETATM   11  C   UNL     1     -10.743  13.049  65.436  1.00  0.00    -0.291 A  
HETATM   12  N   UNL     1     -11.690  13.322  64.532  1.00  0.00    -0.360 NA 
HETATM   13  N   UNL     1      -9.997  13.992  66.040  1.00  0.00    -0.308 NA 
HETATM   14  C   UNL     1     -10.289  15.283  65.824  1.00  0.00    -0.344 A  
HETATM   15  C   UNL     1     -11.279  15.652  64.939  1.00  0.00    -0.376 A  
HETATM   16  C   UNL     1     -11.935  14.621  64.302  1.00  0.00    -0.386 A  
BRANCH  14  17
HETATM   17  C   UNL     1      -9.508  16.261  66.592  1.00  0.00    -0.269 A  
HETATM   18  C   UNL     1      -8.520  19.502  67.946  1.00  0.00    -0.353 A  
HETATM   19  C   UNL     1      -8.436  15.912  67.400  1.00  0.00    -0.175 A  
HETATM   20  C   UNL     1      -9.375  20.432  67.350  1.00  0.00    -0.536 A  
HETATM   21  C   UNL     1     -10.326  20.028  66.423  1.00  0.00    -0.573 A  
HETATM   22  N   UNL     1      -7.932  17.046  67.979  1.00  0.00    -0.190 NA 
HETATM   23  C   UNL     1      -8.650  18.148  67.587  1.00  0.00    -0.251 A  
HETATM   24  C   UNL     1      -6.792  17.081  68.868  1.00  0.00    -0.211 C  
HETATM   25  C   UNL     1      -9.623  17.702  66.679  1.00  0.00    -0.301 A  
HETATM   26  C   UNL     1     -10.465  18.673  66.090  1.00  0.00    -0.473 A  
ENDBRANCH  14  17
ENDBRANCH   9  11
ENDBRANCH   4   9
BRANCH   7  27
HETATM   27  N   UNL     1     -12.084  12.414  70.263  1.00  0.00    -0.399 N  
HETATM   28  O   UNL     1     -11.924  14.314  68.938  1.00  0.00    -0.325 OA 
HETATM   29  H   UNL     1     -12.373  12.089  71.185  1.00  0.00     0.000 HD 
HETATM   30  C   UNL     1     -12.100  13.770  70.021  1.00  0.00    -0.349 C  
BRANCH  30  31
HETATM   31  C   UNL     1     -12.456  14.551  71.235  1.00  0.00    -0.416 C  
HETATM   32  C   UNL     1     -13.437  14.127  72.041  1.00  0.00    -0.518 C  
ENDBRANCH  30  31
ENDBRANCH   7  27
BRANCH   5  33
HETATM   33  N   UNL     1     -11.289   9.724  71.032  1.00  0.00    -0.359 NA 
HETATM   34  C   UNL     1     -12.514   9.709  71.825  1.00  0.00    -0.402 C  
BRANCH  33  35
HETATM   35  C   UNL     1     -10.112   9.089  71.652  1.00  0.00    -0.335 C  
BRANCH  35  36
HETATM   36  C   UNL     1     -10.462   7.688  72.206  1.00  0.00    -0.237 C  
BRANCH  36  37
HETATM   37  N   UNL     1     -10.102   6.551  71.331  1.00  0.00    -0.191 NA 
HETATM   38  C   UNL     1     -11.271   6.198  70.516  1.00  0.00    -0.334 C  
HETATM   39  C   UNL     1      -9.682   5.383  72.110  1.00  0.00    -0.162 C  
ENDBRANCH  36  37
ENDBRANCH  35  36
ENDBRANCH  33  35
ENDBRANCH   5  33
ENDBRANCH   2   3
TORSDOF 10
ENDMDL
