MODEL       37
REMARK 921   NORMALIZED FREE ENERGY PREDICTED BY IDOCK:   -6.47 KCAL/MOL
REMARK 922        TOTAL FREE ENERGY PREDICTED BY IDOCK:  -10.01 KCAL/MOL
REMARK 923 INTER-LIGAND FREE ENERGY PREDICTED BY IDOCK:   -9.42 KCAL/MOL
REMARK 924 INTRA-LIGAND FREE ENERGY PREDICTED BY IDOCK:   -0.59 KCAL/MOL
REMARK 927      BINDING AFFINITY PREDICTED BY RF-SCORE:    0.00 PKD
ROOT
HETATM    1  C   UNL     1      -6.254  17.861  69.673  1.00  0.00    -0.209 C  
HETATM    2  C   UNL     1      -6.509  18.915  68.628  1.00  0.00    -0.269 A  
HETATM    3  C   UNL     1      -5.536  19.927  68.499  1.00  0.00    -0.231 A  
HETATM    4  C   UNL     1      -5.727  21.001  67.639  1.00  0.00    -0.357 A  
HETATM    5  C   UNL     1      -6.908  21.097  66.914  1.00  0.00    -0.317 A  
HETATM    6  C   UNL     1      -7.902  20.106  67.018  1.00  0.00    -0.354 A  
HETATM    7  C   UNL     1      -9.149  20.274  66.190  1.00  0.00    -0.227 C  
HETATM    8  C   UNL     1      -7.682  18.974  67.838  1.00  0.00    -0.266 A  
ENDROOT
BRANCH   8   9
HETATM    9  N   UNL     1      -8.670  17.950  67.856  1.00  0.00    -0.247 N  
HETATM   10  C   UNL     1      -9.842  18.032  68.593  1.00  0.00    -0.378 C  
HETATM   11  H   UNL     1      -8.509  17.111  67.298  1.00  0.00     0.000 HD 
HETATM   12  O   UNL     1     -10.158  18.981  69.308  1.00  0.00    -0.319 OA 
BRANCH  10  13
HETATM   13  C   UNL     1     -10.712  16.767  68.610  1.00  0.00    -0.352 C  
BRANCH  13  14
HETATM   14  N   UNL     1     -10.190  15.646  69.433  1.00  0.00    -0.242 NA 
HETATM   15  C   UNL     1     -11.075  15.457  70.616  1.00  0.00    -0.335 C  
HETATM   16  C   UNL     1     -12.455  14.800  70.334  1.00  0.00    -0.349 C  
HETATM   17  N   UNL     1     -12.410  13.559  69.535  1.00  0.00    -0.220 NA 
HETATM   18  C   UNL     1     -11.541  13.756  68.362  1.00  0.00    -0.334 C  
HETATM   19  C   UNL     1     -10.159  14.366  68.688  1.00  0.00    -0.242 C  
BRANCH  17  20
HETATM   20  C   UNL     1     -12.015  12.385  70.323  1.00  0.00    -0.289 C  
BRANCH  20  21
HETATM   21  C   UNL     1     -12.284  11.070  69.576  1.00  0.00    -0.352 C  
BRANCH  21  22
HETATM   22  C   UNL     1     -11.070  10.525  68.804  1.00  0.00    -0.315 C  
HETATM   23  C   UNL     1      -9.977   9.871  69.690  1.00  0.00    -0.255 C  
HETATM   24  C   UNL     1      -8.698   9.538  68.920  1.00  0.00    -0.133 A  
HETATM   25  C   UNL     1     -10.550   8.673  70.445  1.00  0.00    -0.244 A  
HETATM   26  C   UNL     1     -11.018   7.542  69.755  1.00  0.00    -0.195 A  
HETATM   27  C   UNL     1      -7.465   9.555  69.599  1.00  0.00    -0.092 A  
HETATM   28  C   UNL     1      -6.271   9.308  68.917  1.00  0.00    -0.043 A  
HETATM   29  C   UNL     1     -11.660   6.509  70.437  1.00  0.00    -0.470 A  
HETATM   30  C   UNL     1      -6.304   9.034  67.556  1.00  0.00    -0.063 A  
HETATM   31  C   UNL     1     -11.829   6.597  71.812  1.00  0.00    -0.335 A  
HETATM   32  F   UNL     1     -12.471   5.618  72.461  1.00  0.00    -0.311 F  
HETATM   33  C   UNL     1     -11.353   7.694  72.521  1.00  0.00    -0.409 A  
HETATM   34  F   UNL     1      -5.158   8.813  66.898  1.00  0.00    -0.032 F  
HETATM   35  C   UNL     1      -7.506   8.989  66.867  1.00  0.00    -0.090 A  
HETATM   36  C   UNL     1      -8.699   9.234  67.547  1.00  0.00    -0.116 A  
HETATM   37  C   UNL     1     -10.710   8.729  71.842  1.00  0.00    -0.429 A  
ENDBRANCH  21  22
ENDBRANCH  20  21
ENDBRANCH  17  20
ENDBRANCH  13  14
ENDBRANCH  10  13
ENDBRANCH   8   9
TORSDOF 6
ENDMDL
