MODEL       13
REMARK 921   NORMALIZED FREE ENERGY PREDICTED BY IDOCK:   -6.06 KCAL/MOL
REMARK 922        TOTAL FREE ENERGY PREDICTED BY IDOCK:  -11.45 KCAL/MOL
REMARK 923 INTER-LIGAND FREE ENERGY PREDICTED BY IDOCK:  -10.08 KCAL/MOL
REMARK 924 INTRA-LIGAND FREE ENERGY PREDICTED BY IDOCK:   -1.37 KCAL/MOL
REMARK 927      BINDING AFFINITY PREDICTED BY RF-SCORE:    0.00 PKD
ROOT
HETATM    1  C   UNL     1     -10.013  10.991  64.417  1.00  0.00    -0.368 C  
HETATM    2  C   UNL     1      -9.222   9.692  64.516  1.00  0.00    -0.218 C  
HETATM    3  C   UNL     1      -8.193   9.619  63.391  1.00  0.00    -0.160 C  
ENDROOT
BRANCH   2   4
HETATM    4  O   UNL     1      -8.510   9.648  65.769  1.00  0.00    -0.127 OA 
BRANCH   4   5
HETATM    5  C   UNL     1      -8.695   8.526  66.529  1.00  0.00    -0.132 C  
HETATM    6  O   UNL     1      -8.224   7.423  66.280  1.00  0.00    -0.114 OA 
BRANCH   5   7
HETATM    7  C   UNL     1      -9.520   8.866  67.773  1.00  0.00    -0.141 C  
HETATM    8  C   UNL     1     -10.901   8.232  67.616  1.00  0.00    -0.083 C  
BRANCH   7   9
HETATM    9  N   UNL     1      -9.565  10.335  67.984  1.00  0.00    -0.145 NA 
HETATM   10  P   UNL     1     -11.025  10.916  68.616  1.00  0.00    -0.276 P  
HETATM   11  H   UNL     1      -9.335  10.823  67.118  1.00  0.00     0.000 HD 
HETATM   12  O   UNL     1     -10.822  12.553  68.798  1.00  0.00    -0.242 OA 
HETATM   13  O   UNL     1     -10.366  10.686  70.199  1.00  0.00    -0.082 OA 
HETATM   14  O   UNL     1     -11.616  11.121  67.199  1.00  0.00    -0.495 OA 
BRANCH  13  15
HETATM   15  C   UNL     1     -10.770   9.589  70.916  1.00  0.00    -0.333 A  
HETATM   16  C   UNL     1     -11.420   7.263  72.303  1.00  0.00    -0.316 A  
HETATM   17  C   UNL     1      -9.763   8.827  71.504  1.00  0.00    -0.361 A  
HETATM   18  C   UNL     1     -12.107   9.214  71.048  1.00  0.00    -0.324 A  
HETATM   19  C   UNL     1     -10.088   7.659  72.194  1.00  0.00    -0.246 A  
HETATM   20  C   UNL     1     -12.428   8.043  71.739  1.00  0.00    -0.355 A  
ENDBRANCH  13  15
BRANCH  12  21
HETATM   21  C   UNL     1     -12.022  13.349  68.752  1.00  0.00    -0.324 C  
BRANCH  21  22
HETATM   22  C   UNL     1     -12.065  14.560  67.772  1.00  0.00    -0.234 C  
HETATM   23  O   UNL     1     -11.138  15.583  68.198  1.00  0.00    -0.298 OA 
HETATM   24  C   UNL     1     -10.843  15.458  65.864  1.00  0.00    -0.325 C  
HETATM   25  H   UNL     1     -12.587  13.927  64.532  1.00  0.00     0.000 HD 
HETATM   26  C   UNL     1     -11.693  14.254  66.301  1.00  0.00    -0.393 C  
HETATM   27  O   UNL     1     -12.815  14.116  65.435  1.00  0.00    -0.637 OA 
HETATM   28  F   UNL     1     -11.337  15.984  64.709  1.00  0.00    -0.389 F  
HETATM   29  C   UNL     1      -9.416  15.011  65.586  1.00  0.00    -0.179 C  
HETATM   30  C   UNL     1     -11.013  16.428  67.034  1.00  0.00    -0.048 C  
BRANCH  30  31
HETATM   31  N   UNL     1      -9.947  17.415  67.238  1.00  0.00    -0.292 N  
HETATM   32  C   UNL     1      -9.036  17.283  68.271  1.00  0.00    -0.262 C  
HETATM   33  C   UNL     1      -8.127  18.218  68.538  1.00  0.00    -0.330 C  
HETATM   34  C   UNL     1      -8.104  19.439  67.719  1.00  0.00    -0.291 C  
HETATM   35  O   UNL     1      -7.384  20.383  68.016  1.00  0.00    -0.283 OA 
HETATM   36  N   UNL     1      -8.938  19.440  66.641  1.00  0.00    -0.329 N  
HETATM   37  H   UNL     1      -8.828  20.201  65.969  1.00  0.00     0.000 HD 
HETATM   38  C   UNL     1      -9.912  18.509  66.378  1.00  0.00    -0.379 C  
HETATM   39  O   UNL     1     -10.695  18.684  65.452  1.00  0.00    -0.572 OA 
ENDBRANCH  30  31
ENDBRANCH  21  22
ENDBRANCH  12  21
ENDBRANCH   7   9
ENDBRANCH   5   7
ENDBRANCH   4   5
ENDBRANCH   2   4
TORSDOF 8
ENDMDL
