MODEL      222
REMARK 921   NORMALIZED FREE ENERGY PREDICTED BY IDOCK:    3.70 KCAL/MOL
REMARK 922        TOTAL FREE ENERGY PREDICTED BY IDOCK:    3.74 KCAL/MOL
REMARK 923 INTER-LIGAND FREE ENERGY PREDICTED BY IDOCK:   -2.22 KCAL/MOL
REMARK 924 INTRA-LIGAND FREE ENERGY PREDICTED BY IDOCK:    5.96 KCAL/MOL
REMARK 927      BINDING AFFINITY PREDICTED BY RF-SCORE:    0.00 PKD
ROOT
HETATM    1  C   UNL     1      -5.133  18.119  67.460  1.00  0.00    -0.138 C  
HETATM    2  N   UNL     1      -5.410  17.275  68.622  1.00  0.00    -0.143 NA 
HETATM    3  C   UNL     1      -6.606  17.746  69.355  1.00  0.00    -0.202 C  
HETATM    4  C   UNL     1      -7.941  17.456  68.643  1.00  0.00    -0.271 C  
HETATM    5  N   UNL     1      -8.044  16.043  68.282  1.00  0.00    -0.147 N  
HETATM    6  C   UNL     1      -6.910  15.521  67.522  1.00  0.00    -0.195 C  
HETATM    7  C   UNL     1      -9.073  15.298  68.816  1.00  0.00    -0.200 C  
HETATM    8  O   UNL     1      -9.887  15.773  69.598  1.00  0.00    -0.276 OA 
HETATM    9  C   UNL     1      -5.581  15.852  68.243  1.00  0.00    -0.108 C  
ENDROOT
BRANCH   7  10
HETATM   10  O   UNL     1      -9.126  14.015  68.376  1.00  0.00    -0.191 OA 
BRANCH  10  11
HETATM   11  C   UNL     1      -8.563  13.768  67.068  1.00  0.00    -0.166 C  
HETATM   12  N   UNL     1      -9.444  14.188  65.995  1.00  0.00    -0.216 N  
HETATM   13  C   UNL     1      -9.729  13.120  65.130  1.00  0.00     0.061 C  
HETATM   14  C   UNL     1      -8.245  12.329  66.742  1.00  0.00    -0.058 A  
HETATM   15  N   UNL     1      -7.347  11.526  67.356  1.00  0.00    -0.115 NA 
HETATM   16  C   UNL     1      -8.949  11.962  65.612  1.00  0.00     0.111 A  
HETATM   17  O   UNL     1     -10.400  13.089  64.115  1.00  0.00    -0.419 OA 
HETATM   18  C   UNL     1      -7.226  10.308  66.761  1.00  0.00    -0.105 A  
HETATM   19  N   UNL     1      -8.821  10.768  64.997  1.00  0.00    -0.195 NA 
HETATM   20  C   UNL     1      -7.945   9.942  65.618  1.00  0.00    -0.130 A  
BRANCH  12  21
HETATM   21  C   UNL     1      -9.909  15.503  65.826  1.00  0.00    -0.357 A  
HETATM   22 CL   UNL     1     -11.428  19.665  65.135  1.00  0.00     0.938 Cl 
HETATM   23  C   UNL     1      -9.587  17.893  66.004  1.00  0.00    -0.100 A  
HETATM   24  C   UNL     1     -11.560  16.964  65.079  1.00  0.00     0.834 A  
HETATM   25  N   UNL     1     -11.117  15.697  65.259  1.00  0.00    -0.331 NA 
HETATM   26  C   UNL     1      -9.128  16.590  66.223  1.00  0.00    -0.348 A  
HETATM   27  C   UNL     1     -10.829  18.085  65.422  1.00  0.00     0.249 A  
ENDBRANCH  12  21
ENDBRANCH  10  11
ENDBRANCH   7  10
TORSDOF 3
ENDMDL
