MODEL       10
REMARK 921   NORMALIZED FREE ENERGY PREDICTED BY IDOCK:   -8.16 KCAL/MOL
REMARK 922        TOTAL FREE ENERGY PREDICTED BY IDOCK:  -11.02 KCAL/MOL
REMARK 923 INTER-LIGAND FREE ENERGY PREDICTED BY IDOCK:   -9.84 KCAL/MOL
REMARK 924 INTRA-LIGAND FREE ENERGY PREDICTED BY IDOCK:   -1.18 KCAL/MOL
REMARK 927      BINDING AFFINITY PREDICTED BY RF-SCORE:    0.00 PKD
ROOT
HETATM    1  N   UNL     1      -9.829  14.719  64.490  1.00  0.00    -0.355 NA 
HETATM    2  C   UNL     1     -10.529  13.689  65.109  1.00  0.00    -0.374 A  
HETATM    3  H1  UNL     1      -9.525  15.464  65.117  1.00  0.00     0.000 HD 
HETATM    4  H2  UNL     1     -10.375  15.104  63.719  1.00  0.00     0.000 HD 
HETATM    5  N   UNL     1     -10.931  12.701  64.279  1.00  0.00    -0.340 NA 
HETATM    6  C   UNL     1     -11.527  11.615  64.800  1.00  0.00    -0.155 A  
HETATM    7  N   UNL     1     -11.759  11.356  66.091  1.00  0.00    -0.182 NA 
HETATM    8  C   UNL     1     -11.373  12.374  66.878  1.00  0.00    -0.333 A  
HETATM    9  C   UNL     1     -10.785  13.572  66.486  1.00  0.00    -0.287 A  
HETATM   10  C   UNL     1     -10.613  14.311  67.711  1.00  0.00    -0.253 A  
HETATM   11  N   UNL     1     -11.005  13.560  68.767  1.00  0.00    -0.255 NA 
HETATM   12  N   UNL     1     -11.454  12.407  68.239  1.00  0.00    -0.286 NA 
ENDROOT
BRANCH  10  13
HETATM   13  C   UNL     1     -10.076  15.666  67.978  1.00  0.00    -0.224 A  
HETATM   14  C   UNL     1     -10.872  16.814  68.080  1.00  0.00    -0.341 A  
HETATM   15  C   UNL     1     -10.288  18.076  68.302  1.00  0.00    -0.389 A  
HETATM   16  C   UNL     1      -8.688  15.827  68.169  1.00  0.00    -0.173 A  
HETATM   17  C   UNL     1      -8.904  18.214  68.471  1.00  0.00    -0.299 A  
HETATM   18  C   UNL     1      -8.104  17.080  68.412  1.00  0.00    -0.245 A  
BRANCH  17  19
HETATM   19  O   UNL     1      -8.437  19.504  68.586  1.00  0.00    -0.357 OA 
BRANCH  19  20
HETATM   20  C   UNL     1      -7.607  20.052  67.633  1.00  0.00    -0.292 A  
HETATM   21  C   UNL     1      -6.499  20.765  68.104  1.00  0.00    -0.331 A  
HETATM   22  C   UNL     1      -5.642  20.954  65.854  1.00  0.00    -0.257 A  
HETATM   23  C   UNL     1      -7.729  19.791  66.268  1.00  0.00    -0.331 A  
HETATM   24  C   UNL     1      -5.520  21.219  67.217  1.00  0.00    -0.361 A  
HETATM   25  C   UNL     1      -6.746  20.247  65.380  1.00  0.00    -0.318 A  
ENDBRANCH  19  20
ENDBRANCH  17  19
ENDBRANCH  10  13
BRANCH  12  26
HETATM   26  C   UNL     1     -11.894  11.317  69.109  1.00  0.00    -0.355 C  
HETATM   27  C   UNL     1     -11.152   7.837  70.124  1.00  0.00    -0.209 C  
HETATM   28  C   UNL     1     -12.404  11.831  70.469  1.00  0.00    -0.387 C  
HETATM   29  C   UNL     1     -11.515   9.762  71.567  1.00  0.00    -0.323 C  
HETATM   30  C   UNL     1     -12.724  10.675  71.419  1.00  0.00    -0.545 C  
HETATM   31  O   UNL     1     -11.483   7.089  71.047  1.00  0.00    -0.273 OA 
HETATM   32  N   UNL     1     -11.149   9.217  70.261  1.00  0.00    -0.248 N  
HETATM   33  C   UNL     1     -10.791  10.245  69.262  1.00  0.00    -0.238 C  
BRANCH  27  34
HETATM   34  C   UNL     1     -10.748   7.238  68.823  1.00  0.00    -0.168 C  
HETATM   35  C   UNL     1     -10.669   5.904  68.707  1.00  0.00    -0.354 C  
ENDBRANCH  27  34
ENDBRANCH  12  26
TORSDOF 5
ENDMDL
