MODEL      168
REMARK 921   NORMALIZED FREE ENERGY PREDICTED BY IDOCK:   -3.30 KCAL/MOL
REMARK 922        TOTAL FREE ENERGY PREDICTED BY IDOCK:   -4.78 KCAL/MOL
REMARK 923 INTER-LIGAND FREE ENERGY PREDICTED BY IDOCK:   -4.66 KCAL/MOL
REMARK 924 INTRA-LIGAND FREE ENERGY PREDICTED BY IDOCK:   -0.12 KCAL/MOL
REMARK 927      BINDING AFFINITY PREDICTED BY RF-SCORE:    0.00 PKD
ROOT
HETATM    1  C   UNL     1     -12.733  15.961  72.363  1.00  0.00    -0.525 C  
HETATM    2  C   UNL     1     -11.966  15.049  71.419  1.00  0.00    -0.397 C  
ENDROOT
BRANCH   2   3
HETATM    3  C   UNL     1     -12.073  15.526  69.973  1.00  0.00    -0.391 C  
BRANCH   3   4
HETATM    4  C   UNL     1     -10.708  15.888  69.401  1.00  0.00    -0.272 C  
BRANCH   4   5
HETATM    5  O   UNL     1     -10.635  17.308  69.281  1.00  0.00    -0.319 OA 
BRANCH   5   6
HETATM    6  C   UNL     1     -10.465  17.707  67.922  1.00  0.00    -0.392 C  
BRANCH   6   7
HETATM    7  C   UNL     1      -9.129  18.389  67.765  1.00  0.00    -0.288 A  
HETATM    8  C   UNL     1      -8.521  18.468  66.498  1.00  0.00    -0.291 A  
HETATM    9  C   UNL     1      -7.257  19.043  66.353  1.00  0.00    -0.236 A  
HETATM   10  C   UNL     1      -6.613  19.547  67.488  1.00  0.00    -0.212 A  
HETATM   11  H   UNL     1      -4.929  20.448  68.152  1.00  0.00     0.000 HD 
HETATM   12  C   UNL     1      -7.202  19.493  68.744  1.00  0.00    -0.391 A  
HETATM   13  C   UNL     1      -8.461  18.910  68.884  1.00  0.00    -0.269 A  
HETATM   14  O   UNL     1      -5.367  20.105  67.381  1.00  0.00    -0.170 OA 
BRANCH   9  15
HETATM   15  O   UNL     1      -6.550  19.161  65.184  1.00  0.00    -0.381 OA 
HETATM   16  C   UNL     1      -6.672  20.398  64.492  1.00  0.00    -0.126 C  
ENDBRANCH   9  15
ENDBRANCH   6   7
ENDBRANCH   5   6
ENDBRANCH   4   5
ENDBRANCH   3   4
ENDBRANCH   2   3
TORSDOF 6
ENDMDL
