MODEL       52
REMARK 921   NORMALIZED FREE ENERGY PREDICTED BY IDOCK:   -5.84 KCAL/MOL
REMARK 922        TOTAL FREE ENERGY PREDICTED BY IDOCK:  -10.62 KCAL/MOL
REMARK 923 INTER-LIGAND FREE ENERGY PREDICTED BY IDOCK:   -9.29 KCAL/MOL
REMARK 924 INTRA-LIGAND FREE ENERGY PREDICTED BY IDOCK:   -1.33 KCAL/MOL
REMARK 927      BINDING AFFINITY PREDICTED BY RF-SCORE:    0.00 PKD
ROOT
HETATM    1  C   UNL     1     -10.430  11.991  63.431  1.00  0.00    -0.474 C  
HETATM    2  C   UNL     1     -11.897  12.380  63.339  1.00  0.00    -0.571 C  
ENDROOT
BRANCH   2   3
HETATM    3  C   UNL     1     -12.529  12.487  64.726  1.00  0.00    -0.457 C  
BRANCH   3   4
HETATM    4  N   UNL     1     -12.818  13.888  65.028  1.00  0.00    -0.733 NA 
HETATM    5  H   UNL     1     -13.821  14.079  65.027  1.00  0.00     0.000 HD 
BRANCH   4   6
HETATM    6  C   UNL     1     -12.187  14.275  66.297  1.00  0.00    -0.410 C  
BRANCH   6   7
HETATM    7  C   UNL     1     -11.272  13.155  66.824  1.00  0.00    -0.299 C  
HETATM    8  O   UNL     1      -9.916  13.616  66.920  1.00  0.00    -0.249 OA 
HETATM    9  H   UNL     1      -9.352  12.924  67.245  1.00  0.00     0.000 HD 
BRANCH   7  10
HETATM   10  C   UNL     1     -11.742  12.667  68.199  1.00  0.00    -0.347 C  
BRANCH  10  11
HETATM   11  O   UNL     1     -10.897  13.227  69.223  1.00  0.00    -0.156 OA 
BRANCH  11  12
HETATM   12  C   UNL     1     -11.538  14.030  70.132  1.00  0.00    -0.204 A  
HETATM   13  C   UNL     1     -11.148  15.379  70.259  1.00  0.00    -0.331 A  
HETATM   14  C   UNL     1     -12.527  13.522  70.987  1.00  0.00    -0.451 A  
HETATM   15  C   UNL     1     -11.805  16.198  71.193  1.00  0.00    -0.411 A  
HETATM   16  C   UNL     1     -13.157  14.344  71.922  1.00  0.00    -0.433 A  
HETATM   17  C   UNL     1     -12.800  15.682  72.022  1.00  0.00    -0.518 A  
BRANCH  13  18
HETATM   18  C   UNL     1     -10.069  15.978  69.407  1.00  0.00    -0.271 C  
HETATM   19  O   UNL     1      -8.904  15.608  69.528  1.00  0.00    -0.264 OA 
BRANCH  18  20
HETATM   20  C   UNL     1     -10.447  16.990  68.332  1.00  0.00    -0.370 C  
BRANCH  20  21
HETATM   21  C   UNL     1     -10.156  18.425  68.760  1.00  0.00    -0.393 C  
BRANCH  21  22
HETATM   22  C   UNL     1      -8.948  19.001  68.060  1.00  0.00    -0.348 A  
HETATM   23  C   UNL     1      -7.694  19.001  68.688  1.00  0.00    -0.378 A  
HETATM   24  C   UNL     1      -6.573  19.513  68.031  1.00  0.00    -0.269 A  
HETATM   25  C   UNL     1      -6.695  20.033  66.745  1.00  0.00    -0.241 A  
HETATM   26  C   UNL     1      -7.940  20.050  66.118  1.00  0.00    -0.315 A  
HETATM   27  C   UNL     1      -9.062  19.541  66.773  1.00  0.00    -0.396 A  
ENDBRANCH  21  22
ENDBRANCH  20  21
ENDBRANCH  18  20
ENDBRANCH  13  18
ENDBRANCH  11  12
ENDBRANCH  10  11
ENDBRANCH   7  10
ENDBRANCH   6   7
ENDBRANCH   4   6
ENDBRANCH   3   4
ENDBRANCH   2   3
TORSDOF 11
ENDMDL
