MODEL      162
REMARK 921   NORMALIZED FREE ENERGY PREDICTED BY IDOCK:   21.29 KCAL/MOL
REMARK 922        TOTAL FREE ENERGY PREDICTED BY IDOCK:   24.48 KCAL/MOL
REMARK 923 INTER-LIGAND FREE ENERGY PREDICTED BY IDOCK:    3.29 KCAL/MOL
REMARK 924 INTRA-LIGAND FREE ENERGY PREDICTED BY IDOCK:   21.19 KCAL/MOL
REMARK 927      BINDING AFFINITY PREDICTED BY RF-SCORE:    0.00 PKD
ROOT
HETATM    1  C   UNL     1     -12.260  13.376  66.536  1.00  0.00    -0.414 C  
HETATM    2  C   UNL     1     -11.153  13.956  67.449  1.00  0.00    -0.313 C  
HETATM    3  C   UNL     1     -10.954  12.868  68.596  1.00  0.00    -0.295 C  
HETATM    4  C   UNL     1     -11.392  15.466  67.936  1.00  0.00    -0.328 C  
HETATM    5  C   UNL     1     -10.263  15.911  68.880  1.00  0.00    -0.226 C  
HETATM    6  C   UNL     1     -11.353  16.618  66.800  1.00  0.00     0.560 C  
HETATM    7  C   UNL     1      -9.227  16.617  68.018  1.00  0.00    -0.223 C  
HETATM    8  C   UNL     1     -12.011  17.988  67.170  1.00  0.00     2.863 C  
HETATM    9  C   UNL     1     -11.837  19.021  66.024  1.00  0.00     2.953 C  
HETATM   10  C   UNL     1      -9.826  16.855  66.608  1.00  0.00    -0.295 C  
HETATM   11  C   UNL     1      -9.391  18.230  66.092  1.00  0.00    -0.146 C  
HETATM   12  C   UNL     1     -12.114  16.153  65.569  1.00  0.00     1.425 C  
HETATM   13  C   UNL     1      -8.124  18.714  66.150  1.00  0.00    -0.208 C  
HETATM   14  C   UNL     1     -10.437  19.075  65.417  1.00  0.00     0.215 C  
ENDROOT
BRANCH   3  15
HETATM   15  C   UNL     1     -10.823  11.465  67.955  1.00  0.00    -0.274 C  
BRANCH  15  16
HETATM   16  C   UNL     1     -11.299  10.205  68.659  1.00  0.00    -0.172 C  
HETATM   17  C   UNL     1      -8.974   9.078  68.364  1.00  0.00    -0.133 C  
HETATM   18  O   UNL     1     -10.617   8.243  69.897  1.00  0.00    -0.227 OA 
HETATM   19  C   UNL     1     -10.106   9.455  69.339  1.00  0.00    -0.198 C  
HETATM   20  C   UNL     1      -9.503  10.262  70.496  1.00  0.00     0.633 C  
HETATM   21  H   UNL     1      -9.892   7.788  70.309  1.00  0.00     0.000 HD 
ENDBRANCH  15  16
ENDBRANCH   3  15
BRANCH  13  22
HETATM   22  C   UNL     1      -6.951  17.884  66.276  1.00  0.00    -0.310 C  
HETATM   23  C   UNL     1      -5.460  16.341  67.475  1.00  0.00    -0.168 C  
HETATM   24  C   UNL     1      -5.475  16.323  69.011  1.00  0.00    -0.111 C  
HETATM   25  C   UNL     1      -6.835  16.744  66.966  1.00  0.00    -0.246 C  
HETATM   26  O   UNL     1      -5.696  17.632  69.536  1.00  0.00    -0.201 OA 
HETATM   27  C   UNL     1      -6.551  15.364  69.527  1.00  0.00    -0.166 C  
HETATM   28  H   UNL     1      -5.706  17.621  70.486  1.00  0.00     0.000 HD 
HETATM   29  C   UNL     1      -7.939  15.676  68.957  1.00  0.00    -0.208 C  
HETATM   30  C   UNL     1      -7.911  15.904  67.460  1.00  0.00    -0.166 C  
HETATM   31  C   UNL     1      -8.774  15.290  66.621  1.00  0.00    -0.327 C  
ENDBRANCH  13  22
TORSDOF 3
ENDMDL
