MODEL      142
REMARK 921   NORMALIZED FREE ENERGY PREDICTED BY IDOCK:   -5.79 KCAL/MOL
REMARK 922        TOTAL FREE ENERGY PREDICTED BY IDOCK:   -8.35 KCAL/MOL
REMARK 923 INTER-LIGAND FREE ENERGY PREDICTED BY IDOCK:   -7.64 KCAL/MOL
REMARK 924 INTRA-LIGAND FREE ENERGY PREDICTED BY IDOCK:   -0.71 KCAL/MOL
REMARK 927      BINDING AFFINITY PREDICTED BY RF-SCORE:    0.00 PKD
ROOT
HETATM    1  O   UNL     1     -11.742   5.624  72.790  1.00  0.00    -0.283 OA 
HETATM    2  C   UNL     1     -11.638   6.665  71.936  1.00  0.00    -0.303 C  
HETATM    3  C   UNL     1     -10.399   6.664  71.112  1.00  0.00    -0.232 A  
HETATM    4  O   UNL     1     -12.462   7.563  71.882  1.00  0.00    -0.306 OA 
HETATM    5  C   UNL     1      -9.930   7.905  70.643  1.00  0.00    -0.188 A  
HETATM    6  C   UNL     1      -8.789   7.984  69.828  1.00  0.00    -0.144 A  
HETATM    7  C   UNL     1      -8.123   6.792  69.506  1.00  0.00    -0.126 A  
HETATM    8  O   UNL     1     -10.155   4.281  71.226  1.00  0.00    -0.177 OA 
HETATM    9  C   UNL     1      -9.716   5.494  70.765  1.00  0.00    -0.177 A  
HETATM   10  H   UNL     1      -9.692   3.486  70.990  1.00  0.00     0.000 HD 
HETATM   11  C   UNL     1      -8.580   5.552  69.963  1.00  0.00    -0.120 A  
ENDROOT
BRANCH   6  12
HETATM   12  N   UNL     1      -8.253   9.182  69.305  1.00  0.00    -0.114 NA 
HETATM   13  H   UNL     1      -7.474   9.209  68.646  1.00  0.00     0.000 HD 
BRANCH  12  14
HETATM   14  N   UNL     1      -8.830  10.205  69.730  1.00  0.00    -0.351 NA 
HETATM   15  H   UNL     1      -8.757  10.539  70.691  1.00  0.00     0.000 HD 
BRANCH  14  16
HETATM   16  C   UNL     1      -9.593  10.849  68.731  1.00  0.00    -0.189 A  
HETATM   17  C   UNL     1      -9.584  12.342  66.800  1.00  0.00    -0.220 A  
HETATM   18  C   UNL     1      -8.903  11.625  67.790  1.00  0.00    -0.159 A  
HETATM   19  C   UNL     1     -10.976  12.253  66.715  1.00  0.00    -0.276 A  
HETATM   20  C   UNL     1     -10.992  10.766  68.624  1.00  0.00    -0.285 A  
HETATM   21  C   UNL     1     -11.685  11.468  67.627  1.00  0.00    -0.283 A  
BRANCH  19  22
HETATM   22  S   UNL     1     -11.844  13.304  65.561  1.00  0.00    -0.395 S  
HETATM   23  O   UNL     1     -12.922  12.525  64.994  1.00  0.00    -0.779 OA 
HETATM   24  O   UNL     1     -10.835  13.901  64.707  1.00  0.00    -0.376 OA 
BRANCH  22  25
HETATM   25  N   UNL     1     -12.443  14.560  66.514  1.00  0.00    -0.421 N  
HETATM   26  H   UNL     1     -13.407  14.882  66.440  1.00  0.00     0.000 HD 
BRANCH  25  27
HETATM   27  C   UNL     1     -11.528  15.136  67.418  1.00  0.00    -0.277 A  
HETATM   28  N   UNL     1     -10.565  15.858  66.823  1.00  0.00    -0.317 NA 
HETATM   29  C   UNL     1      -9.707  16.500  67.647  1.00  0.00    -0.239 A  
HETATM   30  C   UNL     1      -9.761  16.425  69.030  1.00  0.00    -0.262 A  
HETATM   31  C   UNL     1     -10.753  15.641  69.609  1.00  0.00    -0.278 A  
HETATM   32  C   UNL     1     -11.663  14.979  68.787  1.00  0.00    -0.360 A  
ENDBRANCH  25  27
ENDBRANCH  22  25
ENDBRANCH  19  22
ENDBRANCH  14  16
ENDBRANCH  12  14
ENDBRANCH   6  12
TORSDOF 6
ENDMDL
