MODEL       43
REMARK 921   NORMALIZED FREE ENERGY PREDICTED BY IDOCK:   -5.32 KCAL/MOL
REMARK 922        TOTAL FREE ENERGY PREDICTED BY IDOCK:  -10.30 KCAL/MOL
REMARK 923 INTER-LIGAND FREE ENERGY PREDICTED BY IDOCK:   -9.73 KCAL/MOL
REMARK 924 INTRA-LIGAND FREE ENERGY PREDICTED BY IDOCK:   -0.57 KCAL/MOL
REMARK 927      BINDING AFFINITY PREDICTED BY RF-SCORE:    0.00 PKD
ROOT
HETATM    1  C   UNL     1     -12.660  12.185  63.823  1.00  0.00    -0.475 C  
HETATM    2  N   UNL     1     -12.182  12.406  65.192  1.00  0.00    -0.521 NA 
ENDROOT
BRANCH   2   3
HETATM    3  C   UNL     1     -12.469  13.783  65.650  1.00  0.00    -0.503 C  
BRANCH   3   4
HETATM    4  C   UNL     1     -12.096  14.101  67.116  1.00  0.00    -0.432 C  
BRANCH   4   5
HETATM    5  C   UNL     1     -11.114  15.241  67.268  1.00  0.00    -0.325 A  
HETATM    6  C   UNL     1      -9.241  17.300  67.598  1.00  0.00    -0.229 A  
HETATM    7  C   UNL     1     -11.150  16.063  68.405  1.00  0.00    -0.351 A  
HETATM    8  C   UNL     1     -10.150  15.491  66.283  1.00  0.00    -0.312 A  
HETATM    9  C   UNL     1     -10.218  17.090  68.569  1.00  0.00    -0.324 A  
HETATM   10  C   UNL     1      -9.218  16.518  66.447  1.00  0.00    -0.327 A  
BRANCH   6  11
HETATM   11  N   UNL     1      -8.275  18.334  67.751  1.00  0.00    -0.244 N  
HETATM   12  H   UNL     1      -7.663  18.369  68.567  1.00  0.00     0.000 HD 
BRANCH  11  13
HETATM   13  S   UNL     1      -8.177  19.501  66.533  1.00  0.00    -0.332 S  
HETATM   14  O   UNL     1      -9.538  19.955  66.325  1.00  0.00    -0.390 OA 
HETATM   15  O   UNL     1      -7.377  19.014  65.432  1.00  0.00    -0.470 OA 
HETATM   16  C   UNL     1      -7.300  20.807  67.364  1.00  0.00    -0.339 C  
ENDBRANCH  11  13
ENDBRANCH   6  11
ENDBRANCH   4   5
ENDBRANCH   3   4
ENDBRANCH   2   3
BRANCH   2  17
HETATM   17  C   UNL     1     -10.737  12.087  65.255  1.00  0.00    -0.288 C  
BRANCH  17  18
HETATM   18  C   UNL     1     -10.365  11.002  66.278  1.00  0.00    -0.251 C  
BRANCH  18  19
HETATM   19  O   UNL     1     -10.059  11.618  67.535  1.00  0.00    -0.188 OA 
BRANCH  19  20
HETATM   20  C   UNL     1     -10.287  10.851  68.648  1.00  0.00    -0.191 A  
HETATM   21  C   UNL     1      -9.329  10.078  69.309  1.00  0.00    -0.224 A  
HETATM   22  C   UNL     1     -11.599  10.871  69.130  1.00  0.00    -0.389 A  
HETATM   23  C   UNL     1     -11.003   9.311  70.873  1.00  0.00    -0.299 A  
HETATM   24  C   UNL     1     -11.959  10.106  70.245  1.00  0.00    -0.315 A  
HETATM   25  C   UNL     1      -9.687   9.311  70.420  1.00  0.00    -0.293 A  
BRANCH  23  26
HETATM   26  N   UNL     1     -11.342   8.511  72.002  1.00  0.00    -0.330 N  
HETATM   27  H   UNL     1     -11.176   8.842  72.952  1.00  0.00     0.000 HD 
BRANCH  26  28
HETATM   28  S   UNL     1     -12.030   6.996  71.712  1.00  0.00    -0.343 S  
HETATM   29  O   UNL     1     -11.550   6.037  72.679  1.00  0.00    -0.279 OA 
HETATM   30  C   UNL     1     -11.366   6.599  70.107  1.00  0.00    -0.382 C  
HETATM   31  O   UNL     1     -13.448   7.247  71.545  1.00  0.00    -0.385 OA 
ENDBRANCH  26  28
ENDBRANCH  23  26
ENDBRANCH  19  20
ENDBRANCH  18  19
ENDBRANCH  17  18
ENDBRANCH   2  17
TORSDOF 11
ENDMDL
