MODEL        6
REMARK 921   NORMALIZED FREE ENERGY PREDICTED BY IDOCK:   -7.21 KCAL/MOL
REMARK 922        TOTAL FREE ENERGY PREDICTED BY IDOCK:  -11.76 KCAL/MOL
REMARK 923 INTER-LIGAND FREE ENERGY PREDICTED BY IDOCK:  -11.65 KCAL/MOL
REMARK 924 INTRA-LIGAND FREE ENERGY PREDICTED BY IDOCK:   -0.11 KCAL/MOL
REMARK 927      BINDING AFFINITY PREDICTED BY RF-SCORE:    0.00 PKD
ROOT
HETATM    1  C   UNL     1      -8.624   4.257  73.941  1.00  0.00    -0.098 C  
HETATM    2  C   UNL     1      -9.514   4.862  72.837  1.00  0.00    -0.134 C  
HETATM    3  C   UNL     1      -9.863   3.713  71.876  1.00  0.00    -0.241 C  
ENDROOT
BRANCH   2   4
HETATM    4  N   UNL     1     -10.702   5.518  73.432  1.00  0.00    -0.259 NA 
HETATM    5  C   UNL     1     -10.399   6.880  73.948  1.00  0.00    -0.365 C  
HETATM    6  C   UNL     1     -10.186   7.955  72.861  1.00  0.00    -0.330 C  
HETATM    7  N   UNL     1     -11.371   8.017  71.990  1.00  0.00    -0.281 NA 
HETATM    8  C   UNL     1     -11.873   5.655  72.521  1.00  0.00    -0.134 C  
HETATM    9  C   UNL     1     -11.751   6.725  71.398  1.00  0.00    -0.325 C  
BRANCH   7  10
HETATM   10  C   UNL     1     -11.681   9.210  71.355  1.00  0.00    -0.343 A  
HETATM   11  C   UNL     1     -10.957   9.656  70.248  1.00  0.00    -0.337 A  
HETATM   12  C   UNL     1     -11.119  10.942  69.734  1.00  0.00    -0.328 A  
HETATM   13  C   UNL     1     -12.017  11.839  70.311  1.00  0.00    -0.343 A  
HETATM   14  C   UNL     1     -12.649  10.084  71.872  1.00  0.00    -0.454 A  
HETATM   15  C   UNL     1     -12.812  11.387  71.365  1.00  0.00    -0.502 A  
BRANCH  13  16
HETATM   16  O   UNL     1     -12.161  13.155  69.929  1.00  0.00    -0.291 OA 
BRANCH  16  17
HETATM   17  C   UNL     1     -12.033  13.368  68.518  1.00  0.00    -0.328 C  
BRANCH  17  18
HETATM   18  C   UNL     1     -10.775  14.130  68.117  1.00  0.00    -0.245 C  
HETATM   19  C   UNL     1      -9.873  13.361  67.187  1.00  0.00    -0.237 C  
HETATM   20  O   UNL     1      -9.282  14.369  66.367  1.00  0.00    -0.267 OA 
HETATM   21  C   UNL     1     -10.238  15.455  66.289  1.00  0.00    -0.290 C  
HETATM   22  O   UNL     1     -11.178  15.281  67.365  1.00  0.00    -0.327 OA 
BRANCH  21  23
HETATM   23  C   UNL     1      -9.536  16.801  66.483  1.00  0.00    -0.287 A  
HETATM   24  C   UNL     1     -10.236  17.996  66.206  1.00  0.00    -0.381 A  
HETATM   25  C   UNL     1      -8.208  16.931  66.945  1.00  0.00    -0.213 A  
HETATM   26  C   UNL     1      -9.666  19.251  66.431  1.00  0.00    -0.435 A  
HETATM   27  C   UNL     1      -7.644  18.190  67.189  1.00  0.00    -0.225 A  
HETATM   28 CL   UNL     1      -7.160  15.579  67.204  1.00  0.00    -0.220 Cl 
HETATM   29 CL   UNL     1      -7.692  20.886  67.264  1.00  0.00    -0.351 Cl 
HETATM   30  C   UNL     1      -8.379  19.343  66.943  1.00  0.00    -0.287 A  
ENDBRANCH  21  23
BRANCH  21  31
HETATM   31  C   UNL     1     -11.012  15.318  64.958  1.00  0.00    -0.437 C  
BRANCH  31  32
HETATM   32  N   UNL     1     -11.626  14.030  64.728  1.00  0.00    -0.363 NA 
HETATM   33  C   UNL     1     -12.886  13.637  65.063  1.00  0.00    -0.272 A  
HETATM   34  C   UNL     1     -12.005  12.204  63.816  1.00  0.00    -0.513 A  
HETATM   35  N   UNL     1     -13.149  12.477  64.510  1.00  0.00    -0.839 NA 
HETATM   36  N   UNL     1     -11.046  13.126  63.920  1.00  0.00    -0.363 NA 
ENDBRANCH  31  32
ENDBRANCH  21  31
ENDBRANCH  17  18
ENDBRANCH  16  17
ENDBRANCH  13  16
ENDBRANCH   7  10
ENDBRANCH   2   4
TORSDOF 8
ENDMDL
