MODEL       15
REMARK 921   NORMALIZED FREE ENERGY PREDICTED BY IDOCK:   -7.05 KCAL/MOL
REMARK 922        TOTAL FREE ENERGY PREDICTED BY IDOCK:  -11.33 KCAL/MOL
REMARK 923 INTER-LIGAND FREE ENERGY PREDICTED BY IDOCK:  -10.46 KCAL/MOL
REMARK 924 INTRA-LIGAND FREE ENERGY PREDICTED BY IDOCK:   -0.88 KCAL/MOL
REMARK 927      BINDING AFFINITY PREDICTED BY RF-SCORE:    0.00 PKD
ROOT
HETATM    1  C   UNL     1     -10.293   2.623  72.685  1.00  0.00    -0.226 C  
HETATM    2  C   UNL     1     -10.332   4.090  72.370  1.00  0.00    -0.207 A  
HETATM    3  C   UNL     1      -9.662   4.593  71.249  1.00  0.00    -0.251 A  
HETATM    4  C   UNL     1      -9.639   5.970  70.965  1.00  0.00    -0.197 A  
HETATM    5  C   UNL     1      -8.884   6.434  69.748  1.00  0.00    -0.142 C  
HETATM    6  C   UNL     1     -10.308   6.862  71.831  1.00  0.00    -0.210 A  
HETATM    7  C   UNL     1     -10.998   6.356  72.945  1.00  0.00    -0.281 A  
HETATM    8  C   UNL     1     -11.007   4.980  73.211  1.00  0.00    -0.384 A  
ENDROOT
BRANCH   6   9
HETATM    9  C   UNL     1     -10.233   8.339  71.598  1.00  0.00    -0.221 C  
HETATM   10  O   UNL     1      -9.354   9.053  72.055  1.00  0.00    -0.358 OA 
BRANCH   9  11
HETATM   11  O   UNL     1     -11.250   8.761  70.803  1.00  0.00    -0.254 OA 
BRANCH  11  12
HETATM   12  C   UNL     1     -11.460  10.186  70.817  1.00  0.00    -0.357 C  
BRANCH  12  13
HETATM   13  C   UNL     1     -11.465  10.727  69.408  1.00  0.00    -0.366 A  
HETATM   14  C   UNL     1     -10.765  10.074  68.386  1.00  0.00    -0.271 A  
HETATM   15  C   UNL     1     -10.644  10.657  67.123  1.00  0.00    -0.312 A  
HETATM   16  C   UNL     1     -11.222  11.906  66.858  1.00  0.00    -0.382 A  
HETATM   17  C   UNL     1     -12.014  12.503  67.852  1.00  0.00    -0.283 A  
HETATM   18  C   UNL     1     -10.944  12.601  65.528  1.00  0.00    -0.313 C  
HETATM   19  C   UNL     1     -12.118  11.929  69.119  1.00  0.00    -0.261 A  
HETATM   20  C   UNL     1     -10.900  14.136  65.667  1.00  0.00    -0.305 C  
HETATM   21  C   UNL     1     -11.977  12.172  64.460  1.00  0.00    -0.337 C  
HETATM   22  O   UNL     1     -11.696  14.849  65.054  1.00  0.00    -0.363 OA 
HETATM   23  N   UNL     1     -11.695  12.719  63.124  1.00  0.00    -0.825 NA 
HETATM   24  N   UNL     1      -9.930  14.605  66.547  1.00  0.00    -0.271 N  
HETATM   25  H1  UNL     1     -12.377  12.435  62.420  1.00  0.00     0.000 HD 
HETATM   26  H2  UNL     1     -10.749  12.482  62.829  1.00  0.00     0.000 HD 
HETATM   27  H   UNL     1      -9.359  13.909  67.028  1.00  0.00     0.000 HD 
BRANCH  24  28
HETATM   28  C   UNL     1      -9.670  15.967  66.829  1.00  0.00    -0.238 A  
HETATM   29  C   UNL     1     -10.483  16.728  67.671  1.00  0.00    -0.328 A  
HETATM   30  C   UNL     1     -10.176  18.058  67.960  1.00  0.00    -0.390 A  
HETATM   31  C   UNL     1      -9.049  18.663  67.395  1.00  0.00    -0.290 A  
HETATM   32  C   UNL     1      -8.699  19.988  67.666  1.00  0.00    -0.326 A  
HETATM   33  N   UNL     1      -7.632  20.622  67.131  1.00  0.00    -0.328 NA 
HETATM   34  C   UNL     1      -6.871  19.901  66.282  1.00  0.00    -0.227 A  
HETATM   35  C   UNL     1      -7.119  18.575  65.951  1.00  0.00    -0.287 A  
HETATM   36  C   UNL     1      -8.230  17.929  66.514  1.00  0.00    -0.298 A  
HETATM   37  C   UNL     1      -8.554  16.581  66.237  1.00  0.00    -0.367 A  
ENDBRANCH  24  28
ENDBRANCH  12  13
ENDBRANCH  11  12
ENDBRANCH   9  11
ENDBRANCH   6   9
TORSDOF 5
ENDMDL
