MODEL      202
REMARK 921   NORMALIZED FREE ENERGY PREDICTED BY IDOCK:    4.42 KCAL/MOL
REMARK 922        TOTAL FREE ENERGY PREDICTED BY IDOCK:    4.80 KCAL/MOL
REMARK 923 INTER-LIGAND FREE ENERGY PREDICTED BY IDOCK:   -1.11 KCAL/MOL
REMARK 924 INTRA-LIGAND FREE ENERGY PREDICTED BY IDOCK:    5.92 KCAL/MOL
REMARK 927      BINDING AFFINITY PREDICTED BY RF-SCORE:    0.00 PKD
ROOT
HETATM    1  C   UNL     1     -10.704   6.980  69.741  1.00  0.00    -0.241 C  
HETATM    2  N   UNL     1      -9.708   8.065  69.803  1.00  0.00    -0.175 N  
HETATM    3  C   UNL     1      -8.568   7.765  70.690  1.00  0.00    -0.127 C  
ENDROOT
BRANCH   2   4
HETATM    4  S   UNL     1      -9.316   8.837  68.331  1.00  0.00    -0.137 S  
HETATM    5  O   UNL     1     -10.543   9.375  67.765  1.00  0.00    -0.252 OA 
HETATM    6  O   UNL     1      -8.454   7.970  67.564  1.00  0.00    -0.125 OA 
BRANCH   4   7
HETATM    7  C   UNL     1      -8.346  10.230  68.887  1.00  0.00    -0.136 A  
HETATM    8  C   UNL     1      -8.477  11.457  68.221  1.00  0.00    -0.154 A  
HETATM    9  C   UNL     1      -7.731  12.616  68.530  1.00  0.00    -0.114 A  
HETATM   10  C   UNL     1      -6.838  12.448  69.603  1.00  0.00     0.149 A  
HETATM   11  S   UNL     1      -5.797  13.705  70.277  1.00  0.00    -0.154 SA 
HETATM   12  C   UNL     1      -6.710  11.207  70.284  1.00  0.00     0.159 A  
HETATM   13  C   UNL     1      -5.995  15.070  69.174  1.00  0.00    -0.098 A  
HETATM   14  C   UNL     1      -7.469  10.100  69.939  1.00  0.00    -0.176 A  
HETATM   15  C   UNL     1      -5.136  16.152  69.476  1.00  0.00    -0.113 A  
HETATM   16  C   UNL     1      -5.135  17.312  68.719  1.00  0.00    -0.146 A  
HETATM   17  C   UNL     1      -5.992  17.394  67.639  1.00  0.00    -0.152 A  
HETATM   18  C   UNL     1      -6.845  16.322  67.328  1.00  0.00    -0.230 A  
HETATM   19  C   UNL     1      -6.895  15.128  68.092  1.00  0.00    -0.135 A  
HETATM   20  C   UNL     1      -7.840  13.958  67.770  1.00  0.00    -0.172 C  
HETATM   21  C   UNL     1      -8.779  14.174  66.794  1.00  0.00    -0.148 C  
HETATM   22  C   UNL     1      -9.815  13.209  66.277  1.00  0.00    -0.284 C  
BRANCH  22  23
HETATM   23  C   UNL     1     -10.923  13.573  65.280  1.00  0.00    -0.295 C  
BRANCH  23  24
HETATM   24  N   UNL     1     -10.687  14.940  64.740  1.00  0.00    -0.390 NA 
HETATM   25  C   UNL     1     -11.879  15.827  64.703  1.00  0.00    -0.071 C  
HETATM   26  C   UNL     1     -12.326  16.453  66.053  1.00  0.00     2.883 C  
HETATM   27  N   UNL     1     -11.261  16.934  66.961  1.00  0.00     0.218 NA 
HETATM   28  C   UNL     1     -10.092  16.039  66.918  1.00  0.00    -0.265 C  
HETATM   29  C   UNL     1     -10.876  18.314  66.676  1.00  0.00    -0.031 C  
HETATM   30  C   UNL     1      -9.642  15.653  65.494  1.00  0.00    -0.202 C  
ENDBRANCH  23  24
ENDBRANCH  22  23
ENDBRANCH   4   7
ENDBRANCH   2   4
TORSDOF 4
ENDMDL
