MODEL       42
REMARK 921   NORMALIZED FREE ENERGY PREDICTED BY IDOCK:   -5.81 KCAL/MOL
REMARK 922        TOTAL FREE ENERGY PREDICTED BY IDOCK:  -10.04 KCAL/MOL
REMARK 923 INTER-LIGAND FREE ENERGY PREDICTED BY IDOCK:   -8.58 KCAL/MOL
REMARK 924 INTRA-LIGAND FREE ENERGY PREDICTED BY IDOCK:   -1.46 KCAL/MOL
REMARK 927      BINDING AFFINITY PREDICTED BY RF-SCORE:    0.00 PKD
ROOT
HETATM    1  C   UNL     1     -12.761  10.912  71.478  1.00  0.00    -0.533 C  
HETATM    2  C   UNL     1     -13.144  12.372  71.234  1.00  0.00    -0.126 C  
HETATM    3  C   UNL     1     -13.648  13.017  72.520  1.00  0.00    -0.537 C  
ENDROOT
BRANCH   2   4
HETATM    4  N   UNL     1     -12.032  13.134  70.680  1.00  0.00    -0.533 N  
HETATM    5  H   UNL     1     -11.079  12.789  70.796  1.00  0.00     0.000 HD 
BRANCH   4   6
HETATM    6  C   UNL     1     -12.247  14.307  70.009  1.00  0.00    -0.359 C  
HETATM    7  O   UNL     1     -12.497  15.367  70.555  1.00  0.00    -0.372 OA 
BRANCH   6   8
HETATM    8  N   UNL     1     -12.241  14.160  68.630  1.00  0.00    -0.554 N  
HETATM    9  H   UNL     1     -12.766  14.838  68.078  1.00  0.00     0.000 HD 
BRANCH   8  10
HETATM   10  S   UNL     1     -11.432  12.949  67.810  1.00  0.00    -0.344 S  
HETATM   11  O   UNL     1     -10.023  13.016  68.124  1.00  0.00    -0.220 OA 
HETATM   12  O   UNL     1     -12.194  11.749  68.100  1.00  0.00    -0.507 OA 
BRANCH  10  13
HETATM   13  C   UNL     1     -11.633  13.275  66.095  1.00  0.00    -0.348 A  
HETATM   14  C   UNL     1     -10.969  14.333  65.460  1.00  0.00    -0.319 A  
HETATM   15  N   UNL     1     -12.779  12.668  64.041  1.00  0.00    -0.722 NA 
HETATM   16  C   UNL     1     -11.303  14.561  64.114  1.00  0.00     0.009 A  
HETATM   17  C   UNL     1     -12.191  13.725  63.457  1.00  0.00    -0.179 A  
HETATM   18  C   UNL     1     -12.493  12.478  65.350  1.00  0.00    -0.240 A  
BRANCH  14  19
HETATM   19  N   UNL     1      -9.926  15.070  66.070  1.00  0.00    -0.290 NA 
HETATM   20  H   UNL     1      -9.012  14.615  66.076  1.00  0.00     0.000 HD 
BRANCH  19  21
HETATM   21  C   UNL     1      -9.973  16.349  66.673  1.00  0.00    -0.272 A  
HETATM   22  C   UNL     1     -10.236  17.705  68.676  1.00  0.00    -0.377 A  
HETATM   23  C   UNL     1     -10.011  16.465  68.067  1.00  0.00    -0.242 A  
HETATM   24  C   UNL     1     -10.462  18.842  67.898  1.00  0.00    -0.459 A  
HETATM   25  C   UNL     1     -10.413  18.756  66.507  1.00  0.00    -0.484 A  
HETATM   26  C   UNL     1     -10.115  17.521  65.915  1.00  0.00    -0.197 A  
HETATM   27  C   UNL     1     -10.750  19.926  65.630  1.00  0.00    -0.377 C  
ENDBRANCH  19  21
ENDBRANCH  14  19
ENDBRANCH  10  13
ENDBRANCH   8  10
ENDBRANCH   6   8
ENDBRANCH   4   6
ENDBRANCH   2   4
TORSDOF 7
ENDMDL
