MODEL      115
REMARK 921   NORMALIZED FREE ENERGY PREDICTED BY IDOCK:   -5.11 KCAL/MOL
REMARK 922        TOTAL FREE ENERGY PREDICTED BY IDOCK:  -10.29 KCAL/MOL
REMARK 923 INTER-LIGAND FREE ENERGY PREDICTED BY IDOCK:   -9.17 KCAL/MOL
REMARK 924 INTRA-LIGAND FREE ENERGY PREDICTED BY IDOCK:   -1.12 KCAL/MOL
REMARK 927      BINDING AFFINITY PREDICTED BY RF-SCORE:    0.00 PKD
ROOT
HETATM    1  C   UNL     1     -13.164  13.333  72.206  1.00  0.00    -0.567 C  
HETATM    2  C   UNL     1     -13.008  14.865  72.276  1.00  0.00    -0.423 C  
HETATM    3  C   UNL     1     -14.398  15.488  72.449  1.00  0.00    -0.475 C  
HETATM    4  C   UNL     1     -12.130  15.206  73.490  1.00  0.00    -0.558 C  
ENDROOT
BRANCH   2   5
HETATM    5  C   UNL     1     -12.317  15.350  70.993  1.00  0.00    -0.392 C  
HETATM    6  O   UNL     1     -12.906  15.944  70.094  1.00  0.00    -0.285 OA 
BRANCH   5   7
HETATM    7  O   UNL     1     -11.011  14.967  70.912  1.00  0.00    -0.237 OA 
BRANCH   7   8
HETATM    8  C   UNL     1     -10.689  14.199  69.738  1.00  0.00     0.134 C  
BRANCH   8   9
HETATM    9  O   UNL     1     -10.536  14.987  68.561  1.00  0.00    -0.226 OA 
HETATM   10  P   UNL     1      -8.997  15.271  68.115  1.00  0.00    -0.181 P  
HETATM   11  C   UNL     1      -8.314  13.639  67.734  1.00  0.00    -0.181 C  
HETATM   12  O   UNL     1      -8.222  16.080  69.104  1.00  0.00    -0.226 OA 
HETATM   13  O   UNL     1      -9.069  15.863  66.620  1.00  0.00    -0.215 OA 
BRANCH  13  14
HETATM   14  C   UNL     1      -9.441  17.180  66.329  1.00  0.00    -0.243 C  
BRANCH  14  15
HETATM   15  O   UNL     1      -8.659  18.089  67.139  1.00  0.00    -0.231 OA 
BRANCH  15  16
HETATM   16  C   UNL     1      -7.457  18.466  66.616  1.00  0.00    -0.229 C  
HETATM   17  O   UNL     1      -7.011  18.044  65.555  1.00  0.00    -0.486 OA 
BRANCH  16  18
HETATM   18  C   UNL     1      -6.715  19.477  67.516  1.00  0.00    -0.234 C  
HETATM   19  C   UNL     1      -5.195  19.350  67.291  1.00  0.00    -0.162 C  
HETATM   20  C   UNL     1      -7.008  19.189  68.994  1.00  0.00    -0.371 C  
HETATM   21  C   UNL     1      -7.127  20.917  67.175  1.00  0.00    -0.413 C  
ENDBRANCH  16  18
ENDBRANCH  15  16
ENDBRANCH  14  15
ENDBRANCH  13  14
BRANCH  11  22
HETATM   22  O   UNL     1      -9.179  13.121  66.720  1.00  0.00    -0.233 OA 
BRANCH  22  23
HETATM   23  C   UNL     1      -8.836  11.811  66.318  1.00  0.00    -0.142 C  
BRANCH  23  24
HETATM   24  C   UNL     1     -10.068  10.927  66.454  1.00  0.00    -0.231 C  
BRANCH  24  25
HETATM   25  N   UNL     1      -9.985  10.142  67.657  1.00  0.00    -0.174 NA 
HETATM   26  C   UNL     1     -10.902  10.163  68.665  1.00  0.00    -0.235 A  
HETATM   27  N   UNL     1     -12.111  10.749  68.664  1.00  0.00    -0.450 NA 
HETATM   28  H2  UNL     1      -9.570   9.351  72.266  1.00  0.00     0.000 HD 
HETATM   29  H1  UNL     1     -10.980   8.878  72.967  1.00  0.00     0.000 HD 
HETATM   30  C   UNL     1      -8.894   9.438  68.090  1.00  0.00    -0.124 A  
HETATM   31  N   UNL     1      -9.039   9.038  69.335  1.00  0.00    -0.143 NA 
HETATM   32  C   UNL     1     -10.284   9.510  69.715  1.00  0.00    -0.228 A  
HETATM   33  C   UNL     1     -10.985   9.472  70.929  1.00  0.00    -0.337 A  
HETATM   34  N   UNL     1     -10.469   8.906  72.085  1.00  0.00    -0.317 NA 
HETATM   35  N   UNL     1     -12.225  10.017  70.975  1.00  0.00    -0.338 NA 
HETATM   36  C   UNL     1     -12.709  10.613  69.862  1.00  0.00    -0.015 A  
ENDBRANCH  24  25
ENDBRANCH  23  24
ENDBRANCH  22  23
ENDBRANCH  11  22
ENDBRANCH   8   9
ENDBRANCH   7   8
ENDBRANCH   5   7
ENDBRANCH   2   5
TORSDOF 12
ENDMDL
