MODEL       73
REMARK 921   NORMALIZED FREE ENERGY PREDICTED BY IDOCK:   -5.02 KCAL/MOL
REMARK 922        TOTAL FREE ENERGY PREDICTED BY IDOCK:  -15.09 KCAL/MOL
REMARK 923 INTER-LIGAND FREE ENERGY PREDICTED BY IDOCK:  -12.03 KCAL/MOL
REMARK 924 INTRA-LIGAND FREE ENERGY PREDICTED BY IDOCK:   -3.06 KCAL/MOL
REMARK 927      BINDING AFFINITY PREDICTED BY RF-SCORE:    0.00 PKD
ROOT
HETATM    1  O   UNL     1     -13.477   9.744  70.611  1.00  0.00    -0.619 OA 
HETATM    2  C   UNL     1     -12.423   9.746  71.572  1.00  0.00    -0.403 C  
HETATM    3  H   UNL     1     -14.318   9.679  71.048  1.00  0.00     0.000 HD 
ENDROOT
BRANCH   2   4
HETATM    4  C   UNL     1     -11.058   9.851  70.864  1.00  0.00    -0.418 C  
BRANCH   4   5
HETATM    5  C   UNL     1      -9.904   9.126  71.565  1.00  0.00    -0.335 C  
BRANCH   5   6
HETATM    6  C   UNL     1      -8.579   9.029  70.775  1.00  0.00    -0.259 C  
HETATM    7  H   UNL     1      -6.893   7.556  67.434  1.00  0.00     0.000 HD 
HETATM    8  C   UNL     1      -8.600   8.334  69.348  1.00  0.00    -0.134 C  
HETATM    9  C   UNL     1      -7.594   8.169  71.578  1.00  0.00    -0.083 C  
HETATM   10  C   UNL     1      -6.522   7.829  70.584  1.00  0.00    -0.038 C  
HETATM   11  O   UNL     1      -7.029   8.866  72.672  1.00  0.00    -0.319 OA 
HETATM   12  O   UNL     1      -6.417   7.764  68.229  1.00  0.00    -0.053 OA 
HETATM   13  H   UNL     1      -6.419   8.333  73.169  1.00  0.00     0.000 HD 
HETATM   14  C   UNL     1      -7.281   7.498  69.316  1.00  0.00    -0.086 C  
BRANCH   8  15
HETATM   15  C   UNL     1      -8.800   9.297  68.134  1.00  0.00    -0.129 C  
BRANCH  15  16
HETATM   16  C   UNL     1      -9.810   8.843  67.096  1.00  0.00    -0.267 C  
HETATM   17  C   UNL     1     -10.066   9.277  65.846  1.00  0.00    -0.188 C  
BRANCH  17  18
HETATM   18  C   UNL     1      -9.413  10.394  65.082  1.00  0.00    -0.303 C  
BRANCH  18  19
HETATM   19  C   UNL     1     -10.180  10.749  63.799  1.00  0.00    -0.354 C  
BRANCH  19  20
HETATM   20  C   UNL     1     -10.758  12.158  63.782  1.00  0.00    -0.488 C  
BRANCH  20  21
HETATM   21  C   UNL     1     -12.209  12.149  64.154  1.00  0.00    -0.413 C  
HETATM   22  O   UNL     1     -13.157  12.145  63.378  1.00  0.00    -0.752 OA 
BRANCH  21  23
HETATM   23  O   UNL     1     -12.300  12.292  65.504  1.00  0.00    -0.602 OA 
BRANCH  23  24
HETATM   24  C   UNL     1     -12.644  13.622  65.830  1.00  0.00    -0.425 C  
BRANCH  24  25
HETATM   25  C   UNL     1     -12.033  14.083  67.136  1.00  0.00    -0.465 C  
BRANCH  25  26
HETATM   26  C   UNL     1     -10.683  14.772  66.951  1.00  0.00    -0.308 C  
BRANCH  26  27
HETATM   27  C   UNL     1     -10.630  15.801  65.813  1.00  0.00    -0.355 C  
BRANCH  27  28
HETATM   28  O   UNL     1      -9.309  16.282  65.690  1.00  0.00    -0.457 OA 
HETATM   29  N   UNL     1      -9.189  17.635  66.085  1.00  0.00    -0.177 N  
HETATM   30  O   UNL     1      -8.050  18.077  65.917  1.00  0.00    -0.519 OA 
HETATM   31  O   UNL     1     -10.191  18.188  66.521  1.00  0.00    -0.353 OA 
ENDBRANCH  27  28
ENDBRANCH  26  27
ENDBRANCH  25  26
ENDBRANCH  24  25
ENDBRANCH  23  24
ENDBRANCH  21  23
ENDBRANCH  20  21
ENDBRANCH  19  20
ENDBRANCH  18  19
ENDBRANCH  17  18
ENDBRANCH  15  16
ENDBRANCH   8  15
ENDBRANCH   5   6
ENDBRANCH   4   5
ENDBRANCH   2   4
BRANCH   2  32
HETATM   32  C   UNL     1     -12.546   8.449  72.359  1.00  0.00    -0.372 C  
BRANCH  32  33
HETATM   33  C   UNL     1     -13.040   7.303  71.484  1.00  0.00    -0.434 C  
BRANCH  33  34
HETATM   34  C   UNL     1     -11.872   6.497  71.019  1.00  0.00    -0.390 A  
HETATM   35  C   UNL     1     -10.578   5.570  69.200  1.00  0.00    -0.300 A  
HETATM   36  C   UNL     1     -10.063   4.981  71.490  1.00  0.00    -0.263 A  
HETATM   37  C   UNL     1     -11.615   6.384  69.645  1.00  0.00    -0.351 A  
HETATM   38  C   UNL     1     -11.098   5.793  71.940  1.00  0.00    -0.308 A  
HETATM   39  C   UNL     1      -9.803   4.869  70.122  1.00  0.00    -0.309 A  
ENDBRANCH  33  34
ENDBRANCH  32  33
ENDBRANCH   2  32
TORSDOF 18
ENDMDL
