MODEL      151
REMARK 921   NORMALIZED FREE ENERGY PREDICTED BY IDOCK:    4.15 KCAL/MOL
REMARK 922        TOTAL FREE ENERGY PREDICTED BY IDOCK:    5.18 KCAL/MOL
REMARK 923 INTER-LIGAND FREE ENERGY PREDICTED BY IDOCK:    1.27 KCAL/MOL
REMARK 924 INTRA-LIGAND FREE ENERGY PREDICTED BY IDOCK:    3.91 KCAL/MOL
REMARK 927      BINDING AFFINITY PREDICTED BY RF-SCORE:    0.00 PKD
ROOT
HETATM    1  C   UNL     1     -10.539  17.348  69.698  1.00  0.00     0.209 C  
HETATM    2  C   UNL     1      -9.501  17.308  68.540  1.00  0.00    -0.285 C  
HETATM    3  C   UNL     1     -10.174  18.026  67.352  1.00  0.00    -0.370 C  
ENDROOT
BRANCH   2   4
HETATM    4  C   UNL     1      -8.250  18.102  69.018  1.00  0.00    -0.039 C  
HETATM    5  H   UNL     1      -6.345  18.394  68.478  1.00  0.00     0.000 HD 
HETATM    6  O   UNL     1      -7.108  17.909  68.187  1.00  0.00    -0.211 OA 
ENDBRANCH   2   4
BRANCH   2   7
HETATM    7  C   UNL     1      -9.176  15.844  68.172  1.00  0.00    -0.190 A  
HETATM    8  C   UNL     1      -8.536  14.911  68.974  1.00  0.00    -0.178 A  
HETATM    9  C   UNL     1      -8.353  13.718  68.253  1.00  0.00    -0.161 A  
HETATM   10  C   UNL     1      -7.734  12.493  68.580  1.00  0.00    -0.063 A  
HETATM   11  C   UNL     1      -7.675  11.461  67.642  1.00  0.00    -0.121 A  
HETATM   12  C   UNL     1      -8.227  11.681  66.377  1.00  0.00    -0.052 A  
HETATM   13  C   UNL     1      -8.905  13.903  66.991  1.00  0.00    -0.218 A  
HETATM   14  C   UNL     1      -8.842  12.885  66.022  1.00  0.00     0.394 A  
HETATM   15  F   UNL     1      -8.176  10.694  65.463  1.00  0.00    -0.151 F  
HETATM   16  N   UNL     1      -9.453  15.184  66.974  1.00  0.00    -0.218 NA 
BRANCH  11  17
HETATM   17  N   UNL     1      -7.073  10.213  67.907  1.00  0.00    -0.084 N  
HETATM   18  H   UNL     1      -6.171  10.034  67.464  1.00  0.00     0.000 HD 
HETATM   19  C   UNL     1      -7.584   9.211  68.705  1.00  0.00    -0.084 C  
HETATM   20  O   UNL     1      -8.645   9.205  69.312  1.00  0.00    -0.130 OA 
BRANCH  19  21
HETATM   21  C   UNL     1      -6.675   8.012  68.837  1.00  0.00    -0.053 C  
HETATM   22  C   UNL     1      -5.905   7.820  70.139  1.00  0.00    -0.023 C  
HETATM   23  C   UNL     1      -5.181   8.321  68.930  1.00  0.00    -0.031 C  
BRANCH  21  24
HETATM   24  C   UNL     1      -7.110   6.799  68.015  1.00  0.00    -0.085 A  
HETATM   25  C   UNL     1      -7.035   3.672  64.797  1.00  0.00    -0.050 C  
HETATM   26  C   UNL     1      -7.922   5.793  68.606  1.00  0.00    -0.101 A  
HETATM   27  C   UNL     1      -6.638   6.574  66.709  1.00  0.00    -0.048 A  
HETATM   28  C   UNL     1      -8.213   4.588  67.956  1.00  0.00    -0.094 A  
HETATM   29  C   UNL     1      -7.690   4.406  66.697  1.00  0.00    -0.094 A  
HETATM   30  C   UNL     1      -6.936   5.379  66.086  1.00  0.00    -0.063 A  
HETATM   31  F   UNL     1      -6.001   2.803  64.674  1.00  0.00    -0.016 F  
HETATM   32  O   UNL     1      -6.503   5.003  64.852  1.00  0.00    -0.034 OA 
HETATM   33  F   UNL     1      -7.800   3.557  63.686  1.00  0.00    -0.073 F  
HETATM   34  O   UNL     1      -7.821   3.289  65.935  1.00  0.00    -0.083 OA 
ENDBRANCH  21  24
ENDBRANCH  19  21
ENDBRANCH  11  17
BRANCH  16  35
HETATM   35  C   UNL     1     -10.181  15.709  65.825  1.00  0.00    -0.367 C  
BRANCH  35  36
HETATM   36  C   UNL     1     -11.475  16.466  66.172  1.00  0.00     0.726 C  
HETATM   37  H   UNL     1     -12.173  18.321  66.025  1.00  0.00     0.000 HD 
HETATM   38  O   UNL     1     -11.374  17.853  65.811  1.00  0.00     0.568 OA 
BRANCH  36  39
HETATM   39  C   UNL     1     -12.648  15.884  65.372  1.00  0.00     1.785 C  
HETATM   40  O   UNL     1     -13.511  15.153  66.243  1.00  0.00     1.357 OA 
HETATM   41  H   UNL     1     -14.238  14.793  65.747  1.00  0.00     0.000 HD 
ENDBRANCH  36  39
ENDBRANCH  35  36
ENDBRANCH  16  35
ENDBRANCH   2   7
TORSDOF 8
ENDMDL
