MODEL       50
REMARK 921   NORMALIZED FREE ENERGY PREDICTED BY IDOCK:   -4.31 KCAL/MOL
REMARK 922        TOTAL FREE ENERGY PREDICTED BY IDOCK:   -5.75 KCAL/MOL
REMARK 923 INTER-LIGAND FREE ENERGY PREDICTED BY IDOCK:   -4.99 KCAL/MOL
REMARK 924 INTRA-LIGAND FREE ENERGY PREDICTED BY IDOCK:   -0.76 KCAL/MOL
REMARK 927      BINDING AFFINITY PREDICTED BY RF-SCORE:    0.00 PKD
ROOT
HETATM    1  C   UNK     1     -10.690  10.953  69.185  1.00  0.00    -0.226 C  
HETATM    2  N   UNK     1     -10.081  11.687  68.099  1.00  0.00    -0.190 NA 
HETATM    3  H   UNK     1      -9.732  11.160  67.299  1.00  0.00     0.000 HD 
HETATM    4  C   UNK     1      -9.947  13.037  68.083  1.00  0.00    -0.231 C  
HETATM    5  N   UNK     1      -9.525  13.467  66.865  1.00  0.00    -0.250 NA 
HETATM    6  N   UNK     1     -10.164  13.835  69.065  1.00  0.00    -0.430 NA 
HETATM    7  H   UNK     1      -9.505  12.827  66.071  1.00  0.00     0.000 HD 
HETATM    8  H2  UNK     1     -10.466  13.413  69.943  1.00  0.00     0.000 HD 
HETATM    9  H1  UNK     1     -10.063  14.850  69.053  1.00  0.00     0.000 HD 
ENDROOT
BRANCH   5  10
HETATM   10  C   UNK     1      -9.103  14.855  66.703  1.00  0.00    -0.280 C  
BRANCH  10  11
HETATM   11  C   UNK     1     -10.170  15.631  65.936  1.00  0.00    -0.372 C  
BRANCH  11  12
HETATM   12  C   UNK     1     -10.864  14.751  64.885  1.00  0.00    -0.433 C  
BRANCH  12  13
HETATM   13  C   UNK     1     -12.277  14.304  65.280  1.00  0.00    -0.414 C  
HETATM   14  C   UNK     1     -12.494  12.830  64.897  1.00  0.00    -0.497 C  
HETATM   15  N   UNK     1     -12.507  14.456  66.743  1.00  0.00    -0.516 NA 
HETATM   16  O   UNK     1     -12.741  12.421  63.776  1.00  0.00    -0.693 OA 
HETATM   17  O   UNK     1     -12.333  12.018  65.978  1.00  0.00    -0.462 OA 
HETATM   18  H1  UNK     1     -13.447  14.158  67.005  1.00  0.00     0.000 HD 
HETATM   19  H2  UNK     1     -12.316  15.408  67.054  1.00  0.00     0.000 HD 
ENDBRANCH  12  13
ENDBRANCH  11  12
ENDBRANCH  10  11
ENDBRANCH   5  10
TORSDOF 4
ENDMDL
