MODEL      269
REMARK 921   NORMALIZED FREE ENERGY PREDICTED BY IDOCK:   -0.81 KCAL/MOL
REMARK 922        TOTAL FREE ENERGY PREDICTED BY IDOCK:   -1.68 KCAL/MOL
REMARK 923 INTER-LIGAND FREE ENERGY PREDICTED BY IDOCK:   -2.61 KCAL/MOL
REMARK 924 INTRA-LIGAND FREE ENERGY PREDICTED BY IDOCK:    0.92 KCAL/MOL
REMARK 927      BINDING AFFINITY PREDICTED BY RF-SCORE:    0.00 PKD
ROOT
HETATM    1  C   UNL     1      -8.001   7.682  65.256  1.00  0.00    -0.129 C  
HETATM    2  O   UNL     1      -8.906   8.419  64.450  1.00  0.00     0.045 OA 
ENDROOT
BRANCH   2   3
HETATM    3  C   UNL     1      -9.257   9.677  65.033  1.00  0.00    -0.250 C  
BRANCH   3   4
HETATM    4  C   UNL     1      -9.768   9.393  66.440  1.00  0.00    -0.250 C  
BRANCH   4   5
HETATM    5  O   UNL     1     -10.849  10.257  66.806  1.00  0.00    -0.187 OA 
BRANCH   5   6
HETATM    6  C   UNL     1     -10.876  11.439  66.121  1.00  0.00    -0.255 A  
HETATM    7  C   UNL     1     -11.994  12.087  65.632  1.00  0.00    -0.076 A  
HETATM    8  N   UNL     1     -11.964  13.261  64.976  1.00  0.00    -0.351 NA 
HETATM    9  C   UNL     1     -10.758  13.790  64.801  1.00  0.00    -0.416 A  
HETATM   10  C   UNL     1      -9.686  12.096  65.868  1.00  0.00    -0.239 A  
HETATM   11  N   UNL     1      -9.591  13.274  65.199  1.00  0.00     0.105 NA 
BRANCH   9  12
HETATM   12  N   UNL     1     -10.714  15.035  64.179  1.00  0.00    -0.097 N  
HETATM   13  H   UNL     1     -10.339  15.176  63.242  1.00  0.00     0.000 HD 
BRANCH  12  14
HETATM   14  S   UNL     1     -11.337  16.282  65.113  1.00  0.00     0.122 S  
HETATM   15  O   UNL     1     -12.538  15.871  65.812  1.00  0.00     1.582 OA 
HETATM   16  O   UNL     1     -11.340  17.460  64.273  1.00  0.00    -0.849 OA 
BRANCH  14  17
HETATM   17  C   UNL     1     -10.070  16.554  66.344  1.00  0.00    -0.312 A  
HETATM   18  C   UNL     1     -10.364  16.334  67.693  1.00  0.00    -0.284 A  
HETATM   19  C   UNL     1      -9.372  16.537  68.652  1.00  0.00    -0.241 A  
HETATM   20  C   UNL     1      -8.095  16.946  68.263  1.00  0.00    -0.217 A  
HETATM   21  C   UNL     1      -7.798  17.136  66.913  1.00  0.00    -0.250 A  
HETATM   22  C   UNL     1      -8.782  16.924  65.945  1.00  0.00    -0.058 A  
ENDBRANCH  14  17
ENDBRANCH  12  14
ENDBRANCH   9  12
ENDBRANCH   5   6
ENDBRANCH   4   5
ENDBRANCH   3   4
ENDBRANCH   2   3
TORSDOF 7
ENDMDL
