MODEL        1
REMARK 921   NORMALIZED FREE ENERGY PREDICTED BY IDOCK:   -7.94 KCAL/MOL
REMARK 922        TOTAL FREE ENERGY PREDICTED BY IDOCK:  -12.57 KCAL/MOL
REMARK 923 INTER-LIGAND FREE ENERGY PREDICTED BY IDOCK:  -11.66 KCAL/MOL
REMARK 924 INTRA-LIGAND FREE ENERGY PREDICTED BY IDOCK:   -0.92 KCAL/MOL
REMARK 927      BINDING AFFINITY PREDICTED BY RF-SCORE:    0.00 PKD
ROOT
HETATM    1  C   UNL     1      -8.559  17.669  67.471  1.00  0.00    -0.222 C  
HETATM    2  C   UNL     1     -10.022  17.672  68.001  1.00  0.00    -0.326 C  
HETATM    3  C   UNL     1      -9.969  18.386  69.366  1.00  0.00     0.065 C  
ENDROOT
BRANCH   2   4
HETATM    4  C   UNL     1     -10.875  18.493  66.990  1.00  0.00    -0.207 C  
HETATM    5  H   UNL     1     -10.714  19.268  65.151  1.00  0.00     0.000 HD 
HETATM    6  O   UNL     1     -10.193  18.767  65.768  1.00  0.00    -0.541 OA 
ENDBRANCH   2   4
BRANCH   2   7
HETATM    7  C   UNL     1     -10.526  16.222  68.169  1.00  0.00    -0.289 A  
HETATM    8  C   UNL     1     -11.003  15.640  69.334  1.00  0.00    -0.283 A  
HETATM    9  C   UNL     1     -11.287  14.283  69.099  1.00  0.00    -0.312 A  
HETATM   10  C   UNL     1     -11.749  13.248  69.939  1.00  0.00    -0.330 A  
HETATM   11  C   UNL     1     -11.925  11.958  69.436  1.00  0.00    -0.289 A  
HETATM   12  C   UNL     1     -11.619  11.722  68.092  1.00  0.00    -0.323 A  
HETATM   13  C   UNL     1     -11.002  14.021  67.764  1.00  0.00    -0.258 A  
HETATM   14  C   UNL     1     -11.154  12.724  67.237  1.00  0.00    -0.314 A  
HETATM   15  F   UNL     1     -11.784  10.481  67.594  1.00  0.00    -0.345 F  
HETATM   16  N   UNL     1     -10.592  15.224  67.194  1.00  0.00    -0.295 NA 
BRANCH  11  17
HETATM   17  N   UNL     1     -12.386  10.881  70.221  1.00  0.00    -0.322 N  
HETATM   18  H   UNL     1     -13.391  10.835  70.395  1.00  0.00     0.000 HD 
HETATM   19  C   UNL     1     -11.613   9.883  70.777  1.00  0.00    -0.349 C  
HETATM   20  O   UNL     1     -10.399   9.754  70.711  1.00  0.00    -0.294 OA 
BRANCH  19  21
HETATM   21  C   UNL     1     -12.408   8.836  71.520  1.00  0.00    -0.380 C  
HETATM   22  C   UNL     1     -13.910   8.748  71.273  1.00  0.00    -0.226 C  
HETATM   23  C   UNL     1     -13.413   9.369  72.540  1.00  0.00    -0.437 C  
BRANCH  21  24
HETATM   24  C   UNL     1     -11.613   7.580  71.878  1.00  0.00    -0.312 A  
HETATM   25  C   UNL     1      -9.221   3.828  71.298  1.00  0.00    -0.128 C  
HETATM   26  C   UNL     1     -10.960   7.487  73.137  1.00  0.00    -0.420 A  
HETATM   27  C   UNL     1     -11.399   6.543  70.952  1.00  0.00    -0.393 A  
HETATM   28  C   UNL     1     -10.088   6.438  73.452  1.00  0.00    -0.222 A  
HETATM   29  C   UNL     1      -9.885   5.474  72.493  1.00  0.00    -0.164 A  
HETATM   30  C   UNL     1     -10.535   5.519  71.282  1.00  0.00    -0.239 A  
HETATM   31  F   UNL     1      -8.030   3.837  70.652  1.00  0.00    -0.052 F  
HETATM   32  O   UNL     1     -10.192   4.483  70.469  1.00  0.00    -0.204 OA 
HETATM   33  F   UNL     1      -9.591   2.535  71.457  1.00  0.00    -0.176 F  
HETATM   34  O   UNL     1      -9.042   4.414  72.596  1.00  0.00    -0.116 OA 
ENDBRANCH  21  24
ENDBRANCH  19  21
ENDBRANCH  11  17
BRANCH  16  35
HETATM   35  C   UNL     1     -10.269  15.351  65.778  1.00  0.00    -0.354 C  
BRANCH  35  36
HETATM   36  C   UNL     1     -11.483  15.302  64.833  1.00  0.00    -0.343 C  
HETATM   37  H   UNL     1     -12.221  16.380  63.337  1.00  0.00     0.000 HD 
HETATM   38  O   UNL     1     -11.472  16.411  63.920  1.00  0.00    -1.063 OA 
BRANCH  36  39
HETATM   39  C   UNL     1     -11.427  14.026  63.982  1.00  0.00    -0.096 C  
HETATM   40  O   UNL     1     -12.508  14.020  63.049  1.00  0.00    -1.101 OA 
HETATM   41  H   UNL     1     -12.473  13.231  62.522  1.00  0.00     0.000 HD 
ENDBRANCH  36  39
ENDBRANCH  35  36
ENDBRANCH  16  35
ENDBRANCH   2   7
TORSDOF 8
ENDMDL
