MODEL      249
REMARK 921   NORMALIZED FREE ENERGY PREDICTED BY IDOCK:    4.79 KCAL/MOL
REMARK 922        TOTAL FREE ENERGY PREDICTED BY IDOCK:    5.76 KCAL/MOL
REMARK 923 INTER-LIGAND FREE ENERGY PREDICTED BY IDOCK:    3.13 KCAL/MOL
REMARK 924 INTRA-LIGAND FREE ENERGY PREDICTED BY IDOCK:    2.62 KCAL/MOL
REMARK 927      BINDING AFFINITY PREDICTED BY RF-SCORE:    0.00 PKD
ROOT
HETATM    1  C   UNL     1      -9.647  13.575  68.137  1.00  0.00    -0.215 C  
HETATM    2  C   UNL     1     -10.870  13.132  68.928  1.00  0.00    -0.240 C  
ENDROOT
BRANCH   2   3
HETATM    3  C   UNL     1     -12.029  12.742  68.005  1.00  0.00    -0.315 C  
BRANCH   3   4
HETATM    4  C   UNL     1     -12.116  13.607  66.737  1.00  0.00    -0.399 C  
BRANCH   4   5
HETATM    5  N   UNL     1     -11.083  14.647  66.619  1.00  0.00    -0.327 NA 
HETATM    6  C   UNL     1     -10.459  14.731  65.282  1.00  0.00    -0.404 C  
HETATM    7  C   UNL     1     -11.265  15.462  64.202  1.00  0.00     0.127 C  
HETATM    8  C   UNL     1     -11.838  16.792  64.679  1.00  0.00     1.074 C  
HETATM    9  C   UNL     1     -12.539  16.624  66.022  1.00  0.00     4.473 C  
HETATM   10  C   UNL     1     -11.604  15.977  67.052  1.00  0.00     0.435 C  
BRANCH  10  11
HETATM   11  C   UNL     1     -10.432  16.925  67.412  1.00  0.00    -0.310 C  
HETATM   12  N   UNL     1     -10.356  18.028  66.573  1.00  0.00    -0.376 N  
HETATM   13  O   UNL     1      -9.620  16.664  68.298  1.00  0.00    -0.222 OA 
HETATM   14  H   UNL     1     -11.111  18.219  65.914  1.00  0.00     0.000 HD 
BRANCH  12  15
HETATM   15  C   UNL     1      -9.244  18.879  66.630  1.00  0.00    -0.330 A  
HETATM   16  C   UNL     1      -9.375  20.162  67.192  1.00  0.00    -0.521 A  
HETATM   17  C   UNL     1     -10.687  20.740  67.630  1.00  0.00     0.787 C  
HETATM   18  C   UNL     1      -8.239  20.990  67.220  1.00  0.00    -0.030 A  
HETATM   19  C   UNL     1      -7.009  20.538  66.737  1.00  0.00    -0.330 A  
HETATM   20  C   UNL     1      -6.890  19.259  66.212  1.00  0.00    -0.231 A  
HETATM   21  C   UNL     1      -8.002  18.414  66.145  1.00  0.00    -0.217 A  
HETATM   22  C   UNL     1      -7.843  17.024  65.588  1.00  0.00     0.704 C  
ENDBRANCH  12  15
ENDBRANCH  10  11
ENDBRANCH   4   5
ENDBRANCH   3   4
ENDBRANCH   2   3
TORSDOF 5
ENDMDL
