MODEL      107
REMARK 921   NORMALIZED FREE ENERGY PREDICTED BY IDOCK:    8.20 KCAL/MOL
REMARK 922        TOTAL FREE ENERGY PREDICTED BY IDOCK:    8.97 KCAL/MOL
REMARK 923 INTER-LIGAND FREE ENERGY PREDICTED BY IDOCK:    9.31 KCAL/MOL
REMARK 924 INTRA-LIGAND FREE ENERGY PREDICTED BY IDOCK:   -0.34 KCAL/MOL
REMARK 927      BINDING AFFINITY PREDICTED BY RF-SCORE:    0.00 PKD
ROOT
HETATM    1  N   UNL     1     -10.854  19.558  65.428  1.00  0.00    -0.241 N  
HETATM    2  H2  UNL     1     -10.247  20.375  65.489  1.00  0.00     0.000 HD 
HETATM    3  C   UNL     1     -10.371  18.339  65.804  1.00  0.00    -0.181 C  
HETATM    4  H1  UNL     1     -11.809  19.669  65.087  1.00  0.00     0.000 HD 
HETATM    5  O   UNL     1      -9.224  18.205  66.214  1.00  0.00    -0.410 OA 
ENDROOT
BRANCH   3   6
HETATM    6  C   UNL     1     -11.282  17.187  65.694  1.00  0.00     0.488 A  
HETATM    7  C   UNL     1     -12.576  17.326  65.125  1.00  0.00     6.453 A  
HETATM    8  C   UNL     1     -13.505  16.247  65.004  1.00  0.00     4.631 A  
HETATM    9  C   UNL     1     -13.236  14.936  65.438  1.00  0.00     0.799 A  
HETATM   10  C   UNL     1     -11.958  14.835  65.975  1.00  0.00    -0.155 A  
HETATM   11  C   UNL     1     -11.407  13.686  66.461  1.00  0.00    -0.319 A  
HETATM   12  N   UNL     1     -10.127  14.017  66.848  1.00  0.00    -0.255 NA 
HETATM   13  C   UNL     1     -10.978  15.876  66.124  1.00  0.00    -0.126 A  
HETATM   14  N   UNL     1      -9.871  15.350  66.691  1.00  0.00    -0.245 NA 
BRANCH  12  15
HETATM   15  C   UNL     1      -9.128  13.136  67.357  1.00  0.00    -0.208 A  
HETATM   16  C   UNL     1      -7.768  13.449  67.238  1.00  0.00    -0.092 A  
HETATM   17  C   UNL     1      -6.798  12.571  67.728  1.00  0.00    -0.120 A  
HETATM   18  C   UNL     1      -7.159  11.366  68.348  1.00  0.00    -0.079 A  
HETATM   19  C   UNL     1      -8.522  11.067  68.478  1.00  0.00    -0.153 A  
HETATM   20  C   UNL     1      -9.499  11.943  67.990  1.00  0.00    -0.197 A  
BRANCH  18  21
HETATM   21  C   UNL     1      -6.103  10.388  68.839  1.00  0.00    -0.040 C  
HETATM   22  C   UNL     1      -6.130   9.064  68.052  1.00  0.00    -0.050 C  
HETATM   23  C   UNL     1      -5.153   8.054  68.650  1.00  0.00    -0.024 C  
HETATM   24  C   UNL     1      -5.388   7.879  70.149  1.00  0.00    -0.023 C  
HETATM   25  N   UNL     1      -5.273   9.152  70.863  1.00  0.00    -0.028 NA 
HETATM   26  C   UNL     1      -6.249  10.126  70.355  1.00  0.00    -0.112 C  
HETATM   27  H   UNL     1      -4.322   9.518  70.830  1.00  0.00     0.000 HD 
ENDBRANCH  18  21
ENDBRANCH  12  15
ENDBRANCH   3   6
TORSDOF 3
ENDMDL
