MODEL       46
REMARK 921   NORMALIZED FREE ENERGY PREDICTED BY IDOCK:   -4.53 KCAL/MOL
REMARK 922        TOTAL FREE ENERGY PREDICTED BY IDOCK:   -4.87 KCAL/MOL
REMARK 923 INTER-LIGAND FREE ENERGY PREDICTED BY IDOCK:   -4.76 KCAL/MOL
REMARK 924 INTRA-LIGAND FREE ENERGY PREDICTED BY IDOCK:   -0.11 KCAL/MOL
REMARK 927      BINDING AFFINITY PREDICTED BY RF-SCORE:    0.00 PKD
ROOT
HETATM    1  C   UNL     1      -7.826  17.026  66.370  1.00  0.00    -0.343 C  
HETATM    2  C   UNL     1      -8.781  17.598  67.424  1.00  0.00    -0.234 C  
HETATM    3  C   UNL     1      -8.395  19.085  67.639  1.00  0.00    -0.287 C  
HETATM    4  C   UNL     1     -10.263  17.588  66.948  1.00  0.00    -0.329 C  
HETATM    5  N   UNL     1      -8.592  16.835  68.678  1.00  0.00    -0.254 NA 
HETATM    6  H2  UNL     1      -7.621  16.825  68.990  1.00  0.00     0.000 HD 
HETATM    7  O   UNL     1      -7.973  19.352  68.900  1.00  0.00    -0.358 OA 
HETATM    8  H1  UNL     1      -9.227  17.216  69.379  1.00  0.00     0.000 HD 
HETATM    9  O   UNL     1      -8.449  19.954  66.781  1.00  0.00    -0.302 OA 
ENDROOT
BRANCH   4  10
HETATM   10  C   UNL     1     -10.863  16.243  66.583  1.00  0.00    -0.115 A  
HETATM   11  C   UNL     1     -11.506  15.449  67.544  1.00  0.00    -0.228 A  
HETATM   12  C   UNL     1     -12.028  14.198  67.212  1.00  0.00    -0.449 A  
HETATM   13  C   UNL     1     -11.937  13.748  65.902  1.00  0.00    -0.406 A  
HETATM   14  C   UNL     1     -11.352  14.538  64.920  1.00  0.00    -0.394 A  
HETATM   15  O   UNL     1     -12.416  12.525  65.540  1.00  0.00    -0.646 OA 
HETATM   16  C   UNL     1     -10.814  15.782  65.259  1.00  0.00    -0.409 A  
HETATM   17  H   UNL     1     -12.353  12.217  64.643  1.00  0.00     0.000 HD 
ENDBRANCH   4  10
TORSDOF 1
ENDMDL
