MODEL       59
REMARK 921   NORMALIZED FREE ENERGY PREDICTED BY IDOCK:   -6.45 KCAL/MOL
REMARK 922        TOTAL FREE ENERGY PREDICTED BY IDOCK:   -9.99 KCAL/MOL
REMARK 923 INTER-LIGAND FREE ENERGY PREDICTED BY IDOCK:   -8.81 KCAL/MOL
REMARK 924 INTRA-LIGAND FREE ENERGY PREDICTED BY IDOCK:   -1.18 KCAL/MOL
REMARK 927      BINDING AFFINITY PREDICTED BY RF-SCORE:    0.00 PKD
ROOT
HETATM    1  C   UNL     1      -9.581   7.300  72.993  1.00  0.00    -0.219 C  
HETATM    2  C   UNL     1     -10.950   7.609  72.411  1.00  0.00    -0.353 C  
ENDROOT
BRANCH   2   3
HETATM    3  C   UNL     1     -11.100   8.811  71.498  1.00  0.00    -0.377 A  
HETATM    4  C   UNL     1     -12.288   9.588  71.633  1.00  0.00    -0.480 A  
HETATM    5  C   UNL     1     -12.315  10.889  71.127  1.00  0.00    -0.479 A  
HETATM    6  C   UNL     1     -10.202   9.143  70.463  1.00  0.00    -0.288 A  
HETATM    7  C   UNL     1     -10.459  10.296  69.728  1.00  0.00    -0.300 A  
HETATM    8  C   UNL     1     -11.343  11.258  70.223  1.00  0.00    -0.179 A  
HETATM    9  C   UNL     1     -11.504  12.370  69.235  1.00  0.00    -0.349 C  
HETATM   10  C   UNL     1     -11.613  11.450  68.007  1.00  0.00    -0.286 C  
HETATM   11  C   UNL     1     -10.304  10.559  68.218  1.00  0.00    -0.193 C  
BRANCH   4  12
HETATM   12  C   UNL     1     -13.568   8.916  72.102  1.00  0.00    -0.502 C  
HETATM   13  C   UNL     1     -14.279   8.013  71.094  1.00  0.00    -0.246 C  
ENDBRANCH   4  12
BRANCH  10  14
HETATM   14  N   UNL     1     -11.994  12.142  66.758  1.00  0.00    -0.615 NA 
HETATM   15  H   UNL     1     -12.871  11.791  66.375  1.00  0.00     0.000 HD 
BRANCH  14  16
HETATM   16  C   UNL     1     -12.033  13.633  67.003  1.00  0.00    -0.406 C  
BRANCH  16  17
HETATM   17  C   UNL     1     -11.161  14.510  66.063  1.00  0.00    -0.329 C  
HETATM   18  H   UNL     1     -10.321  14.266  64.320  1.00  0.00     0.000 HD 
HETATM   19  O   UNL     1     -10.854  13.730  64.894  1.00  0.00    -0.345 OA 
BRANCH  17  20
HETATM   20  C   UNL     1      -9.859  15.048  66.692  1.00  0.00    -0.266 A  
HETATM   21  C   UNL     1      -9.623  16.427  66.905  1.00  0.00    -0.255 A  
HETATM   22  C   UNL     1     -10.661  17.453  66.730  1.00  0.00    -0.100 C  
HETATM   23  C   UNL     1     -10.392  18.757  66.876  1.00  0.00    -0.456 C  
HETATM   24  C   UNL     1      -9.017  19.224  67.190  1.00  0.00    -0.296 C  
HETATM   25  N   UNL     1      -8.075  18.261  67.414  1.00  0.00    -0.230 N  
HETATM   26  O   UNL     1      -8.757  20.415  67.254  1.00  0.00    -0.345 OA 
HETATM   27  H   UNL     1      -7.133  18.558  67.667  1.00  0.00     0.000 HD 
HETATM   28  C   UNL     1      -8.333  16.878  67.314  1.00  0.00    -0.184 A  
HETATM   29  C   UNL     1      -7.312  15.960  67.572  1.00  0.00    -0.171 A  
HETATM   30  C   UNL     1      -7.550  14.602  67.430  1.00  0.00    -0.218 A  
HETATM   31  O   UNL     1      -6.058  16.325  67.983  1.00  0.00    -0.107 OA 
HETATM   32  C   UNL     1      -8.806  14.152  67.003  1.00  0.00    -0.237 A  
HETATM   33  H   UNL     1      -5.363  15.701  68.158  1.00  0.00     0.000 HD 
ENDBRANCH  17  20
ENDBRANCH  16  17
ENDBRANCH  14  16
ENDBRANCH  10  14
ENDBRANCH   2   3
TORSDOF 6
ENDMDL
