MODEL       37
REMARK 921   NORMALIZED FREE ENERGY PREDICTED BY IDOCK:   -4.83 KCAL/MOL
REMARK 922        TOTAL FREE ENERGY PREDICTED BY IDOCK:   -8.71 KCAL/MOL
REMARK 923 INTER-LIGAND FREE ENERGY PREDICTED BY IDOCK:   -7.99 KCAL/MOL
REMARK 924 INTRA-LIGAND FREE ENERGY PREDICTED BY IDOCK:   -0.72 KCAL/MOL
REMARK 927      BINDING AFFINITY PREDICTED BY RF-SCORE:    0.00 PKD
ROOT
HETATM    1  C   UNL     1     -11.895  15.801  71.844  1.00  0.00    -0.568 C  
HETATM    2  C   UNL     1     -12.401  15.662  70.416  1.00  0.00    -0.427 C  
ENDROOT
BRANCH   2   3
HETATM    3  C   UNL     1     -11.259  15.829  69.421  1.00  0.00    -0.324 C  
BRANCH   3   4
HETATM    4  O   UNL     1     -11.784  15.898  68.094  1.00  0.00    -0.292 OA 
BRANCH   4   5
HETATM    5  C   UNL     1     -11.532  14.827  67.271  1.00  0.00    -0.366 A  
HETATM    6  C   UNL     1     -11.734  13.493  67.663  1.00  0.00    -0.398 A  
HETATM    7  C   UNL     1     -11.431  12.419  66.819  1.00  0.00    -0.362 A  
HETATM    8  C   UNL     1     -11.047  12.686  65.509  1.00  0.00    -0.329 A  
HETATM    9  N   UNL     1     -11.730  11.112  67.217  1.00  0.00    -0.506 NA 
HETATM   10  H1  UNL     1     -11.510  10.329  66.601  1.00  0.00     0.000 HD 
HETATM   11  C   UNL     1     -10.847  13.999  65.089  1.00  0.00    -0.376 A  
HETATM   12  H2  UNL     1     -12.720  11.066  67.456  1.00  0.00     0.000 HD 
HETATM   13  C   UNL     1     -11.065  15.073  65.968  1.00  0.00    -0.329 A  
BRANCH  13  14
HETATM   14  C   UNL     1     -10.677  16.409  65.439  1.00  0.00    -0.296 C  
HETATM   15  O   UNL     1     -11.190  16.913  64.450  1.00  0.00    -1.159 OA 
BRANCH  14  16
HETATM   16  O   UNL     1      -9.532  16.818  66.034  1.00  0.00    -0.400 OA 
BRANCH  16  17
HETATM   17  C   UNL     1      -9.507  18.197  66.431  1.00  0.00    -0.278 C  
BRANCH  17  18
HETATM   18  C   UNL     1      -8.022  18.602  66.465  1.00  0.00    -0.278 C  
BRANCH  18  19
HETATM   19  N   UNL     1      -7.468  19.071  67.752  1.00  0.00    -0.243 NA 
BRANCH  19  20
HETATM   20  C   UNL     1      -7.356  20.540  67.707  1.00  0.00    -0.265 C  
HETATM   21  C   UNL     1      -6.470  21.070  66.588  1.00  0.00    -0.361 C  
ENDBRANCH  19  20
BRANCH  19  22
HETATM   22  C   UNL     1      -6.233  18.378  68.136  1.00  0.00    -0.187 C  
HETATM   23  C   UNL     1      -6.327  17.443  69.339  1.00  0.00    -0.246 C  
ENDBRANCH  19  22
ENDBRANCH  18  19
ENDBRANCH  17  18
ENDBRANCH  16  17
ENDBRANCH  14  16
ENDBRANCH  13  14
ENDBRANCH   4   5
ENDBRANCH   3   4
ENDBRANCH   2   3
TORSDOF 10
ENDMDL
