MODEL        4
REMARK 921   NORMALIZED FREE ENERGY PREDICTED BY IDOCK:   -9.65 KCAL/MOL
REMARK 922        TOTAL FREE ENERGY PREDICTED BY IDOCK:  -15.53 KCAL/MOL
REMARK 923 INTER-LIGAND FREE ENERGY PREDICTED BY IDOCK:  -13.63 KCAL/MOL
REMARK 924 INTRA-LIGAND FREE ENERGY PREDICTED BY IDOCK:   -1.91 KCAL/MOL
REMARK 927      BINDING AFFINITY PREDICTED BY RF-SCORE:    0.00 PKD
ROOT
HETATM    1  C   UNL     1     -10.080  20.264  69.340  1.00  0.00     0.138 C  
HETATM    2  O   UNL     1     -10.477  19.948  68.008  1.00  0.00    -0.418 OA 
ENDROOT
BRANCH   2   3
HETATM    3  C   UNL     1     -10.347  18.629  67.657  1.00  0.00    -0.412 A  
HETATM    4  C   UNL     1     -10.417  18.363  66.292  1.00  0.00    -0.393 A  
HETATM    5  C   UNL     1     -10.322  17.063  65.799  1.00  0.00    -0.275 A  
HETATM    6  O   UNL     1     -10.606  19.381  65.395  1.00  0.00    -0.475 OA 
HETATM    7  C   UNL     1     -10.125  15.972  66.670  1.00  0.00    -0.287 A  
HETATM    8  H   UNL     1     -10.654  19.200  64.465  1.00  0.00     0.000 HD 
HETATM    9  C   UNL     1     -10.029  16.251  68.043  1.00  0.00    -0.240 A  
HETATM   10  C   UNL     1     -10.133  17.567  68.533  1.00  0.00    -0.363 A  
BRANCH   7  11
HETATM   11  C   UNL     1     -10.045  14.578  66.154  1.00  0.00    -0.305 C  
HETATM   12  C   UNL     1     -10.184  14.337  64.841  1.00  0.00    -0.361 C  
HETATM   13  C   UNL     1     -10.200  12.956  64.357  1.00  0.00    -0.318 C  
HETATM   14  O   UNL     1     -10.334  12.703  63.170  1.00  0.00    -0.205 OA 
HETATM   15  C   UNL     1     -10.069  11.897  65.355  1.00  0.00    -0.285 A  
HETATM   16  C   UNL     1     -10.153  10.557  64.987  1.00  0.00    -0.321 A  
HETATM   17  C   UNL     1      -9.976   9.549  65.928  1.00  0.00    -0.342 A  
HETATM   18  O   UNL     1     -10.386  10.146  63.703  1.00  0.00    -0.413 OA 
HETATM   19  C   UNL     1      -9.694   9.869  67.253  1.00  0.00    -0.171 A  
HETATM   20  H   UNL     1     -10.443   9.232  63.452  1.00  0.00     0.000 HD 
HETATM   21  C   UNL     1      -9.634  11.231  67.629  1.00  0.00    -0.180 A  
HETATM   22  C   UNL     1      -9.849  12.251  66.683  1.00  0.00    -0.220 A  
HETATM   23  O   UNL     1      -9.822  13.572  67.104  1.00  0.00    -0.235 OA 
BRANCH  19  24
HETATM   24  O   UNL     1      -9.362   8.955  68.216  1.00  0.00    -0.142 OA 
BRANCH  24  25
HETATM   25  C   UNL     1     -10.337   8.499  69.193  1.00  0.00    -0.217 C  
HETATM   26  O   UNL     1     -10.923   9.534  69.999  1.00  0.00    -0.234 OA 
HETATM   27  C   UNL     1     -11.885   9.098  70.965  1.00  0.00    -0.292 C  
HETATM   28  H   UNL     1      -9.785   5.195  71.472  1.00  0.00     0.000 HD 
HETATM   29  C   UNL     1     -11.270   8.020  71.883  1.00  0.00    -0.280 C  
HETATM   30  O   UNL     1      -9.379   6.234  69.147  1.00  0.00    -0.131 OA 
HETATM   31  C   UNL     1     -10.734   6.855  71.073  1.00  0.00    -0.231 C  
HETATM   32  O   UNL     1     -12.158   7.453  72.860  1.00  0.00    -0.542 OA 
HETATM   33  H   UNL     1     -11.780   6.790  73.424  1.00  0.00     0.000 HD 
HETATM   34  H   UNL     1      -9.012   5.517  69.649  1.00  0.00     0.000 HD 
HETATM   35  O   UNL     1     -10.120   5.925  71.979  1.00  0.00    -0.184 OA 
HETATM   36  C   UNL     1      -9.739   7.327  70.014  1.00  0.00    -0.175 C  
BRANCH  27  37
HETATM   37  C   UNL     1     -12.286  10.240  71.924  1.00  0.00    -0.148 C  
BRANCH  37  38
HETATM   38  O   UNL     1     -13.259  11.176  71.480  1.00  0.00    -0.388 OA 
BRANCH  38  39
HETATM   39  C   UNL     1     -12.797  12.536  71.707  1.00  0.00    -0.242 C  
HETATM   40  C   UNL     1     -13.446  14.604  72.817  1.00  0.00    -0.473 C  
HETATM   41  O   UNL     1     -13.736  13.232  72.533  1.00  0.00    -0.621 OA 
HETATM   42  C   UNL     1     -13.164  15.427  71.545  1.00  0.00    -0.490 C  
HETATM   43  C   UNL     1     -12.361  14.729  73.882  1.00  0.00    -0.424 C  
HETATM   44  O   UNL     1     -14.370  15.541  70.770  1.00  0.00    -0.844 OA 
HETATM   45  C   UNL     1     -12.108  14.763  70.662  1.00  0.00    -0.310 C  
HETATM   46  O   UNL     1     -10.798  14.872  71.227  1.00  0.00    -0.552 OA 
HETATM   47  C   UNL     1     -12.496  13.305  70.384  1.00  0.00    -0.225 C  
HETATM   48  H   UNL     1     -14.196  16.048  69.985  1.00  0.00     0.000 HD 
HETATM   49  H   UNL     1     -10.141  14.460  70.678  1.00  0.00     0.000 HD 
HETATM   50  O   UNL     1     -11.468  12.644  69.632  1.00  0.00    -0.403 OA 
HETATM   51  H   UNL     1     -11.285  13.112  68.826  1.00  0.00     0.000 HD 
ENDBRANCH  38  39
ENDBRANCH  37  38
ENDBRANCH  27  37
ENDBRANCH  24  25
ENDBRANCH  19  24
ENDBRANCH   7  11
ENDBRANCH   2   3
TORSDOF 7
ENDMDL
