MODEL      239
REMARK 921   NORMALIZED FREE ENERGY PREDICTED BY IDOCK:    1.89 KCAL/MOL
REMARK 922        TOTAL FREE ENERGY PREDICTED BY IDOCK:    0.86 KCAL/MOL
REMARK 923 INTER-LIGAND FREE ENERGY PREDICTED BY IDOCK:   -2.86 KCAL/MOL
REMARK 924 INTRA-LIGAND FREE ENERGY PREDICTED BY IDOCK:    3.71 KCAL/MOL
REMARK 927      BINDING AFFINITY PREDICTED BY RF-SCORE:    0.00 PKD
ROOT
HETATM    1  C   UNL     1      -9.923  12.805  66.050  1.00  0.00    -0.277 C  
HETATM    2  C   UNL     1      -8.664  12.211  66.772  1.00  0.00    -0.183 C  
HETATM    3  C   UNL     1      -8.526  10.680  66.752  1.00  0.00    -0.134 C  
HETATM    4  C   UNL     1     -10.995  13.617  66.909  1.00  0.00    -0.296 C  
HETATM    5  C   UNL     1      -8.712  10.077  65.370  1.00  0.00    -0.176 C  
HETATM    6  C   UNL     1     -11.917  15.333  65.162  1.00  0.00     0.047 C  
HETATM    7  C   UNL     1     -12.190  14.063  65.982  1.00  0.00    -0.484 C  
HETATM    8  C   UNL     1     -10.033  10.538  64.845  1.00  0.00    -0.401 C  
HETATM    9  C   UNL     1     -12.667  13.004  65.043  1.00  0.00    -0.475 C  
HETATM   10  C   UNL     1      -8.643   8.547  65.464  1.00  0.00    -0.204 C  
HETATM   11  C   UNL     1     -10.602  11.714  65.177  1.00  0.00    -0.343 C  
HETATM   12  C   UNL     1     -11.941  11.946  64.687  1.00  0.00    -0.251 C  
ENDROOT
BRANCH   2  13
HETATM   13  O   UNL     1      -8.636  12.501  68.171  1.00  0.00    -0.177 OA 
BRANCH  13  14
HETATM   14  C   UNL     1      -8.093  13.680  68.551  1.00  0.00    -0.118 C  
HETATM   15  C   UNL     1      -6.955  16.379  67.724  1.00  0.00    -0.157 C  
HETATM   16  C   UNL     1      -6.707  13.852  67.944  1.00  0.00    -0.165 C  
HETATM   17  O   UNL     1      -8.617  14.468  69.327  1.00  0.00    -0.041 OA 
HETATM   18  C   UNL     1      -6.699  15.061  67.004  1.00  0.00     0.475 C  
HETATM   19  C   UNL     1      -6.229  12.591  67.206  1.00  0.00    -0.124 C  
ENDBRANCH  13  14
ENDBRANCH   2  13
BRANCH   4  20
HETATM   20  C   UNL     1     -10.563  14.874  67.774  1.00  0.00    -0.262 C  
BRANCH  20  21
HETATM   21  C   UNL     1     -10.155  16.047  66.849  1.00  0.00    -0.266 C  
BRANCH  21  22
HETATM   22  C   UNL     1     -10.447  17.508  67.199  1.00  0.00    -0.312 C  
HETATM   23  C   UNL     1     -10.343  18.505  66.061  1.00  0.00    -0.423 C  
HETATM   24  C   UNL     1     -10.978  19.812  66.523  1.00  0.00    -0.156 C  
HETATM   25  O   UNL     1     -12.408  19.714  66.526  1.00  0.00     2.609 OA 
HETATM   26  C   UNL     1     -10.455  20.258  67.881  1.00  0.00    -0.321 C  
HETATM   27  C   UNL     1     -10.176  19.141  68.869  1.00  0.00    -0.236 C  
HETATM   28  H   UNL     1     -12.804  20.528  66.814  1.00  0.00     0.000 HD 
HETATM   29  O   UNL     1     -10.228  19.311  70.078  1.00  0.00     0.291 OA 
HETATM   30  O   UNL     1      -9.701  17.978  68.327  1.00  0.00    -0.298 OA 
ENDBRANCH  21  22
ENDBRANCH  20  21
ENDBRANCH   4  20
TORSDOF 5
ENDMDL
