MODEL       11
REMARK 921   NORMALIZED FREE ENERGY PREDICTED BY IDOCK:   -5.68 KCAL/MOL
REMARK 922        TOTAL FREE ENERGY PREDICTED BY IDOCK:  -14.37 KCAL/MOL
REMARK 923 INTER-LIGAND FREE ENERGY PREDICTED BY IDOCK:  -10.86 KCAL/MOL
REMARK 924 INTRA-LIGAND FREE ENERGY PREDICTED BY IDOCK:   -3.51 KCAL/MOL
REMARK 927      BINDING AFFINITY PREDICTED BY RF-SCORE:    0.00 PKD
ROOT
HETATM    1  C   UNL     1     -11.510   6.328  72.015  1.00  0.00    -0.359 C  
HETATM    2  C   UNL     1     -11.373   7.029  70.669  1.00  0.00    -0.349 C  
ENDROOT
BRANCH   2   3
HETATM    3  C   UNL     1     -11.243   5.999  69.547  1.00  0.00    -0.416 C  
BRANCH   3   4
HETATM    4  C   UNL     1      -9.797   5.670  69.146  1.00  0.00    -0.162 C  
BRANCH   4   5
HETATM    5  N   UNL     1      -8.810   6.779  69.091  1.00  0.00    -0.134 NA 
BRANCH   5   6
HETATM    6  C   UNL     1      -7.692   6.542  70.033  1.00  0.00    -0.102 C  
BRANCH   6   7
HETATM    7  C   UNL     1      -7.414   7.643  71.075  1.00  0.00    -0.075 C  
BRANCH   7   8
HETATM    8  C   UNL     1      -8.241   8.917  70.888  1.00  0.00    -0.207 C  
HETATM    9  C   UNL     1      -7.444   9.970  70.128  1.00  0.00    -0.176 C  
ENDBRANCH   7   8
ENDBRANCH   6   7
ENDBRANCH   5   6
BRANCH   5  10
HETATM   10  C   UNL     1      -8.304   6.916  67.701  1.00  0.00    -0.123 C  
BRANCH  10  11
HETATM   11  C   UNL     1      -9.379   7.185  66.637  1.00  0.00    -0.207 C  
BRANCH  11  12
HETATM   12  C   UNL     1      -9.933   8.601  66.760  1.00  0.00    -0.273 C  
BRANCH  12  13
HETATM   13  O   UNL     1      -8.852   9.537  66.762  1.00  0.00    -0.129 OA 
BRANCH  13  14
HETATM   14  C   UNL     1      -9.194  10.843  66.529  1.00  0.00    -0.171 A  
HETATM   15  C   UNL     1      -8.543  11.967  67.045  1.00  0.00    -0.176 A  
HETATM   16  C   UNL     1      -9.041  13.254  66.798  1.00  0.00    -0.216 A  
HETATM   17  C   UNL     1     -10.193  13.430  66.021  1.00  0.00    -0.301 A  
HETATM   18  C   UNL     1     -10.781  12.311  65.419  1.00  0.00    -0.320 A  
HETATM   19  C   UNL     1     -10.305  11.025  65.704  1.00  0.00    -0.311 A  
BRANCH  17  20
HETATM   20  C   UNL     1     -10.783  14.801  65.893  1.00  0.00    -0.316 C  
HETATM   21  O   UNL     1     -11.247  15.138  64.807  1.00  0.00    -0.394 OA 
BRANCH  20  22
HETATM   22  C   UNL     1     -10.745  15.705  67.046  1.00  0.00    -0.314 A  
HETATM   23  C   UNL     1     -11.309  15.450  68.295  1.00  0.00    -0.348 A  
HETATM   24  C   UNL     1      -9.224  19.223  66.731  1.00  0.00    -0.323 A  
HETATM   25  O   UNL     1     -11.070  16.497  69.138  1.00  0.00    -0.311 OA 
HETATM   26  C   UNL     1      -9.462  19.597  68.051  1.00  0.00    -0.446 A  
HETATM   27  C   UNL     1     -10.441  17.464  68.433  1.00  0.00    -0.384 A  
HETATM   28  C   UNL     1     -10.232  17.052  67.124  1.00  0.00    -0.306 A  
HETATM   29  C   UNL     1     -10.093  18.716  68.934  1.00  0.00    -0.357 A  
HETATM   30  C   UNL     1      -9.641  17.979  66.243  1.00  0.00    -0.246 A  
BRANCH  23  31
HETATM   31  C   UNL     1     -12.207  14.419  68.893  1.00  0.00    -0.214 C  
BRANCH  31  32
HETATM   32  C   UNL     1     -11.569  13.293  69.705  1.00  0.00    -0.329 C  
BRANCH  32  33
HETATM   33  C   UNL     1     -11.909  11.961  69.013  1.00  0.00    -0.368 C  
HETATM   34  C   UNL     1     -11.177  10.758  69.579  1.00  0.00    -0.342 C  
ENDBRANCH  32  33
ENDBRANCH  31  32
ENDBRANCH  23  31
BRANCH  24  35
HETATM   35  N   UNL     1      -8.556  20.108  65.836  1.00  0.00    -0.535 N  
HETATM   36  H   UNL     1      -9.069  20.603  65.106  1.00  0.00     0.000 HD 
BRANCH  35  37
HETATM   37  S   UNL     1      -6.889  20.313  66.017  1.00  0.00    -0.245 S  
HETATM   38  C   UNL     1      -6.421  18.744  66.718  1.00  0.00    -0.187 C  
HETATM   39  O   UNL     1      -6.265  20.467  64.724  1.00  0.00    -0.252 OA 
HETATM   40  O   UNL     1      -6.737  21.317  67.050  1.00  0.00    -0.439 OA 
ENDBRANCH  35  37
ENDBRANCH  24  35
ENDBRANCH  20  22
ENDBRANCH  17  20
ENDBRANCH  13  14
ENDBRANCH  12  13
ENDBRANCH  11  12
ENDBRANCH  10  11
ENDBRANCH   5  10
ENDBRANCH   4   5
ENDBRANCH   3   4
ENDBRANCH   2   3
TORSDOF 18
ENDMDL
