MODEL      106
REMARK 921   NORMALIZED FREE ENERGY PREDICTED BY IDOCK:   -3.11 KCAL/MOL
REMARK 922        TOTAL FREE ENERGY PREDICTED BY IDOCK:   -3.60 KCAL/MOL
REMARK 923 INTER-LIGAND FREE ENERGY PREDICTED BY IDOCK:   -3.44 KCAL/MOL
REMARK 924 INTRA-LIGAND FREE ENERGY PREDICTED BY IDOCK:   -0.16 KCAL/MOL
REMARK 927      BINDING AFFINITY PREDICTED BY RF-SCORE:    0.00 PKD
ROOT
HETATM    1  C   UNL     1     -11.241  15.443  66.312  1.00  0.00    -0.162 C  
HETATM    2  O   UNL     1     -11.781  14.452  65.450  1.00  0.00    -0.346 OA 
ENDROOT
BRANCH   2   3
HETATM    3  C   UNL     1     -11.103  13.264  65.352  1.00  0.00    -0.282 A  
HETATM    4  C   UNL     1     -10.128  12.821  66.252  1.00  0.00    -0.267 A  
HETATM    5  C   UNL     1      -9.469  11.595  66.064  1.00  0.00    -0.246 A  
HETATM    6  H   UNL     1     -12.566  12.346  62.602  1.00  0.00     0.000 HD 
HETATM    7  C   UNL     1      -9.796  10.815  64.948  1.00  0.00    -0.350 A  
HETATM    8  C   UNL     1     -10.771  11.241  64.042  1.00  0.00    -0.444 A  
HETATM    9  O   UNL     1     -12.356  12.891  63.351  1.00  0.00    -0.653 OA 
HETATM   10  C   UNL     1     -11.414  12.461  64.247  1.00  0.00    -0.363 A  
BRANCH   5  11
HETATM   11  C   UNL     1      -8.381  11.148  66.950  1.00  0.00    -0.147 C  
HETATM   12  C   UNL     1      -7.477  11.956  67.524  1.00  0.00    -0.136 C  
HETATM   13  C   UNL     1      -6.353  11.466  68.380  1.00  0.00    -0.046 C  
ENDBRANCH   5  11
ENDBRANCH   2   3
TORSDOF 2
ENDMDL
