MODEL       14
REMARK 921   NORMALIZED FREE ENERGY PREDICTED BY IDOCK:   -6.28 KCAL/MOL
REMARK 922        TOTAL FREE ENERGY PREDICTED BY IDOCK:  -13.25 KCAL/MOL
REMARK 923 INTER-LIGAND FREE ENERGY PREDICTED BY IDOCK:  -11.90 KCAL/MOL
REMARK 924 INTRA-LIGAND FREE ENERGY PREDICTED BY IDOCK:   -1.36 KCAL/MOL
REMARK 927      BINDING AFFINITY PREDICTED BY RF-SCORE:    0.00 PKD
ROOT
HETATM    1  C   UNL     1      -9.244   9.242  67.473  1.00  0.00    -0.124 C  
HETATM    2  C   UNL     1     -10.260   8.460  66.643  1.00  0.00    -0.335 C  
ENDROOT
BRANCH   1   3
HETATM    3  C   UNL     1      -8.752   8.493  68.705  1.00  0.00    -0.139 C  
BRANCH   3   4
HETATM    4  N   UNL     1      -9.736   7.715  69.408  1.00  0.00    -0.163 NA 
HETATM    5  C   UNL     1     -10.635   8.270  70.265  1.00  0.00    -0.227 A  
HETATM    6  N   UNL     1     -12.612   8.819  71.954  1.00  0.00    -0.346 NA 
HETATM    7  C   UNL     1     -10.065   6.398  69.250  1.00  0.00    -0.172 A  
HETATM    8  N   UNL     1     -13.418   6.602  71.958  1.00  0.00    -0.454 NA 
HETATM    9  N   UNL     1     -10.700   9.550  70.664  1.00  0.00    -0.284 NA 
HETATM   10  C   UNL     1     -12.509   7.549  71.503  1.00  0.00    -0.346 A  
HETATM   11  N   UNL     1     -11.095   6.061  69.992  1.00  0.00    -0.377 NA 
HETATM   12  C   UNL     1     -11.725   9.736  71.507  1.00  0.00    -0.375 A  
HETATM   13  C   UNL     1     -11.475   7.231  70.615  1.00  0.00    -0.293 A  
HETATM   14  H1  UNL     1     -14.172   6.834  72.604  1.00  0.00     0.000 HD 
HETATM   15  H2  UNL     1     -12.886   5.835  72.367  1.00  0.00     0.000 HD 
ENDBRANCH   3   4
ENDBRANCH   1   3
BRANCH   1  16
HETATM   16  O   UNL     1      -9.796  10.544  67.763  1.00  0.00    -0.161 OA 
BRANCH  16  17
HETATM   17  C   UNL     1      -9.441  11.607  66.846  1.00  0.00    -0.185 C  
HETATM   18  O   UNL     1     -10.911  11.371  64.971  1.00  0.00    -0.291 OA 
HETATM   19  O   UNL     1     -11.895  11.959  67.325  1.00  0.00    -0.576 OA 
HETATM   20  P   UNL     1     -10.900  12.412  66.092  1.00  0.00    -0.298 P  
HETATM   21  O   UNL     1     -12.280  13.174  65.378  1.00  0.00    -0.408 OA 
BRANCH  19  22
HETATM   22  C   UNL     1     -12.118  12.838  68.406  1.00  0.00    -0.101 C  
BRANCH  22  23
HETATM   23  O   UNL     1     -11.153  13.896  68.443  1.00  0.00    -0.236 OA 
BRANCH  23  24
HETATM   24  C   UNL     1     -11.153  14.605  69.600  1.00  0.00    -0.253 C  
HETATM   25  O   UNL     1     -10.330  15.453  69.918  1.00  0.00    -0.281 OA 
BRANCH  24  26
HETATM   26  O   UNL     1     -12.205  14.209  70.366  1.00  0.00    -0.312 OA 
BRANCH  26  27
HETATM   27  C   UNL     1     -12.750  15.225  71.236  1.00  0.00    -0.401 C  
HETATM   28  C   UNL     1     -14.254  15.009  71.370  1.00  0.00    -0.587 C  
HETATM   29  C   UNL     1     -12.078  15.132  72.602  1.00  0.00    -0.487 C  
ENDBRANCH  26  27
ENDBRANCH  24  26
ENDBRANCH  23  24
ENDBRANCH  22  23
ENDBRANCH  19  22
BRANCH  21  30
HETATM   30  C   UNL     1     -11.976  14.429  64.807  1.00  0.00    -0.447 C  
BRANCH  30  31
HETATM   31  O   UNL     1     -11.115  15.194  65.645  1.00  0.00    -0.336 OA 
BRANCH  31  32
HETATM   32  C   UNL     1     -10.692  16.354  65.091  1.00  0.00    -0.291 C  
HETATM   33  O   UNL     1     -11.277  16.984  64.219  1.00  0.00    -1.186 OA 
BRANCH  32  34
HETATM   34  O   UNL     1      -9.544  16.724  65.712  1.00  0.00    -0.506 OA 
BRANCH  34  35
HETATM   35  C   UNL     1      -9.555  18.010  66.362  1.00  0.00    -0.295 C  
HETATM   36  C   UNL     1      -8.193  18.200  67.024  1.00  0.00    -0.246 C  
HETATM   37  C   UNL     1     -10.658  18.067  67.414  1.00  0.00    -0.378 C  
ENDBRANCH  34  35
ENDBRANCH  32  34
ENDBRANCH  31  32
ENDBRANCH  30  31
ENDBRANCH  21  30
ENDBRANCH  16  17
ENDBRANCH   1  16
TORSDOF 14
ENDMDL
