MODEL       18
REMARK 921   NORMALIZED FREE ENERGY PREDICTED BY IDOCK:   -7.93 KCAL/MOL
REMARK 922        TOTAL FREE ENERGY PREDICTED BY IDOCK:  -12.19 KCAL/MOL
REMARK 923 INTER-LIGAND FREE ENERGY PREDICTED BY IDOCK:   -9.92 KCAL/MOL
REMARK 924 INTRA-LIGAND FREE ENERGY PREDICTED BY IDOCK:   -2.27 KCAL/MOL
REMARK 927      BINDING AFFINITY PREDICTED BY RF-SCORE:    0.00 PKD
ROOT
HETATM    1  C   UNL     1      -6.000   4.601  71.468  1.00  0.00    -0.017 C  
HETATM    2  C   UNL     1      -7.351   3.980  71.100  1.00  0.00    -0.040 C  
HETATM    3  O   UNL     1      -8.223   5.101  70.954  1.00  0.00    -0.105 OA 
HETATM    4  C   UNL     1      -9.632   4.934  71.032  1.00  0.00    -0.174 C  
HETATM    5  H   UNL     1      -9.196   0.819  72.798  1.00  0.00     0.000 HD 
HETATM    6  C   UNL     1     -10.085   3.900  72.074  1.00  0.00    -0.149 C  
HETATM    7  C   UNL     1      -9.264   2.609  71.941  1.00  0.00    -0.095 C  
HETATM    8  O   UNL     1      -6.935   1.785  72.071  1.00  0.00    -0.018 OA 
HETATM    9  O   UNL     1      -9.928   4.430  73.405  1.00  0.00    -0.130 OA 
HETATM   10  H   UNL     1     -10.207   3.791  74.049  1.00  0.00     0.000 HD 
HETATM   11  H   UNL     1      -7.199   1.145  72.722  1.00  0.00     0.000 HD 
HETATM   12  O   UNL     1      -9.704   1.617  72.880  1.00  0.00    -0.079 OA 
HETATM   13  C   UNL     1      -7.780   2.943  72.157  1.00  0.00    -0.054 C  
ENDROOT
BRANCH   4  14
HETATM   14  O   UNL     1     -10.285   4.669  69.789  1.00  0.00    -0.234 OA 
BRANCH  14  15
HETATM   15  C   UNL     1     -10.786   5.854  69.147  1.00  0.00    -0.336 C  
BRANCH  15  16
HETATM   16  C   UNL     1     -10.562   5.725  67.635  1.00  0.00    -0.239 C  
HETATM   17  C   UNL     1      -9.915   7.977  66.859  1.00  0.00    -0.268 C  
HETATM   18  O   UNL     1     -10.920   6.944  66.939  1.00  0.00    -0.377 OA 
HETATM   19  H   UNL     1      -7.247   5.866  68.840  1.00  0.00     0.000 HD 
HETATM   20  C   UNL     1      -8.681   7.329  66.189  1.00  0.00    -0.155 C  
HETATM   21  H   UNL     1      -8.510   3.892  65.910  1.00  0.00     0.000 HD 
HETATM   22  O   UNL     1      -9.027   6.802  64.883  1.00  0.00    -0.303 OA 
HETATM   23  C   UNL     1      -8.122   6.180  67.044  1.00  0.00    -0.106 C  
HETATM   24  H   UNL     1      -8.269   6.404  64.471  1.00  0.00     0.000 HD 
HETATM   25  O   UNL     1      -9.354   4.269  66.128  1.00  0.00    -0.141 OA 
HETATM   26  O   UNL     1      -7.594   6.576  68.312  1.00  0.00    -0.099 OA 
HETATM   27  C   UNL     1      -9.193   5.113  67.282  1.00  0.00    -0.115 C  
BRANCH  17  28
HETATM   28  O   UNL     1      -9.707   8.600  68.136  1.00  0.00    -0.151 OA 
BRANCH  28  29
HETATM   29  C   UNL     1     -10.388   9.791  68.386  1.00  0.00    -0.201 C  
HETATM   30  O   UNL     1     -11.266  11.448  69.957  1.00  0.00    -0.212 OA 
HETATM   31  C   UNL     1     -10.830  10.166  69.612  1.00  0.00    -0.263 C  
HETATM   32  C   UNL     1     -11.405  12.388  68.968  1.00  0.00    -0.283 A  
HETATM   33  O   UNL     1      -9.527  10.815  66.468  1.00  0.00    -0.164 OA 
HETATM   34  H   UNL     1     -11.027  11.735  65.081  1.00  0.00     0.000 HD 
HETATM   35  C   UNL     1     -11.822  13.678  69.294  1.00  0.00    -0.395 A  
HETATM   36  C   UNL     1     -10.335  10.878  67.386  1.00  0.00    -0.211 C  
HETATM   37  C   UNL     1     -12.034  14.608  68.270  1.00  0.00    -0.247 A  
HETATM   38  C   UNL     1     -11.130  12.076  67.622  1.00  0.00    -0.319 A  
HETATM   39  O   UNL     1     -11.341  12.604  65.304  1.00  0.00    -0.297 OA 
HETATM   40  C   UNL     1     -11.904  14.254  66.931  1.00  0.00    -0.458 A  
HETATM   41  O   UNL     1     -12.376  15.904  68.527  1.00  0.00    -0.371 OA 
HETATM   42  H   UNL     1     -12.520  16.536  67.832  1.00  0.00     0.000 HD 
HETATM   43  C   UNL     1     -11.446  12.986  66.606  1.00  0.00    -0.336 A  
BRANCH  31  44
HETATM   44  C   UNL     1     -10.764   9.207  70.724  1.00  0.00    -0.327 A  
HETATM   45  O   UNL     1     -10.779   7.058  74.274  1.00  0.00    -0.523 OA 
HETATM   46  H   UNL     1      -8.456   7.517  74.126  1.00  0.00     0.000 HD 
HETATM   47  C   UNL     1     -11.962   8.657  71.222  1.00  0.00    -0.339 A  
HETATM   48  H   UNL     1     -11.594   6.715  74.619  1.00  0.00     0.000 HD 
HETATM   49  O   UNL     1      -8.442   8.013  73.316  1.00  0.00    -0.181 OA 
HETATM   50  C   UNL     1     -10.769   7.722  73.080  1.00  0.00    -0.384 A  
HETATM   51  C   UNL     1      -9.573   8.225  72.574  1.00  0.00    -0.295 A  
HETATM   52  C   UNL     1      -9.552   8.952  71.386  1.00  0.00    -0.359 A  
HETATM   53  C   UNL     1     -11.965   7.915  72.405  1.00  0.00    -0.373 A  
ENDBRANCH  31  44
ENDBRANCH  28  29
ENDBRANCH  17  28
ENDBRANCH  15  16
ENDBRANCH  14  15
ENDBRANCH   4  14
TORSDOF 6
ENDMDL
