MODEL       32
REMARK 921   NORMALIZED FREE ENERGY PREDICTED BY IDOCK:   -4.88 KCAL/MOL
REMARK 922        TOTAL FREE ENERGY PREDICTED BY IDOCK:  -14.77 KCAL/MOL
REMARK 923 INTER-LIGAND FREE ENERGY PREDICTED BY IDOCK:  -11.38 KCAL/MOL
REMARK 924 INTRA-LIGAND FREE ENERGY PREDICTED BY IDOCK:   -3.40 KCAL/MOL
REMARK 927      BINDING AFFINITY PREDICTED BY RF-SCORE:    0.00 PKD
ROOT
HETATM    1  C   UNL     1      -6.736  18.595  66.115  1.00  0.00    -0.268 C  
HETATM    2  C   UNL     1      -7.067  19.929  66.765  1.00  0.00    -0.247 C  
ENDROOT
BRANCH   2   3
HETATM    3  C   UNL     1      -7.868  19.723  68.048  1.00  0.00    -0.342 C  
BRANCH   3   4
HETATM    4  C   UNL     1      -9.371  19.748  67.786  1.00  0.00    -0.443 C  
BRANCH   4   5
HETATM    5  C   UNL     1     -10.043  18.498  68.357  1.00  0.00    -0.423 C  
BRANCH   5   6
HETATM    6  C   UNL     1     -10.264  17.463  67.262  1.00  0.00    -0.324 C  
BRANCH   6   7
HETATM    7  C   UNL     1      -9.198  16.366  67.271  1.00  0.00    -0.224 C  
BRANCH   7   8
HETATM    8  C   UNL     1      -8.854  16.037  68.719  1.00  0.00    -0.227 C  
BRANCH   8   9
HETATM    9  C   UNL     1      -7.774  14.972  68.874  1.00  0.00    -0.152 C  
BRANCH   9  10
HETATM   10  C   UNL     1      -8.010  13.892  67.814  1.00  0.00    -0.174 C  
BRANCH  10  11
HETATM   11  C   UNL     1      -7.806  12.472  68.319  1.00  0.00    -0.144 C  
BRANCH  11  12
HETATM   12  C   UNL     1      -9.021  11.531  68.227  1.00  0.00    -0.177 C  
BRANCH  12  13
HETATM   13  C   UNL     1      -9.906  11.717  66.974  1.00  0.00    -0.211 C  
BRANCH  13  14
HETATM   14  C   UNL     1     -11.324  12.219  67.270  1.00  0.00    -0.328 C  
HETATM   15  O   UNL     1     -12.190  12.161  66.101  1.00  0.00    -0.611 OA 
HETATM   16  O   UNL     1     -13.074  14.146  65.331  1.00  0.00    -0.743 OA 
HETATM   17  C   UNL     1     -11.509  13.761  67.321  1.00  0.00    -0.367 C  
HETATM   18  C   UNL     1     -12.398  13.497  66.093  1.00  0.00    -0.407 C  
BRANCH  17  19
HETATM   19  C   UNL     1     -12.252  14.406  68.487  1.00  0.00    -0.178 C  
BRANCH  19  20
HETATM   20  C   UNL     1     -11.751  13.849  69.816  1.00  0.00    -0.372 C  
BRANCH  20  21
HETATM   21  C   UNL     1     -12.763  14.087  70.940  1.00  0.00    -0.420 C  
BRANCH  21  22
HETATM   22  C   UNL     1     -12.978  15.582  71.182  1.00  0.00    -0.560 C  
BRANCH  22  23
HETATM   23  C   UNL     1     -11.978  16.144  72.192  1.00  0.00    -0.623 C  
HETATM   24  C   UNL     1     -12.238  15.591  73.587  1.00  0.00    -0.676 C  
ENDBRANCH  22  23
ENDBRANCH  21  22
ENDBRANCH  20  21
ENDBRANCH  19  20
ENDBRANCH  17  19
ENDBRANCH  13  14
ENDBRANCH  12  13
BRANCH  12  25
HETATM   25  O   UNL     1      -8.602  10.147  68.255  1.00  0.00    -0.113 OA 
BRANCH  25  26
HETATM   26  C   UNL     1      -9.566   9.204  68.443  1.00  0.00    -0.151 C  
HETATM   27  O   UNL     1      -9.915   8.358  67.627  1.00  0.00    -0.167 OA 
BRANCH  26  28
HETATM   28  C   UNL     1     -10.167   9.311  69.841  1.00  0.00    -0.214 C  
BRANCH  28  29
HETATM   29  C   UNL     1      -9.718   8.155  70.749  1.00  0.00    -0.189 C  
HETATM   30  C   UNL     1     -11.123   6.215  69.788  1.00  0.00    -0.486 C  
HETATM   31  C   UNL     1     -10.197   6.095  72.092  1.00  0.00    -0.213 C  
HETATM   32  C   UNL     1     -10.752   7.040  71.022  1.00  0.00    -0.256 C  
ENDBRANCH  28  29
BRANCH  28  33
HETATM   33  N   UNL     1     -11.620   9.417  69.721  1.00  0.00    -0.442 N  
HETATM   34  C   UNL     1     -12.371  10.227  70.525  1.00  0.00    -0.284 C  
HETATM   35  O   UNL     1     -11.940  10.906  71.444  1.00  0.00    -0.220 OA 
HETATM   36  H   UNL     1     -12.094   8.863  69.007  1.00  0.00     0.000 HD 
ENDBRANCH  28  33
ENDBRANCH  26  28
ENDBRANCH  25  26
ENDBRANCH  12  25
ENDBRANCH  11  12
ENDBRANCH  10  11
ENDBRANCH   9  10
ENDBRANCH   8   9
ENDBRANCH   7   8
ENDBRANCH   6   7
ENDBRANCH   5   6
ENDBRANCH   4   5
ENDBRANCH   3   4
ENDBRANCH   2   3
TORSDOF 22
ENDMDL
