MODEL      211
REMARK 921   NORMALIZED FREE ENERGY PREDICTED BY IDOCK:   -3.82 KCAL/MOL
REMARK 922        TOTAL FREE ENERGY PREDICTED BY IDOCK:   -9.91 KCAL/MOL
REMARK 923 INTER-LIGAND FREE ENERGY PREDICTED BY IDOCK:   -7.09 KCAL/MOL
REMARK 924 INTRA-LIGAND FREE ENERGY PREDICTED BY IDOCK:   -2.82 KCAL/MOL
REMARK 927      BINDING AFFINITY PREDICTED BY RF-SCORE:    0.00 PKD
ROOT
HETATM    1  C   UNL     1      -9.605   4.879  65.978  1.00  0.00    -0.185 C  
HETATM    2  C   UNL     1      -9.466   5.803  67.175  1.00  0.00    -0.121 C  
ENDROOT
BRANCH   2   3
HETATM    3  C   UNL     1      -8.754   5.121  68.345  1.00  0.00    -0.104 C  
BRANCH   3   4
HETATM    4  C   UNL     1      -7.401   5.785  68.599  1.00  0.00    -0.084 C  
BRANCH   4   5
HETATM    5  C   UNL     1      -7.201   7.063  67.783  1.00  0.00    -0.091 C  
BRANCH   5   6
HETATM    6  C   UNL     1      -6.341   8.055  68.575  1.00  0.00    -0.053 C  
BRANCH   6   7
HETATM    7  C   UNL     1      -6.435   7.833  70.078  1.00  0.00    -0.034 C  
BRANCH   7   8
HETATM    8  C   UNL     1      -7.270   8.907  70.778  1.00  0.00    -0.083 C  
HETATM    9  O   UNL     1      -7.205  10.098  70.485  1.00  0.00    -0.284 OA 
BRANCH   8  10
HETATM   10  C   UNL     1      -8.209   8.379  71.844  1.00  0.00    -0.210 C  
BRANCH  10  11
HETATM   11  C   UNL     1      -9.077   7.163  71.487  1.00  0.00    -0.143 C  
BRANCH  11  12
HETATM   12  C   UNL     1     -10.519   7.605  71.118  1.00  0.00    -0.220 C  
HETATM   13  C   UNL     1     -11.376   7.839  72.372  1.00  0.00    -0.346 C  
HETATM   14  O   UNL     1     -11.872   6.633  72.930  1.00  0.00    -0.482 OA 
HETATM   15  C   UNL     1     -12.527   8.674  71.876  1.00  0.00    -0.412 C  
HETATM   16  H   UNL     1     -12.402   6.777  73.705  1.00  0.00     0.000 HD 
HETATM   17  C   UNL     1     -11.883   9.660  70.923  1.00  0.00    -0.323 C  
HETATM   18  O   UNL     1     -12.859  10.057  69.980  1.00  0.00    -0.536 OA 
HETATM   19  C   UNL     1     -10.632   8.948  70.327  1.00  0.00    -0.246 C  
HETATM   20  H   UNL     1     -12.456  10.675  69.382  1.00  0.00     0.000 HD 
BRANCH  19  21
HETATM   21  C   UNL     1     -10.661   8.734  68.801  1.00  0.00    -0.174 C  
BRANCH  21  22
HETATM   22  C   UNL     1      -9.653   9.556  68.038  1.00  0.00    -0.155 C  
HETATM   23  C   UNL     1      -9.808  10.765  67.480  1.00  0.00    -0.197 C  
BRANCH  23  24
HETATM   24  C   UNL     1     -11.064  11.582  67.438  1.00  0.00    -0.339 C  
BRANCH  24  25
HETATM   25  C   UNL     1     -10.947  12.790  66.506  1.00  0.00    -0.291 C  
BRANCH  25  26
HETATM   26  C   UNL     1     -12.168  12.978  65.602  1.00  0.00    -0.521 C  
HETATM   27  C   UNL     1     -11.820  12.741  64.148  1.00  0.00    -0.413 C  
HETATM   28  O   UNL     1     -10.721  12.442  63.721  1.00  0.00    -0.388 OA 
HETATM   29  O   UNL     1     -12.895  12.893  63.337  1.00  0.00    -0.650 OA 
ENDBRANCH  25  26
ENDBRANCH  24  25
ENDBRANCH  23  24
ENDBRANCH  21  22
ENDBRANCH  19  21
ENDBRANCH  11  12
ENDBRANCH  10  11
ENDBRANCH   8  10
ENDBRANCH   7   8
ENDBRANCH   6   7
ENDBRANCH   5   6
ENDBRANCH   4   5
ENDBRANCH   3   4
ENDBRANCH   2   3
TORSDOF 14
ENDMDL
