MODEL      182
REMARK 921   NORMALIZED FREE ENERGY PREDICTED BY IDOCK:    0.99 KCAL/MOL
REMARK 922        TOTAL FREE ENERGY PREDICTED BY IDOCK:    0.59 KCAL/MOL
REMARK 923 INTER-LIGAND FREE ENERGY PREDICTED BY IDOCK:   -1.11 KCAL/MOL
REMARK 924 INTRA-LIGAND FREE ENERGY PREDICTED BY IDOCK:    1.70 KCAL/MOL
REMARK 927      BINDING AFFINITY PREDICTED BY RF-SCORE:    0.00 PKD
ROOT
HETATM    1  C   UNL     1      -7.801   8.064  64.396  1.00  0.00    -0.139 C  
HETATM    2  N   UNL     1      -7.436   9.179  65.270  1.00  0.00    -0.096 NA 
HETATM    3  C   UNL     1      -8.357  10.314  65.104  1.00  0.00    -0.161 C  
HETATM    4  C   UNL     1      -9.763  10.072  65.693  1.00  0.00    -0.272 C  
HETATM    5  N   UNL     1      -9.824   9.644  67.109  1.00  0.00    -0.176 NA 
HETATM    6  C   UNL     1      -8.832   8.561  67.322  1.00  0.00    -0.130 C  
HETATM    7  C   UNL     1      -7.430   8.781  66.691  1.00  0.00    -0.085 C  
ENDROOT
BRANCH   5   8
HETATM    8  C   UNL     1      -9.597  10.755  68.073  1.00  0.00    -0.163 C  
BRANCH   8   9
HETATM    9  C   UNL     1      -9.740  12.135  67.391  1.00  0.00    -0.179 C  
HETATM   10  O   UNL     1     -10.266  12.172  66.267  1.00  0.00    -0.216 OA 
HETATM   11  N   UNL     1      -9.420  13.311  68.113  1.00  0.00    -0.218 N  
HETATM   12  C   UNL     1     -10.255  14.487  67.819  1.00  0.00    -0.226 A  
HETATM   13  C   UNL     1     -11.622  14.289  67.545  1.00  0.00    -0.390 A  
HETATM   14  C   UNL     1     -12.462  15.310  67.080  1.00  0.00     1.046 A  
HETATM   15  C   UNL     1     -11.951  16.576  66.849  1.00  0.00     1.649 A  
HETATM   16  C   UNL     1     -10.636  16.845  67.197  1.00  0.00    -0.249 A  
HETATM   17  C   UNL     1      -9.836  15.827  67.745  1.00  0.00    -0.224 A  
HETATM   18  C   UNL     1      -8.625  16.282  68.433  1.00  0.00    -0.200 C  
HETATM   19  N   UNL     1      -8.470  15.662  69.661  1.00  0.00    -0.172 N  
HETATM   20  O   UNL     1      -7.870  17.116  67.957  1.00  0.00    -0.185 OA 
HETATM   21  C   UNL     1      -7.672  14.517  69.484  1.00  0.00     0.065 A  
HETATM   22  H   UNL     1      -8.869  15.981  70.544  1.00  0.00     0.000 HD 
HETATM   23  C   UNL     1      -8.103  13.417  68.713  1.00  0.00     0.043 A  
HETATM   24  N   UNL     1      -7.219  12.409  68.485  1.00  0.00    -0.098 NA 
HETATM   25  C   UNL     1      -5.954  12.511  68.980  1.00  0.00    -0.076 A  
HETATM   26  C   UNL     1      -5.490  13.573  69.732  1.00  0.00    -0.096 A  
HETATM   27  C   UNL     1      -6.376  14.598  69.992  1.00  0.00    -0.165 A  
ENDBRANCH   8   9
ENDBRANCH   5   8
TORSDOF 2
ENDMDL
