MODEL      131
REMARK 921   NORMALIZED FREE ENERGY PREDICTED BY IDOCK:   -4.42 KCAL/MOL
REMARK 922        TOTAL FREE ENERGY PREDICTED BY IDOCK:  -13.71 KCAL/MOL
REMARK 923 INTER-LIGAND FREE ENERGY PREDICTED BY IDOCK:  -11.30 KCAL/MOL
REMARK 924 INTRA-LIGAND FREE ENERGY PREDICTED BY IDOCK:   -2.41 KCAL/MOL
REMARK 927      BINDING AFFINITY PREDICTED BY RF-SCORE:    0.00 PKD
ROOT
HETATM    1  C   UNL     1      -7.935   7.411  72.525  1.00  0.00    -0.114 C  
HETATM    2  C   UNL     1      -8.554   6.988  71.203  1.00  0.00    -0.133 C  
ENDROOT
BRANCH   2   3
HETATM    3  C   UNL     1      -8.771   5.478  71.163  1.00  0.00    -0.134 C  
BRANCH   3   4
HETATM    4  C   UNL     1      -9.942   5.098  70.262  1.00  0.00    -0.320 C  
BRANCH   4   5
HETATM    5  C   UNL     1     -10.881   6.289  70.061  1.00  0.00    -0.387 C  
BRANCH   5   6
HETATM    6  C   UNL     1     -11.224   6.456  68.586  1.00  0.00    -0.338 C  
BRANCH   6   7
HETATM    7  C   UNL     1     -10.095   5.985  67.668  1.00  0.00    -0.190 C  
BRANCH   7   8
HETATM    8  C   UNL     1      -9.222   7.185  67.319  1.00  0.00    -0.145 C  
BRANCH   8   9
HETATM    9  C   UNL     1     -10.009   8.443  66.964  1.00  0.00    -0.323 C  
BRANCH   9  10
HETATM   10  C   UNL     1      -9.100   9.656  67.188  1.00  0.00    -0.152 C  
BRANCH  10  11
HETATM   11  C   UNL     1      -9.592  10.606  68.269  1.00  0.00    -0.167 C  
BRANCH  11  12
HETATM   12  C   UNL     1      -9.879  12.053  67.829  1.00  0.00    -0.190 C  
BRANCH  12  13
HETATM   13  C   UNL     1     -10.167  12.240  66.323  1.00  0.00    -0.251 C  
BRANCH  13  14
HETATM   14  C   UNL     1     -11.157  13.366  66.002  1.00  0.00    -0.283 C  
HETATM   15  O   UNL     1     -12.313  12.895  65.253  1.00  0.00    -0.449 OA 
HETATM   16  O   UNL     1     -12.660  13.788  63.157  1.00  0.00    -0.793 OA 
HETATM   17  C   UNL     1     -10.777  14.296  64.816  1.00  0.00    -0.435 C  
HETATM   18  C   UNL     1     -12.043  13.684  64.190  1.00  0.00    -0.435 C  
BRANCH  17  19
HETATM   19  C   UNL     1     -10.845  15.811  64.978  1.00  0.00    -0.461 C  
BRANCH  19  20
HETATM   20  C   UNL     1      -9.818  16.288  66.000  1.00  0.00    -0.371 C  
BRANCH  20  21
HETATM   21  C   UNL     1     -10.490  16.730  67.303  1.00  0.00    -0.310 C  
BRANCH  21  22
HETATM   22  C   UNL     1      -9.778  17.942  67.908  1.00  0.00    -0.288 C  
BRANCH  22  23
HETATM   23  C   UNL     1     -10.455  19.254  67.513  1.00  0.00    -0.564 C  
HETATM   24  C   UNL     1      -9.613  20.026  66.506  1.00  0.00    -0.539 C  
ENDBRANCH  22  23
ENDBRANCH  21  22
ENDBRANCH  20  21
ENDBRANCH  19  20
ENDBRANCH  17  19
ENDBRANCH  13  14
ENDBRANCH  12  13
BRANCH  12  25
HETATM   25  O   UNL     1     -11.009  12.594  68.552  1.00  0.00    -0.238 OA 
BRANCH  25  26
HETATM   26  C   UNL     1     -11.974  11.721  68.952  1.00  0.00    -0.271 C  
HETATM   27  O   UNL     1     -12.487  10.847  68.261  1.00  0.00    -0.165 OA 
BRANCH  26  28
HETATM   28  C   UNL     1     -12.341  11.949  70.416  1.00  0.00    -0.251 C  
BRANCH  28  29
HETATM   29  C   UNL     1     -11.991  13.371  70.880  1.00  0.00    -0.129 C  
HETATM   30  C   UNL     1     -14.123  13.984  72.199  1.00  0.00    -0.641 C  
HETATM   31  C   UNL     1     -12.613  15.757  71.331  1.00  0.00    -0.516 C  
HETATM   32  C   UNL     1     -13.170  14.355  71.063  1.00  0.00    -0.395 C  
ENDBRANCH  28  29
BRANCH  28  33
HETATM   33  N   UNL     1     -11.712  10.907  71.226  1.00  0.00    -0.137 N  
HETATM   34  C   UNL     1     -12.366   9.771  71.607  1.00  0.00    -0.408 C  
HETATM   35  O   UNL     1     -13.535   9.513  71.366  1.00  0.00    -0.374 OA 
HETATM   36  H   UNL     1     -10.742  11.035  71.519  1.00  0.00     0.000 HD 
ENDBRANCH  28  33
ENDBRANCH  26  28
ENDBRANCH  25  26
ENDBRANCH  12  25
ENDBRANCH  11  12
ENDBRANCH  10  11
ENDBRANCH   9  10
ENDBRANCH   8   9
ENDBRANCH   7   8
ENDBRANCH   6   7
ENDBRANCH   5   6
ENDBRANCH   4   5
ENDBRANCH   3   4
ENDBRANCH   2   3
TORSDOF 22
ENDMDL
