MODEL      288
REMARK 921   NORMALIZED FREE ENERGY PREDICTED BY IDOCK:    3.57 KCAL/MOL
REMARK 922        TOTAL FREE ENERGY PREDICTED BY IDOCK:    3.64 KCAL/MOL
REMARK 923 INTER-LIGAND FREE ENERGY PREDICTED BY IDOCK:    2.13 KCAL/MOL
REMARK 924 INTRA-LIGAND FREE ENERGY PREDICTED BY IDOCK:    1.51 KCAL/MOL
REMARK 927      BINDING AFFINITY PREDICTED BY RF-SCORE:    0.00 PKD
ROOT
HETATM    1  N   UNL     1      -5.326  21.184  66.365  1.00  0.00    -0.204 NA 
HETATM    2  H1  UNL     1      -4.963  21.582  65.499  1.00  0.00     0.000 HD 
HETATM    3  H2  UNL     1      -4.621  20.599  66.812  1.00  0.00     0.000 HD 
HETATM    4  CA  UNL     1      -6.606  20.430  66.203  1.00  0.00    -0.229 C  
HETATM    5  C   UNL     1      -6.355  19.292  65.192  1.00  0.00    -0.278 C  
HETATM    6  OXT UNL     1      -7.032  18.285  65.073  1.00  0.00    -0.352 OA 
HETATM    7  O   UNL     1      -5.270  19.555  64.416  1.00  0.00    -0.155 OA 
ENDROOT
BRANCH   4   8
HETATM    8  C   UNL     1      -7.155  19.829  67.512  1.00  0.00    -0.268 C  
BRANCH   8   9
HETATM    9  C   UNL     1      -8.294  18.834  67.388  1.00  0.00    -0.280 A  
HETATM   10  C   UNL     1      -9.619  19.236  67.210  1.00  0.00    -0.394 A  
HETATM   11  C   UNL     1     -10.638  18.281  67.096  1.00  0.00    -0.367 A  
HETATM   12  I   UNL     1     -12.609  19.012  66.884  1.00  0.00     8.526 I  
HETATM   13  C   UNL     1     -10.374  16.893  67.155  1.00  0.00    -0.304 A  
HETATM   14  C   UNL     1      -9.039  16.493  67.309  1.00  0.00    -0.204 A  
HETATM   15  C   UNL     1      -8.017  17.459  67.399  1.00  0.00    -0.212 A  
HETATM   16  I   UNL     1      -8.390  14.506  67.554  1.00  0.00    -0.237 I  
BRANCH  13  17
HETATM   17  O   UNL     1     -11.466  16.080  67.348  1.00  0.00    -0.083 OA 
BRANCH  17  18
HETATM   18  C   UNL     1     -11.662  15.271  68.439  1.00  0.00    -0.321 A  
HETATM   19  C   UNL     1     -11.617  13.905  68.121  1.00  0.00    -0.370 A  
HETATM   20  C   UNL     1     -11.811  12.931  69.102  1.00  0.00    -0.303 A  
HETATM   21  I   UNL     1     -11.731  10.924  68.531  1.00  0.00     0.060 I  
HETATM   22  C   UNL     1     -12.067  13.317  70.418  1.00  0.00    -0.327 A  
HETATM   23  C   UNL     1     -12.108  14.680  70.740  1.00  0.00    -0.320 A  
HETATM   24  O   UNL     1     -12.271  12.372  71.394  1.00  0.00    -0.195 OA 
HETATM   25  H   UNL     1     -12.446  12.635  72.290  1.00  0.00     0.000 HD 
HETATM   26  I   UNL     1     -12.580  15.321  72.681  1.00  0.00    -0.671 I  
HETATM   27  C   UNL     1     -11.869  15.659  69.760  1.00  0.00    -0.376 A  
ENDBRANCH  17  18
ENDBRANCH  13  17
ENDBRANCH   8   9
ENDBRANCH   4   8
TORSDOF 4
ENDMDL
