MODEL       26
REMARK 921   NORMALIZED FREE ENERGY PREDICTED BY IDOCK:   -6.80 KCAL/MOL
REMARK 922        TOTAL FREE ENERGY PREDICTED BY IDOCK:  -10.18 KCAL/MOL
REMARK 923 INTER-LIGAND FREE ENERGY PREDICTED BY IDOCK:   -9.06 KCAL/MOL
REMARK 924 INTRA-LIGAND FREE ENERGY PREDICTED BY IDOCK:   -1.12 KCAL/MOL
REMARK 927      BINDING AFFINITY PREDICTED BY RF-SCORE:    0.00 PKD
ROOT
HETATM    1  O   UNL     1     -14.254   7.898  71.636  1.00  0.00    -0.413 OA 
HETATM    2  C   UNL     1     -13.023   7.967  72.186  1.00  0.00    -0.222 C  
HETATM    3  O   UNL     1     -12.671   8.898  72.897  1.00  0.00    -0.301 OA 
HETATM    4  C   UNL     1     -12.132   6.804  71.848  1.00  0.00    -0.375 C  
ENDROOT
BRANCH   4   5
HETATM    5  C   UNL     1     -11.380   7.045  70.551  1.00  0.00    -0.312 C  
BRANCH   5   6
HETATM    6  N   UNL     1     -11.684   8.331  69.956  1.00  0.00    -0.400 N  
HETATM    7  C   UNL     1     -10.761   9.359  69.943  1.00  0.00    -0.234 C  
HETATM    8  H   UNL     1     -12.601   8.481  69.536  1.00  0.00     0.000 HD 
HETATM    9  O   UNL     1      -9.631   9.252  70.408  1.00  0.00    -0.207 OA 
BRANCH   7  10
HETATM   10  C   UNL     1     -11.226  10.660  69.379  1.00  0.00    -0.329 A  
HETATM   11  C   UNL     1     -11.065  10.891  68.008  1.00  0.00    -0.351 A  
HETATM   12  C   UNL     1     -11.421  12.127  67.452  1.00  0.00    -0.415 A  
HETATM   13  C   UNL     1     -11.958  13.153  68.242  1.00  0.00    -0.291 A  
HETATM   14  C   UNL     1     -11.804  11.657  70.174  1.00  0.00    -0.428 A  
HETATM   15  C   UNL     1     -12.153  12.894  69.609  1.00  0.00    -0.290 A  
BRANCH  13  16
HETATM   16  N   UNL     1     -12.198  14.404  67.632  1.00  0.00    -0.623 NA 
HETATM   17  H   UNL     1     -12.682  14.513  66.740  1.00  0.00     0.000 HD 
BRANCH  16  18
HETATM   18  N   UNL     1     -11.758  15.363  68.300  1.00  0.00    -0.437 NA 
HETATM   19  H   UNL     1     -12.085  15.596  69.238  1.00  0.00     0.000 HD 
BRANCH  18  20
HETATM   20  C   UNL     1     -10.759  16.093  67.618  1.00  0.00    -0.318 A  
HETATM   21  C   UNL     1      -9.885  15.524  66.679  1.00  0.00    -0.268 A  
HETATM   22  C   UNL     1      -8.858  16.274  66.096  1.00  0.00    -0.362 A  
HETATM   23  C   UNL     1      -8.686  17.609  66.458  1.00  0.00    -0.263 A  
HETATM   24  O   UNL     1      -7.661  18.329  65.900  1.00  0.00    -0.475 OA 
HETATM   25  C   UNL     1      -9.544  18.210  67.389  1.00  0.00    -0.275 A  
HETATM   26  C   UNL     1      -9.427  19.627  67.838  1.00  0.00    -0.349 C  
HETATM   27  C   UNL     1     -10.574  17.438  67.960  1.00  0.00    -0.389 A  
HETATM   28  H   UNL     1      -7.544  19.239  66.147  1.00  0.00     0.000 HD 
HETATM   29  O   UNL     1     -10.197  20.123  68.648  1.00  0.00    -0.403 OA 
HETATM   30  O   UNL     1      -8.408  20.328  67.297  1.00  0.00    -0.329 OA 
ENDBRANCH  18  20
ENDBRANCH  16  18
ENDBRANCH  13  16
ENDBRANCH   7  10
ENDBRANCH   5   6
ENDBRANCH   4   5
TORSDOF 6
ENDMDL
