MODEL      177
REMARK 921   NORMALIZED FREE ENERGY PREDICTED BY IDOCK:   -1.34 KCAL/MOL
REMARK 922        TOTAL FREE ENERGY PREDICTED BY IDOCK:   -3.37 KCAL/MOL
REMARK 923 INTER-LIGAND FREE ENERGY PREDICTED BY IDOCK:   -2.27 KCAL/MOL
REMARK 924 INTRA-LIGAND FREE ENERGY PREDICTED BY IDOCK:   -1.10 KCAL/MOL
REMARK 927      BINDING AFFINITY PREDICTED BY RF-SCORE:    0.00 PKD
ROOT
HETATM    1  C   UNL     1     -11.559  18.406  65.719  1.00  0.00     2.317 C  
HETATM    2  C   UNL     1     -11.049  18.319  67.155  1.00  0.00     0.169 C  
HETATM    3  C   UNL     1      -8.901  18.486  67.724  1.00  0.00    -0.275 A  
HETATM    4  C   UNL     1     -10.843  19.722  67.787  1.00  0.00    -0.168 C  
HETATM    5  N   UNL     1      -9.444  19.655  68.116  1.00  0.00    -0.347 NA 
HETATM    6  O   UNL     1      -5.913  21.061  69.636  1.00  0.00    -0.324 OA 
HETATM    7  C   UNL     1      -8.509  20.421  68.700  1.00  0.00     0.468 A  
HETATM    8  O   UNL     1      -9.738  17.655  67.130  1.00  0.00    -0.274 OA 
HETATM    9  O   UNL     1      -5.147  19.113  68.944  1.00  0.00    -0.188 OA 
HETATM   10  C   UNL     1      -7.372  19.618  68.628  1.00  0.00    -0.340 A  
HETATM   11  N   UNL     1      -7.635  18.393  68.010  1.00  0.00    -0.252 NA 
HETATM   12  N   UNL     1      -6.046  19.948  69.102  1.00  0.00    -0.278 N  
ENDROOT
BRANCH   2  13
HETATM   13  C   UNL     1     -11.971  17.460  68.017  1.00  0.00     1.800 C  
BRANCH  13  14
HETATM   14  O   UNL     1     -11.228  16.757  69.015  1.00  0.00    -0.228 OA 
BRANCH  14  15
HETATM   15  C   UNL     1     -10.860  15.495  68.638  1.00  0.00    -0.267 A  
HETATM   16  C   UNL     1     -10.057  12.806  68.106  1.00  0.00    -0.239 A  
HETATM   17  C   UNL     1     -11.581  14.693  67.764  1.00  0.00    -0.382 A  
HETATM   18  C   UNL     1      -9.682  14.996  69.175  1.00  0.00    -0.212 A  
HETATM   19  C   UNL     1     -11.184  13.381  67.511  1.00  0.00    -0.309 A  
HETATM   20  C   UNL     1      -9.290  13.675  68.903  1.00  0.00     0.145 A  
BRANCH  16  21
HETATM   21  N   UNL     1      -9.710  11.486  67.863  1.00  0.00    -0.178 NA 
HETATM   22  C   UNL     1     -10.316  10.691  66.778  1.00  0.00    -0.245 C  
HETATM   23  C   UNL     1      -9.221   9.878  66.089  1.00  0.00    -0.211 C  
HETATM   24  C   UNL     1      -8.460   9.009  67.095  1.00  0.00    -0.113 C  
HETATM   25  C   UNL     1      -9.105  10.642  68.898  1.00  0.00    -0.176 C  
HETATM   26  C   UNL     1      -7.958   9.881  68.252  1.00  0.00    -0.100 C  
BRANCH  24  27
HETATM   27  O   UNL     1      -9.367   7.993  67.554  1.00  0.00    -0.143 OA 
BRANCH  27  28
HETATM   28  C   UNL     1      -9.360   6.806  66.877  1.00  0.00    -0.150 A  
HETATM   29  C   UNL     1      -8.240   6.236  66.281  1.00  0.00    -0.117 A  
HETATM   30  C   UNL     1      -8.342   5.011  65.625  1.00  0.00    -0.120 A  
HETATM   31  C   UNL     1      -9.557   4.339  65.544  1.00  0.00    -0.188 A  
HETATM   32  C   UNL     1     -10.686   4.914  66.126  1.00  0.00    -0.243 A  
HETATM   33  C   UNL     1     -10.580   6.133  66.812  1.00  0.00    -0.351 A  
BRANCH  31  34
HETATM   34  O   UNL     1      -9.512   3.207  64.801  1.00  0.00    -0.148 OA 
HETATM   35  C   UNL     1     -10.037   3.203  63.485  1.00  0.00    -0.169 C  
HETATM   36  F   UNL     1      -9.068   2.804  62.631  1.00  0.00    -0.087 F  
HETATM   37  F   UNL     1     -10.519   4.389  63.066  1.00  0.00    -0.128 F  
HETATM   38  F   UNL     1     -11.043   2.298  63.428  1.00  0.00    -0.220 F  
ENDBRANCH  31  34
ENDBRANCH  27  28
ENDBRANCH  24  27
ENDBRANCH  16  21
ENDBRANCH  14  15
ENDBRANCH  13  14
ENDBRANCH   2  13
TORSDOF 7
ENDMDL
