MODEL       12
REMARK 921   NORMALIZED FREE ENERGY PREDICTED BY IDOCK:   -6.72 KCAL/MOL
REMARK 922        TOTAL FREE ENERGY PREDICTED BY IDOCK:  -12.08 KCAL/MOL
REMARK 923 INTER-LIGAND FREE ENERGY PREDICTED BY IDOCK:  -11.02 KCAL/MOL
REMARK 924 INTRA-LIGAND FREE ENERGY PREDICTED BY IDOCK:   -1.06 KCAL/MOL
REMARK 927      BINDING AFFINITY PREDICTED BY RF-SCORE:    0.00 PKD
ROOT
HETATM    1  C   UNL     1     -10.434  15.439  68.519  1.00  0.00    -0.234 C  
ENDROOT
BRANCH   1   2
HETATM    2  C   UNL     1     -11.653  15.244  69.465  1.00  0.00    -0.339 C  
BRANCH   2   3
HETATM    3  C   UNL     1     -12.052  13.847  69.884  1.00  0.00    -0.406 A  
HETATM    4  C   UNL     1     -12.445  11.146  70.728  1.00  0.00    -0.479 A  
HETATM    5  C   UNL     1     -12.697  13.551  71.084  1.00  0.00    -0.425 A  
HETATM    6  C   UNL     1     -12.852  12.235  71.511  1.00  0.00    -0.384 A  
HETATM    7  C   UNL     1     -11.729  12.776  69.042  1.00  0.00    -0.371 A  
HETATM    8  C   UNL     1     -11.939  11.451  69.449  1.00  0.00    -0.407 A  
BRANCH   4   9
HETATM    9  C   UNL     1     -12.491   9.769  71.259  1.00  0.00    -0.461 A  
HETATM   10  C   UNL     1     -11.339   9.131  71.761  1.00  0.00    -0.451 A  
HETATM   11  C   UNL     1     -11.355   7.792  72.158  1.00  0.00    -0.353 A  
HETATM   12  C   UNL     1     -12.536   7.062  72.093  1.00  0.00    -0.193 A  
HETATM   13  C   UNL     1     -13.698   7.668  71.625  1.00  0.00    -0.454 A  
HETATM   14  C   UNL     1     -13.672   9.005  71.209  1.00  0.00    -0.246 A  
ENDBRANCH   4   9
ENDBRANCH   2   3
ENDBRANCH   1   2
BRANCH   1  15
HETATM   15  C   UNL     1      -9.490  16.613  68.878  1.00  0.00    -0.251 C  
HETATM   16  C   UNL     1      -8.267  18.678  68.253  1.00  0.00    -0.323 C  
HETATM   17  C   UNL     1     -10.643  18.469  67.581  1.00  0.00    -0.450 C  
HETATM   18  C   UNL     1      -9.347  17.704  67.817  1.00  0.00    -0.255 C  
HETATM   19  O   UNL     1      -8.458  19.664  68.952  1.00  0.00    -0.321 OA 
BRANCH  16  20
HETATM   20  O   UNL     1      -7.071  18.316  67.711  1.00  0.00    -0.208 OA 
BRANCH  20  21
HETATM   21  C   UNL     1      -6.368  19.367  67.032  1.00  0.00    -0.189 C  
HETATM   22  C   UNL     1      -6.644  19.219  65.546  1.00  0.00    -0.303 C  
ENDBRANCH  20  21
ENDBRANCH  16  20
ENDBRANCH   1  15
BRANCH   1  23
HETATM   23  N   UNL     1     -10.834  15.561  67.114  1.00  0.00    -0.320 N  
HETATM   24  C   UNL     1     -10.521  14.618  66.171  1.00  0.00    -0.302 C  
HETATM   25  H   UNL     1     -11.367  16.382  66.826  1.00  0.00     0.000 HD 
HETATM   26  O   UNL     1      -9.845  13.611  66.374  1.00  0.00    -0.282 OA 
BRANCH  24  27
HETATM   27  C   UNL     1     -10.940  14.958  64.765  1.00  0.00    -0.390 C  
BRANCH  27  28
HETATM   28  C   UNL     1     -12.206  14.194  64.430  1.00  0.00    -0.466 C  
HETATM   29  O   UNL     1     -13.062  12.138  63.575  1.00  0.00    -0.785 OA 
HETATM   30  C   UNL     1     -12.074  12.840  63.762  1.00  0.00    -0.517 C  
HETATM   31  O   UNL     1     -10.857  12.429  63.377  1.00  0.00    -0.451 OA 
ENDBRANCH  27  28
ENDBRANCH  24  27
ENDBRANCH   1  23
TORSDOF 9
ENDMDL
