MODEL       17
REMARK 921   NORMALIZED FREE ENERGY PREDICTED BY IDOCK:   -5.07 KCAL/MOL
REMARK 922        TOTAL FREE ENERGY PREDICTED BY IDOCK:   -8.68 KCAL/MOL
REMARK 923 INTER-LIGAND FREE ENERGY PREDICTED BY IDOCK:   -7.27 KCAL/MOL
REMARK 924 INTRA-LIGAND FREE ENERGY PREDICTED BY IDOCK:   -1.41 KCAL/MOL
REMARK 927      BINDING AFFINITY PREDICTED BY RF-SCORE:    0.00 PKD
ROOT
HETATM    1  O   UNL     1     -11.920  10.423  68.476  1.00  0.00    -0.747 OA 
HETATM    2  H   UNL     1     -11.534   9.936  69.194  1.00  0.00     0.000 HD 
HETATM    3  C   UNL     1     -10.922  10.518  67.486  1.00  0.00    -0.303 C  
ENDROOT
BRANCH   3   4
HETATM    4  N   UNL     1     -11.500  11.246  66.411  1.00  0.00    -0.023 N  
HETATM    5  H   UNL     1     -12.415  10.977  66.049  1.00  0.00     0.000 HD 
BRANCH   4   6
HETATM    6  C   UNL     1     -10.836  12.302  65.862  1.00  0.00    -0.271 C  
HETATM    7  O   UNL     1      -9.868  12.141  65.123  1.00  0.00    -0.247 OA 
BRANCH   6   8
HETATM    8  N   UNL     1     -11.353  13.554  66.132  1.00  0.00    -0.303 N  
BRANCH   8   9
HETATM    9  C   UNL     1     -10.788  14.281  67.250  1.00  0.00    -0.284 C  
HETATM   10  O   UNL     1     -12.239  13.290  69.003  1.00  0.00    -0.277 OA 
HETATM   11  N   UNL     1     -10.724  15.716  67.090  1.00  0.00    -0.313 N  
HETATM   12  C   UNL     1     -11.584  14.234  68.574  1.00  0.00    -0.320 C  
HETATM   13  O   UNL     1     -10.706  17.526  68.537  1.00  0.00    -0.330 OA 
HETATM   14  N   UNL     1     -11.395  15.427  69.206  1.00  0.00    -0.292 N  
HETATM   15  C   UNL     1     -10.906  16.341  68.318  1.00  0.00    -0.340 C  
BRANCH  11  16
HETATM   16  C   UNL     1     -10.058  16.383  66.010  1.00  0.00    -0.353 C  
HETATM   17  H   UNL     1     -10.571  17.543  64.540  1.00  0.00     0.000 HD 
HETATM   18  O   UNL     1     -11.012  17.101  65.256  1.00  0.00    -0.457 OA 
ENDBRANCH  11  16
BRANCH  14  19
HETATM   19  C   UNL     1     -12.015  15.825  70.434  1.00  0.00    -0.359 C  
HETATM   20  O   UNL     1     -13.419  15.676  70.336  1.00  0.00    -0.804 OA 
HETATM   21  H   UNL     1     -13.830  15.939  71.151  1.00  0.00     0.000 HD 
ENDBRANCH  14  19
ENDBRANCH   8   9
BRANCH   8  22
HETATM   22  C   UNL     1     -12.560  14.076  65.535  1.00  0.00    -0.516 C  
HETATM   23  H   UNL     1     -13.979  13.360  64.445  1.00  0.00     0.000 HD 
HETATM   24  O   UNL     1     -13.185  13.016  64.838  1.00  0.00    -0.735 OA 
ENDBRANCH   8  22
ENDBRANCH   6   8
ENDBRANCH   4   6
ENDBRANCH   3   4
TORSDOF 7
ENDMDL
