MODEL       68
REMARK 921   NORMALIZED FREE ENERGY PREDICTED BY IDOCK:   -5.25 KCAL/MOL
REMARK 922        TOTAL FREE ENERGY PREDICTED BY IDOCK:  -10.89 KCAL/MOL
REMARK 923 INTER-LIGAND FREE ENERGY PREDICTED BY IDOCK:   -9.72 KCAL/MOL
REMARK 924 INTRA-LIGAND FREE ENERGY PREDICTED BY IDOCK:   -1.17 KCAL/MOL
REMARK 927      BINDING AFFINITY PREDICTED BY RF-SCORE:    0.00 PKD
ROOT
HETATM    1  C   UNL     1      -6.331  19.235  69.444  1.00  0.00    -0.337 C  
HETATM    2  C   UNL     1      -7.472  19.022  68.461  1.00  0.00    -0.352 C  
ENDROOT
BRANCH   2   3
HETATM    3  C   UNL     1      -7.709  20.266  67.606  1.00  0.00    -0.328 C  
BRANCH   3   4
HETATM    4  C   UNL     1      -9.194  20.457  67.272  1.00  0.00    -0.525 C  
BRANCH   4   5
HETATM    5  C   UNL     1     -10.050  19.431  68.018  1.00  0.00    -0.516 C  
BRANCH   5   6
HETATM    6  C   UNL     1     -10.768  18.446  67.101  1.00  0.00    -0.330 C  
BRANCH   6   7
HETATM    7  O   UNL     1     -10.986  17.148  67.656  1.00  0.00    -0.285 OA 
BRANCH   7   8
HETATM    8  C   UNL     1     -10.188  16.162  67.172  1.00  0.00    -0.281 C  
HETATM    9  O   UNL     1      -9.025  15.958  67.492  1.00  0.00    -0.190 OA 
BRANCH   8  10
HETATM   10  C   UNL     1     -11.028  15.159  66.457  1.00  0.00    -0.318 A  
HETATM   11  C   UNL     1     -11.129  15.370  65.065  1.00  0.00    -0.428 A  
HETATM   12  C   UNL     1     -11.826  14.481  64.246  1.00  0.00    -0.368 A  
HETATM   13  C   UNL     1     -12.474  13.390  64.811  1.00  0.00    -0.416 A  
HETATM   14  C   UNL     1     -12.397  13.171  66.186  1.00  0.00    -0.385 A  
HETATM   15  C   UNL     1     -11.632  14.015  67.014  1.00  0.00    -0.394 A  
BRANCH  15  16
HETATM   16  C   UNL     1     -11.584  13.688  68.460  1.00  0.00    -0.335 C  
HETATM   17  O   UNL     1     -11.839  14.594  69.252  1.00  0.00    -0.294 OA 
BRANCH  16  18
HETATM   18  C   UNL     1     -11.331  12.299  68.984  1.00  0.00    -0.333 A  
HETATM   19  C   UNL     1     -12.231  11.809  69.940  1.00  0.00    -0.293 A  
HETATM   20  C   UNL     1     -12.051  10.549  70.542  1.00  0.00    -0.437 A  
HETATM   21  C   UNL     1     -10.960   9.728  70.234  1.00  0.00    -0.298 A  
HETATM   22  O   UNL     1      -9.324  11.878  67.721  1.00  0.00    -0.173 OA 
HETATM   23  C   UNL     1     -10.090  10.211  69.241  1.00  0.00    -0.237 A  
HETATM   24  H   UNL     1      -8.595  11.317  67.486  1.00  0.00     0.000 HD 
HETATM   25  C   UNL     1     -10.257  11.473  68.637  1.00  0.00    -0.208 A  
BRANCH  21  26
HETATM   26  N   UNL     1     -10.728   8.504  70.856  1.00  0.00    -0.217 NA 
BRANCH  26  27
HETATM   27  C   UNL     1     -11.364   8.237  72.156  1.00  0.00    -0.352 C  
HETATM   28  C   UNL     1     -10.333   7.770  73.174  1.00  0.00    -0.403 C  
ENDBRANCH  26  27
BRANCH  26  29
HETATM   29  C   UNL     1     -10.272   7.326  70.104  1.00  0.00    -0.203 C  
HETATM   30  C   UNL     1     -11.438   6.385  69.841  1.00  0.00    -0.483 C  
ENDBRANCH  26  29
ENDBRANCH  21  26
ENDBRANCH  16  18
ENDBRANCH  15  16
ENDBRANCH   8  10
ENDBRANCH   7   8
ENDBRANCH   6   7
ENDBRANCH   5   6
ENDBRANCH   4   5
ENDBRANCH   3   4
ENDBRANCH   2   3
TORSDOF 12
ENDMDL
