MODEL       43
REMARK 921   NORMALIZED FREE ENERGY PREDICTED BY IDOCK:   -5.58 KCAL/MOL
REMARK 922        TOTAL FREE ENERGY PREDICTED BY IDOCK:   -9.49 KCAL/MOL
REMARK 923 INTER-LIGAND FREE ENERGY PREDICTED BY IDOCK:   -8.26 KCAL/MOL
REMARK 924 INTRA-LIGAND FREE ENERGY PREDICTED BY IDOCK:   -1.23 KCAL/MOL
REMARK 927      BINDING AFFINITY PREDICTED BY RF-SCORE:    0.00 PKD
ROOT
HETATM    1  C   UNL     1      -9.846  14.296  68.712  1.00  0.00    -0.189 C  
HETATM    2  C   UNL     1     -11.216  14.901  68.373  1.00  0.00    -0.292 C  
ENDROOT
BRANCH   2   3
HETATM    3  N   UNL     1     -12.333  14.113  68.916  1.00  0.00    -0.546 NA 
HETATM    4  H   UNL     1     -12.824  13.637  68.159  1.00  0.00     0.000 HD 
BRANCH   3   5
HETATM    5  C   UNL     1     -11.978  13.137  69.983  1.00  0.00    -0.321 C  
HETATM    6  C   UNL     1     -12.549  13.569  71.338  1.00  0.00    -0.398 C  
BRANCH   5   7
HETATM    7  C   UNL     1     -12.512  11.713  69.596  1.00  0.00     0.015 C  
HETATM    8  H   UNL     1     -12.345  10.528  68.053  1.00  0.00     0.000 HD 
HETATM    9  O   UNL     1     -12.022  11.390  68.287  1.00  0.00    -0.566 OA 
BRANCH   7  10
HETATM   10  C   UNL     1     -12.159  10.579  70.554  1.00  0.00    -0.437 A  
HETATM   11  C   UNL     1     -10.846  10.096  70.701  1.00  0.00    -0.305 A  
HETATM   12  C   UNL     1     -11.567   8.507  72.362  1.00  0.00    -0.354 A  
HETATM   13  C   UNL     1     -12.864   8.984  72.265  1.00  0.00    -0.474 A  
HETATM   14  O   UNL     1     -11.322   7.486  73.234  1.00  0.00    -0.599 OA 
HETATM   15  C   UNL     1     -10.551   9.057  71.591  1.00  0.00    -0.434 A  
HETATM   16  C   UNL     1     -13.157  10.019  71.373  1.00  0.00    -0.512 A  
HETATM   17  H   UNL     1     -12.018   7.109  73.761  1.00  0.00     0.000 HD 
ENDBRANCH   7  10
ENDBRANCH   5   7
ENDBRANCH   3   5
ENDBRANCH   2   3
BRANCH   2  18
HETATM   18  C   UNL     1     -11.321  14.967  66.835  1.00  0.00    -0.338 C  
BRANCH  18  19
HETATM   19  C   UNL     1     -12.495  14.197  66.221  1.00  0.00    -0.395 C  
BRANCH  19  20
HETATM   20  C   UNL     1     -11.959  13.193  65.223  1.00  0.00    -0.437 A  
HETATM   21  C   UNL     1     -10.593  12.878  65.198  1.00  0.00    -0.321 A  
HETATM   22  C   UNL     1     -10.077  12.044  64.205  1.00  0.00    -0.340 A  
HETATM   23  C   UNL     1     -12.282  11.811  63.252  1.00  0.00    -0.400 A  
HETATM   24  C   UNL     1     -12.800  12.645  64.245  1.00  0.00    -0.306 A  
HETATM   25  C   UNL     1     -10.920  11.515  63.229  1.00  0.00    -0.308 A  
ENDBRANCH  19  20
ENDBRANCH  18  19
ENDBRANCH   2  18
TORSDOF 7
ENDMDL
