MODEL       81
REMARK 921   NORMALIZED FREE ENERGY PREDICTED BY IDOCK:   -4.82 KCAL/MOL
REMARK 922        TOTAL FREE ENERGY PREDICTED BY IDOCK:  -10.46 KCAL/MOL
REMARK 923 INTER-LIGAND FREE ENERGY PREDICTED BY IDOCK:  -10.05 KCAL/MOL
REMARK 924 INTRA-LIGAND FREE ENERGY PREDICTED BY IDOCK:   -0.41 KCAL/MOL
REMARK 927      BINDING AFFINITY PREDICTED BY RF-SCORE:    0.00 PKD
ROOT
HETATM    1  O   UNL     1     -11.555  10.053  67.999  1.00  0.00    -0.644 OA 
HETATM    2  H   UNL     1     -12.052  10.182  67.200  1.00  0.00     0.000 HD 
HETATM    3  C   UNL     1     -10.294   9.458  67.703  1.00  0.00    -0.246 C  
ENDROOT
BRANCH   3   4
HETATM    4  C   UNL     1      -9.492   9.250  68.991  1.00  0.00    -0.155 C  
BRANCH   4   5
HETATM    5  N   UNL     1      -9.016  10.505  69.592  1.00  0.00    -0.398 NA 
HETATM    6  H   UNL     1      -9.378  10.623  70.538  1.00  0.00     0.000 HD 
BRANCH   5   7
HETATM    7  C   UNL     1      -7.551  10.607  69.563  1.00  0.00    -0.124 C  
BRANCH   7   8
HETATM    8  C   UNL     1      -7.098  11.553  68.443  1.00  0.00    -0.081 C  
BRANCH   8   9
HETATM    9  N   UNL     1      -7.534  12.913  68.707  1.00  0.00    -0.242 NA 
HETATM   10  H   UNL     1      -7.166  13.394  69.528  1.00  0.00     0.000 HD 
BRANCH   9  11
HETATM   11  C   UNL     1      -8.429  13.586  67.888  1.00  0.00    -0.179 A  
HETATM   12  C   UNL     1      -9.334  12.854  67.122  1.00  0.00    -0.229 A  
HETATM   13  C   UNL     1     -10.223  13.481  66.266  1.00  0.00    -0.299 A  
HETATM   14  C   UNL     1     -10.193  14.863  66.072  1.00  0.00    -0.301 A  
HETATM   15  H   UNL     1      -8.904  20.915  66.236  1.00  0.00     0.000 HD 
HETATM   16  C   UNL     1      -9.259  15.627  66.820  1.00  0.00    -0.275 A  
HETATM   17  C   UNL     1      -8.422  15.001  67.762  1.00  0.00    -0.161 A  
HETATM   18  C   UNL     1      -6.526  19.497  69.004  1.00  0.00    -0.342 A  
HETATM   19  O   UNL     1      -9.786  17.674  65.736  1.00  0.00    -0.537 OA 
HETATM   20  C   UNL     1      -6.567  18.113  69.186  1.00  0.00    -0.255 A  
HETATM   21  C   UNL     1      -7.573  15.835  68.665  1.00  0.00    -0.150 C  
HETATM   22  O   UNL     1      -7.056  15.324  69.654  1.00  0.00    -0.179 OA 
HETATM   23  C   UNL     1      -7.340  20.089  68.049  1.00  0.00    -0.326 A  
HETATM   24  C   UNL     1      -7.445  17.296  68.431  1.00  0.00    -0.234 A  
HETATM   25  O   UNL     1      -8.941  19.973  66.358  1.00  0.00    -0.351 OA 
HETATM   26  H   UNL     1      -5.156  18.116  70.637  1.00  0.00     0.000 HD 
HETATM   27  C   UNL     1      -8.241  17.900  67.458  1.00  0.00    -0.228 A  
HETATM   28  O   UNL     1      -5.745  17.569  70.131  1.00  0.00    -0.240 OA 
HETATM   29  C   UNL     1      -8.186  19.297  67.278  1.00  0.00    -0.277 A  
HETATM   30  C   UNL     1      -9.156  17.098  66.624  1.00  0.00    -0.258 C  
BRANCH  14  31
HETATM   31  N   UNL     1     -11.139  15.434  65.238  1.00  0.00    -0.367 NA 
HETATM   32  H   UNL     1     -11.296  16.441  65.299  1.00  0.00     0.000 HD 
BRANCH  31  33
HETATM   33  C   UNL     1     -11.918  14.665  64.279  1.00  0.00    -0.386 C  
BRANCH  33  34
HETATM   34  C   UNL     1     -13.001  13.840  64.994  1.00  0.00    -0.162 C  
BRANCH  34  35
HETATM   35  N   UNL     1     -13.088  12.479  64.444  1.00  0.00    -0.807 NA 
HETATM   36  H   UNL     1     -14.040  12.241  64.166  1.00  0.00     0.000 HD 
BRANCH  35  37
HETATM   37  C   UNL     1     -12.137  12.314  63.337  1.00  0.00    -0.516 C  
BRANCH  37  38
HETATM   38  C   UNL     1     -10.982  11.399  63.752  1.00  0.00    -0.370 C  
HETATM   39  O   UNL     1     -10.531  10.631  62.639  1.00  0.00    -0.730 OA 
HETATM   40  H   UNL     1      -9.815  10.063  62.896  1.00  0.00     0.000 HD 
ENDBRANCH  37  38
ENDBRANCH  35  37
ENDBRANCH  34  35
ENDBRANCH  33  34
ENDBRANCH  31  33
ENDBRANCH  14  31
ENDBRANCH   9  11
ENDBRANCH   8   9
ENDBRANCH   7   8
ENDBRANCH   5   7
ENDBRANCH   4   5
ENDBRANCH   3   4
TORSDOF 12
ENDMDL
