MODEL      159
REMARK 921   NORMALIZED FREE ENERGY PREDICTED BY IDOCK:   -4.69 KCAL/MOL
REMARK 922        TOTAL FREE ENERGY PREDICTED BY IDOCK:   -8.44 KCAL/MOL
REMARK 923 INTER-LIGAND FREE ENERGY PREDICTED BY IDOCK:   -7.62 KCAL/MOL
REMARK 924 INTRA-LIGAND FREE ENERGY PREDICTED BY IDOCK:   -0.82 KCAL/MOL
REMARK 927      BINDING AFFINITY PREDICTED BY RF-SCORE:    0.00 PKD
ROOT
HETATM    1  C   UNL     1     -12.075  13.765  69.250  1.00  0.00    -0.374 C  
HETATM    2  C   UNL     1     -11.450  12.596  68.479  1.00  0.00    -0.311 C  
ENDROOT
BRANCH   2   3
HETATM    3  C   UNL     1     -12.020  11.269  69.029  1.00  0.00    -0.393 C  
BRANCH   3   4
HETATM    4  C   UNL     1     -11.589  10.967  70.469  1.00  0.00    -0.397 C  
BRANCH   4   5
HETATM    5  C   UNL     1     -12.037   9.592  70.912  1.00  0.00    -0.383 A  
HETATM    6  C   UNL     1     -13.335   9.379  71.395  1.00  0.00    -0.417 A  
HETATM    7  C   UNL     1     -13.740   8.107  71.803  1.00  0.00    -0.422 A  
HETATM    8  C   UNL     1     -11.159   8.502  70.831  1.00  0.00    -0.295 A  
HETATM    9  C   UNL     1     -12.854   7.032  71.727  1.00  0.00    -0.365 A  
HETATM   10  C   UNL     1     -11.564   7.230  71.239  1.00  0.00    -0.316 A  
ENDBRANCH   4   5
ENDBRANCH   3   4
ENDBRANCH   2   3
BRANCH   2  11
HETATM   11  N   UNL     1     -11.694  12.683  67.034  1.00  0.00    -0.363 NA 
HETATM   12  H   UNL     1     -12.165  13.556  66.802  1.00  0.00     0.000 HD 
BRANCH  11  13
HETATM   13  C   UNL     1     -10.486  12.515  66.213  1.00  0.00    -0.246 C  
BRANCH  13  14
HETATM   14  C   UNL     1     -10.358  13.626  65.135  1.00  0.00    -0.364 C  
HETATM   15  H   UNL     1     -11.536  14.437  63.792  1.00  0.00     0.000 HD 
HETATM   16  O   UNL     1     -11.614  13.757  64.452  1.00  0.00    -0.380 OA 
BRANCH  14  17
HETATM   17  C   UNL     1      -9.914  14.956  65.732  1.00  0.00    -0.376 A  
HETATM   18  C   UNL     1      -8.462  16.282  67.204  1.00  0.00    -0.213 A  
HETATM   19  H   UNL     1      -9.535  19.408  67.288  1.00  0.00     0.000 HD 
HETATM   20  C   UNL     1      -9.220  17.419  66.902  1.00  0.00    -0.256 A  
HETATM   21  C   UNL     1     -10.281  17.350  66.005  1.00  0.00    -0.308 A  
HETATM   22  O   UNL     1      -9.021  18.636  67.493  1.00  0.00    -0.273 OA 
HETATM   23  C   UNL     1     -10.638  16.122  65.439  1.00  0.00    -0.399 A  
HETATM   24  C   UNL     1      -8.821  15.057  66.613  1.00  0.00    -0.307 A  
BRANCH  18  25
HETATM   25  C   UNL     1      -7.307  16.274  68.148  1.00  0.00    -0.139 C  
HETATM   26  O   UNL     1      -7.367  15.726  69.241  1.00  0.00    -0.189 OA 
HETATM   27  H1  UNL     1      -5.358  16.883  68.401  1.00  0.00     0.000 HD 
HETATM   28  H2  UNL     1      -6.076  17.339  66.843  1.00  0.00     0.000 HD 
HETATM   29  N   UNL     1      -6.148  16.888  67.755  1.00  0.00    -0.131 N  
ENDBRANCH  18  25
ENDBRANCH  14  17
ENDBRANCH  13  14
ENDBRANCH  11  13
ENDBRANCH   2  11
TORSDOF 8
ENDMDL
