MODEL        2
REMARK 921   NORMALIZED FREE ENERGY PREDICTED BY IDOCK:   -8.60 KCAL/MOL
REMARK 922        TOTAL FREE ENERGY PREDICTED BY IDOCK:  -14.76 KCAL/MOL
REMARK 923 INTER-LIGAND FREE ENERGY PREDICTED BY IDOCK:  -13.24 KCAL/MOL
REMARK 924 INTRA-LIGAND FREE ENERGY PREDICTED BY IDOCK:   -1.52 KCAL/MOL
REMARK 927      BINDING AFFINITY PREDICTED BY RF-SCORE:    0.00 PKD
ROOT
HETATM    1  C   UNL     1     -11.739  15.354  72.531  1.00  0.00    -0.564 C  
HETATM    2  C   UNL     1     -12.968  14.890  71.724  1.00  0.00    -0.336 C  
HETATM    3  C   UNL     1     -13.001  13.236  71.468  1.00  0.00    -0.337 C  
HETATM    4  N   UNL     1     -12.917  15.580  70.403  1.00  0.00    -0.654 NA 
HETATM    5  C   UNL     1     -14.190  15.478  72.482  1.00  0.00    -0.502 C  
HETATM    6  H2  UNL     1     -12.036  15.433  69.909  1.00  0.00     0.000 HD 
HETATM    7  N   UNL     1     -12.344  12.745  70.334  1.00  0.00    -0.292 N  
HETATM    8  H1  UNL     1     -13.730  15.273  69.869  1.00  0.00     0.000 HD 
HETATM    9  O   UNL     1     -13.546  12.474  72.265  1.00  0.00    -0.530 OA 
HETATM   10  H   UNL     1     -12.062  13.485  69.692  1.00  0.00     0.000 HD 
ENDROOT
BRANCH   7  11
HETATM   11  C   UNL     1     -11.940  11.317  69.823  1.00  0.00    -0.360 C  
BRANCH  11  12
HETATM   12  C   UNL     1     -11.058  10.270  70.650  1.00  0.00    -0.358 C  
BRANCH  12  13
HETATM   13  C   UNL     1     -11.701   8.890  71.155  1.00  0.00    -0.356 A  
HETATM   14  C   UNL     1     -13.022   8.606  71.443  1.00  0.00    -0.254 A  
HETATM   15  C   UNL     1      -9.292   5.857  71.710  1.00  0.00    -0.161 A  
HETATM   16  C   UNL     1     -10.176   5.071  72.444  1.00  0.00    -0.254 A  
HETATM   17  C   UNL     1     -11.493   5.493  72.624  1.00  0.00    -0.331 A  
HETATM   18  N   UNL     1     -13.119   7.337  72.015  1.00  0.00    -0.527 NA 
HETATM   19  C   UNL     1      -9.686   7.116  71.209  1.00  0.00    -0.170 A  
HETATM   20  C   UNL     1     -10.998   7.612  71.429  1.00  0.00    -0.257 A  
HETATM   21  C   UNL     1     -11.881   6.745  72.075  1.00  0.00    -0.314 A  
HETATM   22  H   UNL     1     -13.985   6.911  72.342  1.00  0.00     0.000 HD 
ENDBRANCH  12  13
ENDBRANCH  11  12
BRANCH  11  23
HETATM   23  C   UNL     1     -11.522  11.470  68.336  1.00  0.00    -0.298 C  
HETATM   24  N   UNL     1     -11.194  12.738  67.898  1.00  0.00    -0.257 N  
HETATM   25  H   UNL     1     -11.100  13.498  68.571  1.00  0.00     0.000 HD 
HETATM   26  O   UNL     1     -11.571  10.501  67.573  1.00  0.00    -0.421 OA 
BRANCH  24  27
HETATM   27  C   UNL     1     -10.984  12.993  66.491  1.00  0.00    -0.285 C  
BRANCH  27  28
HETATM   28  N   UNL     1     -12.267  13.056  65.838  1.00  0.00    -0.449 N  
HETATM   29  O   UNL     1     -11.615  11.892  63.951  1.00  0.00    -0.395 OA 
HETATM   30  C   UNL     1     -12.463  12.483  64.602  1.00  0.00    -0.463 C  
HETATM   31  H   UNL     1     -13.041  13.534  66.299  1.00  0.00     0.000 HD 
ENDBRANCH  27  28
BRANCH  27  32
HETATM   32  C   UNL     1      -9.995  14.109  66.092  1.00  0.00    -0.328 C  
BRANCH  32  33
HETATM   33  C   UNL     1     -10.247  15.601  65.947  1.00  0.00    -0.372 A  
HETATM   34  C   UNL     1     -10.526  17.888  65.942  1.00  0.00    -0.253 A  
HETATM   35  H   UNL     1     -11.475  17.912  64.049  1.00  0.00     0.000 HD 
HETATM   36  C   UNL     1     -10.485  19.235  66.333  1.00  0.00    -0.563 A  
HETATM   37  C   UNL     1     -10.878  16.019  64.778  1.00  0.00    -0.294 A  
HETATM   38  C   UNL     1      -9.940  19.528  67.578  1.00  0.00    -0.495 A  
HETATM   39  N   UNL     1     -11.037  17.367  64.792  1.00  0.00    -0.883 NA 
HETATM   40  C   UNL     1      -9.464  18.502  68.393  1.00  0.00    -0.368 A  
HETATM   41  C   UNL     1      -9.502  17.154  67.977  1.00  0.00    -0.262 A  
HETATM   42  C   UNL     1     -10.039  16.816  66.716  1.00  0.00    -0.295 A  
ENDBRANCH  32  33
ENDBRANCH  27  32
ENDBRANCH  24  27
ENDBRANCH  11  23
ENDBRANCH   7  11
TORSDOF 8
ENDMDL
