MODEL       48
REMARK 921   NORMALIZED FREE ENERGY PREDICTED BY IDOCK:   -4.43 KCAL/MOL
REMARK 922        TOTAL FREE ENERGY PREDICTED BY IDOCK:   -6.04 KCAL/MOL
REMARK 923 INTER-LIGAND FREE ENERGY PREDICTED BY IDOCK:   -5.70 KCAL/MOL
REMARK 924 INTRA-LIGAND FREE ENERGY PREDICTED BY IDOCK:   -0.34 KCAL/MOL
REMARK 927      BINDING AFFINITY PREDICTED BY RF-SCORE:    0.00 PKD
ROOT
HETATM    1  C   UNL     1      -6.467  21.070  67.401  1.00  0.00    -0.427 C  
HETATM    2  C   UNL     1      -6.546  19.836  68.290  1.00  0.00    -0.303 C  
ENDROOT
BRANCH   2   3
HETATM    3  C   UNL     1      -8.001  19.467  68.551  1.00  0.00    -0.348 C  
BRANCH   3   4
HETATM    4  O   UNL     1      -8.887  20.128  67.636  1.00  0.00    -0.328 OA 
BRANCH   4   5
HETATM    5  C   UNL     1      -9.805  19.332  67.010  1.00  0.00    -0.340 C  
HETATM    6  O   UNL     1     -10.964  19.645  66.765  1.00  0.00    -0.444 OA 
BRANCH   5   7
HETATM    7  C   UNL     1      -9.164  18.016  66.595  1.00  0.00    -0.284 C  
BRANCH   7   8
HETATM    8  N   UNL     1      -9.990  16.850  66.962  1.00  0.00    -0.270 NA 
HETATM    9  C   UNL     1     -10.411  15.939  66.001  1.00  0.00    -0.345 C  
HETATM   10  C   UNL     1     -11.186  14.869  66.240  1.00  0.00    -0.331 C  
HETATM   11  I   UNL     1     -11.751  13.578  64.762  1.00  0.00    -0.494 I  
HETATM   12  C   UNL     1     -11.642  14.642  67.657  1.00  0.00    -0.361 C  
HETATM   13  C   UNL     1     -11.190  15.641  68.683  1.00  0.00    -0.338 C  
HETATM   14  O   UNL     1     -12.349  13.682  67.958  1.00  0.00    -0.238 OA 
HETATM   15  I   UNL     1     -11.766  15.440  70.635  1.00  0.00    -0.531 I  
HETATM   16  C   UNL     1     -10.412  16.653  68.270  1.00  0.00    -0.321 C  
ENDBRANCH   7   8
ENDBRANCH   5   7
ENDBRANCH   4   5
ENDBRANCH   3   4
ENDBRANCH   2   3
TORSDOF 5
ENDMDL
