MODEL       30
REMARK 921   NORMALIZED FREE ENERGY PREDICTED BY IDOCK:   -6.05 KCAL/MOL
REMARK 922        TOTAL FREE ENERGY PREDICTED BY IDOCK:  -11.36 KCAL/MOL
REMARK 923 INTER-LIGAND FREE ENERGY PREDICTED BY IDOCK:   -9.85 KCAL/MOL
REMARK 924 INTRA-LIGAND FREE ENERGY PREDICTED BY IDOCK:   -1.51 KCAL/MOL
REMARK 927      BINDING AFFINITY PREDICTED BY RF-SCORE:    0.00 PKD
ROOT
HETATM    1  C   UNL     1     -10.335  19.902  66.329  1.00  0.00    -0.608 C  
HETATM    2  C   UNL     1      -9.404  19.744  67.521  1.00  0.00    -0.443 C  
ENDROOT
BRANCH   2   3
HETATM    3  C   UNL     1      -9.360  18.309  68.030  1.00  0.00    -0.284 C  
BRANCH   3   4
HETATM    4  N   UNL     1     -10.465  17.523  67.411  1.00  0.00    -0.350 N  
HETATM    5  H   UNL     1     -11.453  17.749  67.516  1.00  0.00     0.000 HD 
BRANCH   4   6
HETATM    6  S   UNL     1      -9.889  16.222  66.522  1.00  0.00    -0.289 S  
HETATM    7  O   UNL     1     -11.064  15.647  65.903  1.00  0.00    -0.272 OA 
HETATM    8  O   UNL     1      -8.761  16.658  65.743  1.00  0.00    -0.482 OA 
BRANCH   6   9
HETATM    9  N   UNL     1      -9.414  15.159  67.725  1.00  0.00    -0.194 N  
HETATM   10  H   UNL     1      -8.430  14.981  67.929  1.00  0.00     0.000 HD 
BRANCH   9  11
HETATM   11  C   UNL     1     -10.453  14.520  68.442  1.00  0.00    -0.246 A  
HETATM   12  C   UNL     1     -10.938  13.239  68.149  1.00  0.00    -0.278 A  
HETATM   13  C   UNL     1     -11.869  12.827  69.114  1.00  0.00    -0.301 A  
HETATM   14  N   UNL     1     -10.891  15.332  69.424  1.00  0.00    -0.248 NA 
HETATM   15  N   UNL     1     -12.316  13.581  70.143  1.00  0.00    -0.304 NA 
HETATM   16  C   UNL     1     -11.811  14.811  70.233  1.00  0.00    -0.302 A  
BRANCH  12  17
HETATM   17  C   UNL     1     -10.576  12.400  66.949  1.00  0.00    -0.251 A  
HETATM   18  C   UNL     1     -11.352  12.342  65.778  1.00  0.00    -0.400 A  
HETATM   19  C   UNL     1     -10.966  11.635  64.631  1.00  0.00    -0.363 A  
HETATM   20  C   UNL     1      -8.985  10.924  65.765  1.00  0.00    -0.208 A  
HETATM   21  C   UNL     1      -9.402  11.616  66.914  1.00  0.00    -0.195 A  
HETATM   22 BR   UNL     1      -9.193  10.082  63.045  1.00  0.00    -0.287 Br 
HETATM   23  C   UNL     1      -9.764  10.952  64.619  1.00  0.00    -0.280 A  
ENDBRANCH  12  17
BRANCH  13  24
HETATM   24  O   UNL     1     -12.365  11.543  69.019  1.00  0.00    -0.360 OA 
BRANCH  24  25
HETATM   25  C   UNL     1     -12.404  10.758  70.211  1.00  0.00    -0.341 C  
BRANCH  25  26
HETATM   26  C   UNL     1     -11.204   9.812  70.162  1.00  0.00    -0.272 C  
BRANCH  26  27
HETATM   27  O   UNL     1     -10.660   9.646  71.469  1.00  0.00    -0.266 OA 
BRANCH  27  28
HETATM   28  C   UNL     1     -10.778   8.353  71.938  1.00  0.00    -0.303 A  
HETATM   29  N   UNL     1     -11.417   7.423  71.205  1.00  0.00    -0.271 NA 
HETATM   30  C   UNL     1     -11.483   6.185  71.742  1.00  0.00    -0.285 A  
HETATM   31  C   UNL     1     -10.940   5.856  72.963  1.00  0.00    -0.268 A  
HETATM   32  C   UNL     1     -10.315   6.885  73.627  1.00  0.00    -0.365 A  
HETATM   33 BR   UNL     1     -11.046   4.122  73.673  1.00  0.00    -0.307 Br 
HETATM   34  N   UNL     1     -10.220   8.141  73.140  1.00  0.00    -0.222 NA 
ENDBRANCH  27  28
ENDBRANCH  26  27
ENDBRANCH  25  26
ENDBRANCH  24  25
ENDBRANCH  13  24
ENDBRANCH   9  11
ENDBRANCH   6   9
ENDBRANCH   4   6
ENDBRANCH   3   4
ENDBRANCH   2   3
TORSDOF 11
ENDMDL
