MODEL       72
REMARK 921   NORMALIZED FREE ENERGY PREDICTED BY IDOCK:   -1.53 KCAL/MOL
REMARK 922        TOTAL FREE ENERGY PREDICTED BY IDOCK:   -1.04 KCAL/MOL
REMARK 923 INTER-LIGAND FREE ENERGY PREDICTED BY IDOCK:   -2.10 KCAL/MOL
REMARK 924 INTRA-LIGAND FREE ENERGY PREDICTED BY IDOCK:    1.06 KCAL/MOL
REMARK 927      BINDING AFFINITY PREDICTED BY RF-SCORE:    0.00 PKD
ROOT
HETATM    1  C   UNL     1      -9.386  15.359  65.962  1.00  0.00    -0.364 C  
HETATM    2  C   UNL     1     -10.585  15.309  65.213  1.00  0.00    -0.438 C  
HETATM    3  C   UNL     1     -10.684  15.823  66.610  1.00  0.00    -0.287 C  
HETATM    4  C   UNL     1      -8.854  16.257  67.485  1.00  0.00    -0.186 C  
HETATM    5  C   UNL     1     -12.235  16.511  66.477  1.00  0.00     2.665 C  
HETATM    6  O   UNL     1      -9.358   7.939  68.253  1.00  0.00    -0.143 OA 
HETATM    7  C   UNL     1      -9.730   9.104  68.281  1.00  0.00    -0.154 C  
HETATM    8  C   UNL     1      -9.947  16.921  67.038  1.00  0.00    -0.279 C  
HETATM    9  C   UNL     1     -10.383   9.741  67.078  1.00  0.00    -0.305 C  
HETATM   10  C   UNL     1     -10.044  11.046  67.099  1.00  0.00    -0.227 C  
HETATM   11  C   UNL     1      -9.952  18.279  66.289  1.00  0.00    -0.361 C  
HETATM   12  C   UNL     1     -12.099  11.722  68.470  1.00  0.00    -0.134 C  
HETATM   13  C   UNL     1     -10.628  16.401  68.733  1.00  0.00    -0.310 C  
HETATM   14  C   UNL     1      -8.682  11.423  66.558  1.00  0.00    -0.181 C  
HETATM   15  C   UNL     1     -10.540  11.919  68.281  1.00  0.00    -0.236 C  
HETATM   16  C   UNL     1     -10.562  14.653  69.071  1.00  0.00    -0.247 C  
HETATM   17  C   UNL     1      -9.949  11.269  69.524  1.00  0.00     0.270 C  
HETATM   18  O   UNL     1      -9.626  14.469  70.132  1.00  0.00     0.002 OA 
HETATM   19  C   UNL     1      -9.614   9.955  69.521  1.00  0.00    -0.242 C  
HETATM   20  C   UNL     1     -10.363  13.445  67.857  1.00  0.00    -0.238 C  
HETATM   21  C   UNL     1      -9.153  13.859  66.881  1.00  0.00    -0.257 C  
HETATM   22  F   UNL     1     -11.483  13.473  66.996  1.00  0.00    -0.302 F  
HETATM   23  H   UNL     1      -9.591  13.536  70.312  1.00  0.00     0.000 HD 
HETATM   24  C   UNL     1      -8.774  12.769  65.873  1.00  0.00     0.648 C  
ENDROOT
BRANCH   4  25
HETATM   25  O   UNL     1      -7.681  16.715  66.555  1.00  0.00    -0.250 OA 
BRANCH  25  26
HETATM   26  C   UNL     1      -6.391  16.353  66.774  1.00  0.00     0.028 C  
HETATM   27  O   UNL     1      -5.983  15.219  66.989  1.00  0.00    -0.206 OA 
BRANCH  26  28
HETATM   28  C   UNL     1      -5.498  17.571  66.636  1.00  0.00    -0.214 C  
HETATM   29  C   UNL     1      -5.540  18.151  65.230  1.00  0.00    -0.150 C  
ENDBRANCH  26  28
ENDBRANCH  25  26
ENDBRANCH   4  25
BRANCH   4  30
HETATM   30  C   UNL     1      -8.310  17.458  68.519  1.00  0.00    -0.271 C  
HETATM   31  C   UNL     1      -7.448  17.161  69.721  1.00  0.00     0.715 C  
HETATM   32  O   UNL     1      -8.527  18.673  68.365  1.00  0.00    -0.319 OA 
HETATM   33 CL   UNL     1      -6.977  15.495  69.942  1.00  0.00    -0.127 Cl 
ENDBRANCH   4  30
TORSDOF 4
ENDMDL
