MODEL      167
REMARK 921   NORMALIZED FREE ENERGY PREDICTED BY IDOCK:   -3.76 KCAL/MOL
REMARK 922        TOTAL FREE ENERGY PREDICTED BY IDOCK:   -5.34 KCAL/MOL
REMARK 923 INTER-LIGAND FREE ENERGY PREDICTED BY IDOCK:   -4.86 KCAL/MOL
REMARK 924 INTRA-LIGAND FREE ENERGY PREDICTED BY IDOCK:   -0.48 KCAL/MOL
REMARK 927      BINDING AFFINITY PREDICTED BY RF-SCORE:    0.00 PKD
ROOT
HETATM    1  N   UNL     1      -6.521  11.781  70.128  1.00  0.00    -0.416 NA 
HETATM    2  C   UNL     1      -7.187  10.940  69.298  1.00  0.00    -0.128 C  
HETATM    3  H1  UNL     1      -5.510  11.696  70.235  1.00  0.00     0.000 HD 
HETATM    4  H2  UNL     1      -7.030  12.498  70.645  1.00  0.00     0.000 HD 
HETATM    5  N   UNL     1      -8.482  11.048  69.161  1.00  0.00    -0.074 NA 
HETATM    6  C   UNL     1      -9.009  10.130  68.316  1.00  0.00    -0.120 A  
HETATM    7  C   UNL     1      -8.356   9.140  67.616  1.00  0.00    -0.116 A  
HETATM    8  N   UNL     1      -9.234   8.392  66.872  1.00  0.00    -0.148 NA 
HETATM    9  C   UNL     1      -6.921   9.042  67.767  1.00  0.00    -0.078 C  
HETATM   10  N   UNL     1      -6.418  10.002  68.636  1.00  0.00    -0.049 N  
HETATM   11  O   UNL     1      -6.191   8.224  67.215  1.00  0.00    -0.053 OA 
HETATM   12  C   UNL     1     -10.413   8.922  67.122  1.00  0.00    -0.274 A  
HETATM   13  N   UNL     1     -10.325   9.985  67.985  1.00  0.00    -0.186 NA 
HETATM   14  H   UNL     1      -5.411  10.015  68.796  1.00  0.00     0.000 HD 
ENDROOT
BRANCH  13  15
HETATM   15  C   UNL     1     -11.416  10.835  68.409  1.00  0.00    -0.288 C  
BRANCH  15  16
HETATM   16  O   UNL     1     -12.055  11.489  67.306  1.00  0.00    -0.548 OA 
BRANCH  16  17
HETATM   17  C   UNL     1     -11.343  12.610  66.735  1.00  0.00    -0.320 C  
BRANCH  17  18
HETATM   18  C   UNL     1     -12.105  13.283  65.584  1.00  0.00    -0.441 C  
HETATM   19  H   UNL     1     -13.472  12.789  64.237  1.00  0.00     0.000 HD 
HETATM   20  O   UNL     1     -13.001  12.372  64.949  1.00  0.00    -0.762 OA 
ENDBRANCH  17  18
BRANCH  17  21
HETATM   21  C   UNL     1     -11.117  13.620  67.874  1.00  0.00    -0.261 C  
HETATM   22  O   UNL     1     -12.318  14.347  68.135  1.00  0.00    -0.601 OA 
HETATM   23  H   UNL     1     -12.178  14.971  68.839  1.00  0.00     0.000 HD 
ENDBRANCH  17  21
ENDBRANCH  16  17
ENDBRANCH  15  16
ENDBRANCH  13  15
TORSDOF 5
ENDMDL
