MODEL       51
REMARK 921   NORMALIZED FREE ENERGY PREDICTED BY IDOCK:   -2.40 KCAL/MOL
REMARK 922        TOTAL FREE ENERGY PREDICTED BY IDOCK:   -3.62 KCAL/MOL
REMARK 923 INTER-LIGAND FREE ENERGY PREDICTED BY IDOCK:   -3.98 KCAL/MOL
REMARK 924 INTRA-LIGAND FREE ENERGY PREDICTED BY IDOCK:    0.36 KCAL/MOL
REMARK 927      BINDING AFFINITY PREDICTED BY RF-SCORE:    0.00 PKD
ROOT
HETATM    1  C   UNL     1      -9.348  11.891  68.661  1.00  0.00    -0.076 C  
HETATM    2  C   UNL     1      -8.240  11.090  69.325  1.00  0.00     0.010 C  
HETATM    3  C   UNL     1      -8.418   9.610  69.373  1.00  0.00    -0.156 A  
HETATM    4  C   UNL     1      -9.275   9.011  68.414  1.00  0.00    -0.137 A  
HETATM    5  C   UNL     1      -9.932   9.817  67.336  1.00  0.00    -0.191 C  
HETATM    6  C   UNL     1      -9.490   7.629  68.456  1.00  0.00    -0.147 A  
HETATM    7  O   UNL     1     -10.325   6.965  67.592  1.00  0.00    -0.167 OA 
HETATM    8  C   UNL     1      -8.887   6.869  69.455  1.00  0.00    -0.133 A  
HETATM    9  C   UNL     1      -9.852  11.310  67.385  1.00  0.00    -0.201 C  
HETATM   10  O   UNL     1     -10.554   9.255  66.428  1.00  0.00    -0.142 OA 
HETATM   11  C   UNL     1     -10.304  12.104  66.383  1.00  0.00    -0.218 C  
HETATM   12  H   UNL     1     -10.470   6.027  67.621  1.00  0.00     0.000 HD 
HETATM   13  C   UNL     1      -8.009   7.459  70.370  1.00  0.00    -0.103 A  
HETATM   14  C   UNL     1      -8.722  13.239  68.390  1.00  0.00    -0.126 C  
HETATM   15  C   UNL     1      -7.715   8.841  70.346  1.00  0.00    -0.091 A  
HETATM   16  C   UNL     1     -10.357  13.647  66.471  1.00  0.00    -0.282 C  
HETATM   17  C   UNL     1      -9.658  14.247  67.725  1.00  0.00    -0.221 C  
HETATM   18  H   UNL     1      -6.996  17.006  66.359  1.00  0.00     0.000 HD 
HETATM   19  O   UNL     1     -10.951  11.575  65.271  1.00  0.00    -0.284 OA 
HETATM   20  C   UNL     1      -8.721  15.494  67.511  1.00  0.00    -0.172 C  
HETATM   21  H   UNL     1     -11.268  12.131  64.569  1.00  0.00     0.000 HD 
HETATM   22  C   UNL     1      -9.930  14.446  65.213  1.00  0.00    -0.280 C  
HETATM   23  O   UNL     1     -11.778  13.922  66.560  1.00  0.00    -0.354 OA 
HETATM   24  O   UNL     1      -7.675  16.768  65.738  1.00  0.00    -0.164 OA 
HETATM   25  C   UNL     1      -8.890  16.275  66.230  1.00  0.00    -0.331 C  
HETATM   26  C   UNL     1      -9.850  15.938  65.353  1.00  0.00    -0.163 C  
HETATM   27  O   UNL     1      -9.619  13.946  64.134  1.00  0.00     0.680 OA 
HETATM   28  H   UNL     1     -11.811  14.870  66.613  1.00  0.00     0.000 HD 
ENDROOT
BRANCH   8  29
HETATM   29  N   UNL     1      -9.137   5.484  69.461  1.00  0.00    -0.119 N  
HETATM   30  H   UNL     1      -9.951   5.147  69.974  1.00  0.00     0.000 HD 
HETATM   31  C   UNL     1      -8.348   4.551  68.815  1.00  0.00    -0.080 C  
HETATM   32  O   UNL     1      -7.346   4.797  68.147  1.00  0.00    -0.065 OA 
BRANCH  31  33
HETATM   33  C   UNL     1      -8.830   3.113  69.043  1.00  0.00    -0.107 C  
BRANCH  33  34
HETATM   34  N   UNL     1      -9.834   3.117  70.118  1.00  0.00     0.021 NA 
HETATM   35  C   UNL     1      -8.561   1.553  71.596  1.00  0.00    -0.072 C  
HETATM   36  C   UNL     1     -10.553   2.824  72.401  1.00  0.00    -0.010 C  
HETATM   37  C   UNL     1      -8.424   4.044  71.941  1.00  0.00    -0.107 C  
HETATM   38  H   UNL     1     -10.571   2.444  69.906  1.00  0.00     0.000 HD 
HETATM   39  C   UNL     1      -9.319   2.885  71.478  1.00  0.00    -0.130 C  
ENDBRANCH  33  34
ENDBRANCH  31  33
ENDBRANCH   8  29
BRANCH  15  40
HETATM   40  N   UNL     1      -6.754   9.347  71.221  1.00  0.00    -0.265 NA 
HETATM   41  C   UNL     1      -5.863  10.428  70.798  1.00  0.00    -0.093 C  
HETATM   42  C   UNL     1      -6.397   8.757  72.511  1.00  0.00    -0.028 C  
ENDBRANCH  15  40
BRANCH  26  43
HETATM   43  C   UNL     1     -11.050  16.804  65.561  1.00  0.00     0.099 C  
HETATM   44  N   UNL     1     -10.860  18.013  66.131  1.00  0.00    -0.089 N  
HETATM   45  H2  UNL     1      -9.930  18.324  66.410  1.00  0.00     0.000 HD 
HETATM   46  H1  UNL     1     -11.680  18.604  66.273  1.00  0.00     0.000 HD 
HETATM   47  O   UNL     1     -12.198  16.448  65.288  1.00  0.00     1.225 OA 
ENDBRANCH  26  43
BRANCH  20  48
HETATM   48  N   UNL     1      -8.682  16.254  68.782  1.00  0.00    -0.232 NA 
HETATM   49  C   UNL     1      -9.878  17.048  69.062  1.00  0.00    -0.240 C  
HETATM   50  C   UNL     1      -7.486  17.079  68.924  1.00  0.00    -0.237 C  
ENDBRANCH  20  48
TORSDOF 6
ENDMDL
