MODEL       24
REMARK 921   NORMALIZED FREE ENERGY PREDICTED BY IDOCK:   -6.43 KCAL/MOL
REMARK 922        TOTAL FREE ENERGY PREDICTED BY IDOCK:   -9.70 KCAL/MOL
REMARK 923 INTER-LIGAND FREE ENERGY PREDICTED BY IDOCK:   -8.64 KCAL/MOL
REMARK 924 INTRA-LIGAND FREE ENERGY PREDICTED BY IDOCK:   -1.06 KCAL/MOL
REMARK 927      BINDING AFFINITY PREDICTED BY RF-SCORE:    0.00 PKD
ROOT
HETATM    1  C   UNL     1      -9.892   8.356  72.231  1.00  0.00    -0.383 C  
HETATM    2  C   UNL     1     -11.405   8.305  72.421  1.00  0.00    -0.388 C  
ENDROOT
BRANCH   2   3
HETATM    3  N   UNL     1     -12.161   9.029  71.374  1.00  0.00    -0.310 NA 
BRANCH   3   4
HETATM    4  C   UNL     1     -13.606   9.110  71.657  1.00  0.00    -0.390 C  
HETATM    5  C   UNL     1     -14.407   7.815  71.526  1.00  0.00    -0.574 C  
ENDBRANCH   3   4
BRANCH   3   6
HETATM    6  C   UNL     1     -11.587  10.372  71.105  1.00  0.00    -0.228 C  
BRANCH   6   7
HETATM    7  C   UNL     1     -11.603  10.725  69.632  1.00  0.00    -0.388 A  
HETATM    8  C   UNL     1     -11.131   9.852  68.644  1.00  0.00    -0.134 A  
HETATM    9  C   UNL     1     -10.918  10.297  67.349  1.00  0.00    -0.317 A  
HETATM   10  O   UNL     1     -10.758   8.570  68.934  1.00  0.00    -0.367 OA 
HETATM   11  C   UNL     1     -11.173  11.635  67.028  1.00  0.00    -0.376 A  
HETATM   12  H   UNL     1     -10.438   7.978  68.265  1.00  0.00     0.000 HD 
HETATM   13  C   UNL     1     -11.719  12.518  67.970  1.00  0.00    -0.355 A  
HETATM   14  C   UNL     1     -11.978  12.027  69.256  1.00  0.00    -0.329 A  
BRANCH  13  15
HETATM   15  N   UNL     1     -12.070  13.864  67.696  1.00  0.00    -0.463 NA 
HETATM   16  H   UNL     1     -12.789  14.275  68.292  1.00  0.00     0.000 HD 
BRANCH  15  17
HETATM   17  C   UNL     1     -11.531  14.710  66.681  1.00  0.00    -0.357 A  
HETATM   18  C   UNL     1     -10.616  15.751  66.965  1.00  0.00    -0.316 A  
HETATM   19  C   UNL     1      -9.930  15.862  68.196  1.00  0.00    -0.222 A  
HETATM   20  C   UNL     1      -9.167  16.985  68.491  1.00  0.00    -0.266 A  
HETATM   21  C   UNL     1      -9.070  17.996  67.547  1.00  0.00    -0.253 A  
HETATM   22 CL   UNL     1      -8.232  19.446  67.939  1.00  0.00    -0.333 Cl 
HETATM   23  C   UNL     1      -9.660  17.850  66.293  1.00  0.00    -0.252 A  
HETATM   24  C   UNL     1     -10.400  16.723  65.969  1.00  0.00    -0.335 A  
HETATM   25  N   UNL     1     -10.916  16.615  64.733  1.00  0.00    -0.743 NA 
HETATM   26  C   UNL     1     -11.682  15.539  64.453  1.00  0.00    -0.242 A  
HETATM   27  C   UNL     1     -12.040  14.590  65.386  1.00  0.00    -0.317 A  
ENDBRANCH  15  17
ENDBRANCH  13  15
ENDBRANCH   6   7
ENDBRANCH   3   6
ENDBRANCH   2   3
TORSDOF 6
ENDMDL
