MODEL      191
REMARK 921   NORMALIZED FREE ENERGY PREDICTED BY IDOCK:   -4.09 KCAL/MOL
REMARK 922        TOTAL FREE ENERGY PREDICTED BY IDOCK:  -12.35 KCAL/MOL
REMARK 923 INTER-LIGAND FREE ENERGY PREDICTED BY IDOCK:   -9.85 KCAL/MOL
REMARK 924 INTRA-LIGAND FREE ENERGY PREDICTED BY IDOCK:   -2.49 KCAL/MOL
REMARK 927      BINDING AFFINITY PREDICTED BY RF-SCORE:    0.00 PKD
ROOT
HETATM    1  C   UNL     1     -10.393   8.925  67.423  1.00  0.00    -0.337 C  
HETATM    2  C   UNL     1      -9.080   8.191  67.503  1.00  0.00    -0.137 C  
HETATM    3  N   UNL     1      -8.487   7.853  66.314  1.00  0.00    -0.128 N  
HETATM    4  O   UNL     1      -8.600   7.892  68.597  1.00  0.00    -0.128 OA 
HETATM    5  O   UNL     1      -8.923   8.305  65.057  1.00  0.00    -0.010 OA 
ENDROOT
BRANCH   3   6
HETATM    6  C   UNL     1      -7.226   7.129  66.224  1.00  0.00    -0.075 C  
BRANCH   6   7
HETATM    7  C   UNL     1      -7.400   5.724  65.644  1.00  0.00    -0.076 C  
BRANCH   7   8
HETATM    8  C   UNL     1      -8.477   4.958  66.415  1.00  0.00    -0.111 C  
BRANCH   8   9
HETATM    9  C   UNL     1      -7.880   3.876  67.316  1.00  0.00    -0.087 C  
BRANCH   9  10
HETATM   10  C   UNL     1      -8.346   4.008  68.767  1.00  0.00    -0.078 C  
BRANCH  10  11
HETATM   11  N   UNL     1      -9.531   4.843  68.896  1.00  0.00    -0.133 N  
HETATM   12  C   UNL     1      -9.991   5.240  70.132  1.00  0.00    -0.243 C  
HETATM   13  H   UNL     1     -10.028   5.140  68.057  1.00  0.00     0.000 HD 
HETATM   14  O   UNL     1      -9.434   4.964  71.191  1.00  0.00    -0.143 OA 
BRANCH  12  15
HETATM   15  C   UNL     1     -11.255   6.070  70.060  1.00  0.00    -0.425 C  
BRANCH  15  16
HETATM   16  C   UNL     1     -11.953   6.099  71.417  1.00  0.00    -0.086 C  
BRANCH  16  17
HETATM   17  C   UNL     1     -12.856   7.307  71.577  1.00  0.00    -0.388 C  
HETATM   18  O   UNL     1     -14.042   7.261  71.258  1.00  0.00    -0.384 OA 
HETATM   19  N   UNL     1     -12.263   8.445  72.061  1.00  0.00    -0.339 N  
HETATM   20  O   UNL     1     -10.940   8.519  72.531  1.00  0.00    -0.353 OA 
BRANCH  19  21
HETATM   21  C   UNL     1     -12.959   9.715  72.210  1.00  0.00    -0.356 C  
BRANCH  21  22
HETATM   22  C   UNL     1     -13.143  10.440  70.874  1.00  0.00    -0.412 C  
BRANCH  22  23
HETATM   23  C   UNL     1     -11.859  11.141  70.389  1.00  0.00    -0.462 C  
BRANCH  23  24
HETATM   24  C   UNL     1     -12.029  11.852  69.046  1.00  0.00    -0.321 C  
BRANCH  24  25
HETATM   25  C   UNL     1     -10.781  12.648  68.671  1.00  0.00    -0.242 C  
BRANCH  25  26
HETATM   26  N   UNL     1     -11.096  14.032  68.379  1.00  0.00    -0.243 N  
HETATM   27  H   UNL     1     -11.277  14.305  67.412  1.00  0.00     0.000 HD 
HETATM   28  C   UNL     1     -11.158  14.987  69.366  1.00  0.00    -0.278 C  
HETATM   29  O   UNL     1     -10.974  14.744  70.555  1.00  0.00    -0.154 OA 
BRANCH  28  30
HETATM   30  C   UNL     1     -11.465  16.378  68.875  1.00  0.00    -0.216 C  
BRANCH  30  31
HETATM   31  C   UNL     1     -10.670  16.660  67.610  1.00  0.00    -0.306 C  
BRANCH  31  32
HETATM   32  C   UNL     1      -9.196  16.817  67.922  1.00  0.00    -0.225 C  
HETATM   33  N   UNL     1      -8.767  18.000  68.473  1.00  0.00    -0.302 N  
HETATM   34  O   UNL     1      -8.437  15.861  67.751  1.00  0.00    -0.155 OA 
HETATM   35  O   UNL     1      -9.514  19.175  68.268  1.00  0.00    -0.317 OA 
BRANCH  33  36
HETATM   36  C   UNL     1      -7.355  18.275  68.743  1.00  0.00    -0.284 C  
BRANCH  36  37
HETATM   37  C   UNL     1      -7.132  19.700  69.255  1.00  0.00    -0.366 C  
BRANCH  37  38
HETATM   38  C   UNL     1      -5.918  20.365  68.598  1.00  0.00    -0.348 C  
BRANCH  38  39
HETATM   39  C   UNL     1      -6.328  21.256  67.422  1.00  0.00    -0.426 C  
BRANCH  39  40
HETATM   40  C   UNL     1      -6.711  20.450  66.179  1.00  0.00    -0.242 C  
HETATM   41  N   UNL     1      -8.158  20.396  65.994  1.00  0.00    -0.541 NA 
HETATM   42  H2  UNL     1      -8.564  21.331  65.970  1.00  0.00     0.000 HD 
HETATM   43  H1  UNL     1      -8.413  19.859  65.165  1.00  0.00     0.000 HD 
ENDBRANCH  39  40
ENDBRANCH  38  39
ENDBRANCH  37  38
ENDBRANCH  36  37
ENDBRANCH  33  36
ENDBRANCH  31  32
ENDBRANCH  30  31
ENDBRANCH  28  30
ENDBRANCH  25  26
ENDBRANCH  24  25
ENDBRANCH  23  24
ENDBRANCH  22  23
ENDBRANCH  21  22
ENDBRANCH  19  21
ENDBRANCH  16  17
ENDBRANCH  15  16
ENDBRANCH  12  15
ENDBRANCH  10  11
ENDBRANCH   9  10
ENDBRANCH   8   9
ENDBRANCH   7   8
ENDBRANCH   6   7
ENDBRANCH   3   6
TORSDOF 23
ENDMDL
