MODEL       79
REMARK 921   NORMALIZED FREE ENERGY PREDICTED BY IDOCK:   -4.70 KCAL/MOL
REMARK 922        TOTAL FREE ENERGY PREDICTED BY IDOCK:   -7.07 KCAL/MOL
REMARK 923 INTER-LIGAND FREE ENERGY PREDICTED BY IDOCK:   -6.48 KCAL/MOL
REMARK 924 INTRA-LIGAND FREE ENERGY PREDICTED BY IDOCK:   -0.60 KCAL/MOL
REMARK 927      BINDING AFFINITY PREDICTED BY RF-SCORE:    0.00 PKD
ROOT
HETATM    1  O   UNL     1     -11.662   6.749  69.597  1.00  0.00    -0.609 OA 
HETATM    2  C   UNL     1     -11.094   6.337  68.363  1.00  0.00    -0.279 C  
HETATM    3  H   UNL     1     -12.347   6.153  69.872  1.00  0.00     0.000 HD 
ENDROOT
BRANCH   2   4
HETATM    4  C   UNL     1      -9.991   7.296  67.921  1.00  0.00    -0.158 C  
HETATM    5  O   UNL     1     -10.587   8.479  67.357  1.00  0.00    -0.277 OA 
HETATM    6  C   UNL     1      -9.638   9.550  67.513  1.00  0.00    -0.144 C  
HETATM    7  H   UNL     1      -9.507   9.627  70.849  1.00  0.00     0.000 HD 
HETATM    8  O   UNL     1      -7.726   7.262  68.822  1.00  0.00    -0.114 OA 
HETATM    9  C   UNL     1      -9.040   9.282  68.920  1.00  0.00    -0.139 C  
HETATM   10  C   UNL     1      -9.048   7.758  69.038  1.00  0.00    -0.144 C  
HETATM   11  H   UNL     1      -7.142   7.548  69.514  1.00  0.00     0.000 HD 
HETATM   12  O   UNL     1      -9.872   9.791  69.987  1.00  0.00    -0.227 OA 
BRANCH   6  13
HETATM   13  O   UNL     1     -10.303  10.833  67.555  1.00  0.00    -0.187 OA 
BRANCH  13  14
HETATM   14  C   UNL     1      -9.617  11.894  66.878  1.00  0.00    -0.200 C  
HETATM   15  C   UNL     1     -11.625  13.139  66.563  1.00  0.00    -0.356 C  
HETATM   16  O   UNL     1     -10.468  12.554  65.938  1.00  0.00    -0.255 OA 
HETATM   17  H   UNL     1      -7.883  12.945  69.480  1.00  0.00     0.000 HD 
HETATM   18  C   UNL     1     -11.208  14.242  67.530  1.00  0.00    -0.307 C  
HETATM   19  O   UNL     1      -8.216  12.309  68.857  1.00  0.00     0.020 OA 
HETATM   20  O   UNL     1     -12.330  14.826  68.202  1.00  0.00    -0.593 OA 
HETATM   21  C   UNL     1     -10.228  13.682  68.573  1.00  0.00    -0.234 C  
HETATM   22  H   UNL     1     -12.071  15.514  68.805  1.00  0.00     0.000 HD 
HETATM   23  O   UNL     1      -9.735  14.774  69.366  1.00  0.00    -0.382 OA 
HETATM   24  C   UNL     1      -9.073  12.934  67.894  1.00  0.00    -0.201 C  
HETATM   25  H   UNL     1      -9.129  14.429  70.011  1.00  0.00     0.000 HD 
BRANCH  15  26
HETATM   26  C   UNL     1     -12.542  13.649  65.449  1.00  0.00    -0.491 C  
HETATM   27  O   UNL     1     -13.158  12.535  64.795  1.00  0.00    -0.853 OA 
HETATM   28  H   UNL     1     -13.727  12.851  64.103  1.00  0.00     0.000 HD 
ENDBRANCH  15  26
ENDBRANCH  13  14
ENDBRANCH   6  13
BRANCH   6  29
HETATM   29  C   UNL     1      -8.555   9.436  66.401  1.00  0.00    -0.134 C  
HETATM   30  H   UNL     1      -8.453   9.069  64.447  1.00  0.00     0.000 HD 
HETATM   31  O   UNL     1      -9.114   9.139  65.126  1.00  0.00    -0.213 OA 
ENDBRANCH   6  29
ENDBRANCH   2   4
TORSDOF 5
ENDMDL
