MODEL      129
REMARK 921   NORMALIZED FREE ENERGY PREDICTED BY IDOCK:   -4.95 KCAL/MOL
REMARK 922        TOTAL FREE ENERGY PREDICTED BY IDOCK:   -7.03 KCAL/MOL
REMARK 923 INTER-LIGAND FREE ENERGY PREDICTED BY IDOCK:   -6.46 KCAL/MOL
REMARK 924 INTRA-LIGAND FREE ENERGY PREDICTED BY IDOCK:   -0.57 KCAL/MOL
REMARK 927      BINDING AFFINITY PREDICTED BY RF-SCORE:    0.00 PKD
ROOT
HETATM    1 CL   UNL     1      -7.298   7.338  62.345  1.00  0.00    -0.084 Cl 
HETATM    2  C   UNL     1      -8.032   7.914  63.793  1.00  0.00    -0.119 A  
HETATM    3  C   UNL     1      -8.144   7.070  64.890  1.00  0.00    -0.107 A  
HETATM    4  C   UNL     1      -8.744   7.543  66.052  1.00  0.00    -0.178 A  
HETATM    5  C   UNL     1      -9.241   8.850  66.098  1.00  0.00    -0.273 A  
HETATM    6  C   UNL     1      -9.163   9.713  64.994  1.00  0.00    -0.250 A  
HETATM    7  C   UNL     1      -8.527   9.220  63.845  1.00  0.00    -0.198 A  
ENDROOT
BRANCH   6   8
HETATM    8  N   UNL     1      -9.769  10.956  65.026  1.00  0.00    -0.246 NA 
HETATM    9  C   UNL     1     -10.127  11.654  63.781  1.00  0.00    -0.381 C  
HETATM   10  C   UNL     1     -11.425  12.466  63.995  1.00  0.00    -0.408 C  
HETATM   11  N   UNL     1     -11.390  13.416  65.134  1.00  0.00    -0.294 NA 
HETATM   12  C   UNL     1      -9.725  11.802  66.230  1.00  0.00    -0.222 C  
HETATM   13  C   UNL     1     -11.027  12.636  66.348  1.00  0.00    -0.272 C  
BRANCH  11  14
HETATM   14  C   UNL     1     -10.448  14.528  64.929  1.00  0.00    -0.409 C  
BRANCH  14  15
HETATM   15  C   UNL     1     -11.021  15.884  65.346  1.00  0.00    -0.293 C  
BRANCH  15  16
HETATM   16  C   UNL     1     -11.254  15.936  66.853  1.00  0.00     0.007 C  
BRANCH  16  17
HETATM   17  N   UNL     1     -10.179  16.628  67.521  1.00  0.00    -0.282 N  
HETATM   18  N   UNL     1     -10.045  18.003  67.484  1.00  0.00    -0.335 NA 
HETATM   19  C   UNL     1      -8.888  18.207  68.035  1.00  0.00    -0.279 A  
HETATM   20  C   UNL     1      -8.226  19.507  68.279  1.00  0.00    -0.373 A  
HETATM   21  C   UNL     1      -7.014  19.491  68.861  1.00  0.00    -0.386 A  
HETATM   22  C   UNL     1      -6.368  18.244  69.229  1.00  0.00    -0.259 A  
HETATM   23  C   UNL     1      -6.986  17.074  68.996  1.00  0.00    -0.229 A  
HETATM   24  N   UNL     1      -8.224  17.086  68.418  1.00  0.00    -0.240 N  
HETATM   25  C   UNL     1      -9.030  16.028  68.069  1.00  0.00    -0.187 C  
HETATM   26  O   UNL     1      -8.798  14.830  68.175  1.00  0.00    -0.160 OA 
ENDBRANCH  16  17
ENDBRANCH  15  16
ENDBRANCH  14  15
ENDBRANCH  11  14
ENDBRANCH   6   8
TORSDOF 5
ENDMDL
