MODEL        9
REMARK 921   NORMALIZED FREE ENERGY PREDICTED BY IDOCK:   -8.97 KCAL/MOL
REMARK 922        TOTAL FREE ENERGY PREDICTED BY IDOCK:  -13.92 KCAL/MOL
REMARK 923 INTER-LIGAND FREE ENERGY PREDICTED BY IDOCK:  -13.51 KCAL/MOL
REMARK 924 INTRA-LIGAND FREE ENERGY PREDICTED BY IDOCK:   -0.41 KCAL/MOL
REMARK 927      BINDING AFFINITY PREDICTED BY RF-SCORE:    0.00 PKD
ROOT
HETATM    1  C   UNL     1      -8.837   2.531  71.956  1.00  0.00    -0.074 C  
HETATM    2  O   UNL     1     -10.117   2.961  72.409  1.00  0.00    -0.156 OA 
ENDROOT
BRANCH   2   3
HETATM    3  C   UNL     1     -10.382   4.294  72.236  1.00  0.00    -0.143 A  
HETATM    4  C   UNL     1     -10.301   4.737  70.910  1.00  0.00    -0.187 A  
HETATM    5  C   UNL     1     -10.512   6.074  70.583  1.00  0.00    -0.305 A  
HETATM    6  C   UNL     1     -10.847   7.011  71.581  1.00  0.00    -0.249 A  
HETATM    7  C   UNL     1     -10.980   6.557  72.902  1.00  0.00    -0.282 A  
HETATM    8  H   UNL     1     -11.166   5.431  75.195  1.00  0.00     0.000 HD 
HETATM    9  O   UNL     1     -10.910   4.811  74.522  1.00  0.00    -0.347 OA 
HETATM   10  C   UNL     1     -10.759   5.206  73.225  1.00  0.00    -0.266 A  
BRANCH   6  11
HETATM   11  C   UNL     1     -10.890   8.491  71.234  1.00  0.00    -0.251 C  
HETATM   12  C   UNL     1     -12.329   8.968  71.339  1.00  0.00    -0.380 C  
HETATM   13  O   UNL     1     -13.016  11.188  71.805  1.00  0.00    -0.451 OA 
HETATM   14  C   UNL     1     -12.325  10.450  71.104  1.00  0.00    -0.400 C  
HETATM   15  C   UNL     1     -11.463  10.921  70.005  1.00  0.00    -0.411 A  
HETATM   16  C   UNL     1     -10.541  10.016  69.472  1.00  0.00    -0.244 A  
HETATM   17  C   UNL     1      -9.723  10.397  68.399  1.00  0.00    -0.167 A  
HETATM   18  O   UNL     1     -10.379   8.718  69.909  1.00  0.00    -0.195 OA 
HETATM   19  C   UNL     1      -9.836  11.674  67.839  1.00  0.00    -0.184 A  
HETATM   20  O   UNL     1     -12.476  13.101  69.937  1.00  0.00    -0.173 OA 
HETATM   21  C   UNL     1     -10.746  12.583  68.387  1.00  0.00    -0.259 A  
HETATM   22  H   UNL     1     -12.544  13.973  69.565  1.00  0.00     0.000 HD 
HETATM   23  C   UNL     1     -11.562  12.207  69.456  1.00  0.00    -0.315 A  
BRANCH  19  24
HETATM   24  O   UNL     1      -9.098  12.158  66.788  1.00  0.00    -0.196 OA 
BRANCH  24  25
HETATM   25  C   UNL     1      -9.807  12.898  65.786  1.00  0.00    -0.209 C  
HETATM   26  C   UNL     1     -10.796  15.013  65.326  1.00  0.00    -0.386 C  
HETATM   27  O   UNL     1     -10.277  14.139  66.343  1.00  0.00    -0.276 OA 
HETATM   28  C   UNL     1     -12.027  14.376  64.665  1.00  0.00    -0.464 C  
HETATM   29  H   UNL     1     -12.650  11.455  63.345  1.00  0.00     0.000 HD 
HETATM   30  O   UNL     1     -10.639  10.827  64.745  1.00  0.00    -0.310 OA 
HETATM   31  C   UNL     1     -11.685  12.966  64.163  1.00  0.00    -0.406 C  
HETATM   32  O   UNL     1     -12.531  15.121  63.547  1.00  0.00    -0.851 OA 
HETATM   33  H   UNL     1     -11.390  10.342  64.421  1.00  0.00     0.000 HD 
HETATM   34  H   UNL     1     -13.292  14.728  63.138  1.00  0.00     0.000 HD 
HETATM   35  O   UNL     1     -12.862  12.328  63.656  1.00  0.00    -0.753 OA 
HETATM   36  C   UNL     1     -11.029  12.110  65.260  1.00  0.00    -0.304 C  
BRANCH  26  37
HETATM   37  C   UNL     1     -11.145  16.366  65.958  1.00  0.00     0.157 C  
BRANCH  37  38
HETATM   38  O   UNL     1     -10.378  17.379  65.306  1.00  0.00    -0.616 OA 
BRANCH  38  39
HETATM   39  C   UNL     1      -9.542  18.098  66.220  1.00  0.00    -0.239 C  
HETATM   40  O   UNL     1      -9.514  17.389  67.459  1.00  0.00    -0.245 OA 
HETATM   41  C   UNL     1      -8.811  18.032  68.524  1.00  0.00    -0.295 C  
HETATM   42  C   UNL     1      -9.326  19.465  68.771  1.00  0.00    -0.387 C  
HETATM   43  C   UNL     1      -7.301  17.918  68.332  1.00  0.00    -0.259 C  
HETATM   44  O   UNL     1     -10.658  19.401  69.308  1.00  0.00    -0.385 OA 
HETATM   45  C   UNL     1      -9.394  20.296  67.488  1.00  0.00    -0.383 C  
HETATM   46  O   UNL     1      -8.097  20.753  67.069  1.00  0.00    -0.534 OA 
HETATM   47  H   UNL     1     -10.975  20.284  69.461  1.00  0.00     0.000 HD 
HETATM   48  C   UNL     1     -10.104  19.529  66.364  1.00  0.00    -0.455 C  
HETATM   49  H   UNL     1      -8.139  21.269  66.272  1.00  0.00     0.000 HD 
HETATM   50  O   UNL     1      -9.969  20.258  65.130  1.00  0.00    -0.272 OA 
HETATM   51  H   UNL     1     -10.315  21.138  65.219  1.00  0.00     0.000 HD 
ENDBRANCH  38  39
ENDBRANCH  37  38
ENDBRANCH  26  37
ENDBRANCH  24  25
ENDBRANCH  19  24
ENDBRANCH   6  11
ENDBRANCH   2   3
TORSDOF 7
ENDMDL
