MODEL       18
REMARK 921   NORMALIZED FREE ENERGY PREDICTED BY IDOCK:   -7.35 KCAL/MOL
REMARK 922        TOTAL FREE ENERGY PREDICTED BY IDOCK:  -12.88 KCAL/MOL
REMARK 923 INTER-LIGAND FREE ENERGY PREDICTED BY IDOCK:  -11.08 KCAL/MOL
REMARK 924 INTRA-LIGAND FREE ENERGY PREDICTED BY IDOCK:   -1.80 KCAL/MOL
REMARK 927      BINDING AFFINITY PREDICTED BY RF-SCORE:    0.00 PKD
ROOT
HETATM    1  C   UNL     1      -7.766  20.842  67.244  1.00  0.00    -0.278 C  
HETATM    2  N   UNL     1      -8.367  19.949  66.256  1.00  0.00    -0.353 NA 
HETATM    3  C   UNL     1      -7.752  18.603  66.310  1.00  0.00    -0.264 C  
HETATM    4  C   UNL     1      -8.146  17.768  67.546  1.00  0.00    -0.223 C  
HETATM    5  N   UNL     1      -9.618  17.646  67.599  1.00  0.00    -0.264 NA 
HETATM    6  C   UNL     1     -10.289  18.952  67.660  1.00  0.00    -0.426 C  
HETATM    7  C   UNL     1      -9.833  19.822  66.458  1.00  0.00    -0.436 C  
ENDROOT
BRANCH   5   8
HETATM    8  C   UNL     1     -10.214  16.455  67.966  1.00  0.00    -0.264 A  
HETATM    9  C   UNL     1     -10.407  16.052  69.284  1.00  0.00    -0.251 A  
HETATM   10  C   UNL     1     -10.963  14.802  69.584  1.00  0.00    -0.285 A  
HETATM   11  C   UNL     1     -11.337  13.910  68.563  1.00  0.00    -0.311 A  
HETATM   12  C   UNL     1     -11.253  14.310  67.218  1.00  0.00    -0.318 A  
HETATM   13  C   UNL     1     -10.705  15.580  66.979  1.00  0.00    -0.321 A  
BRANCH  11  14
HETATM   14  C   UNL     1     -11.782  12.551  69.000  1.00  0.00    -0.318 C  
HETATM   15  H   UNL     1     -11.618  13.143  70.971  1.00  0.00     0.000 HD 
HETATM   16  O   UNL     1     -12.080  11.739  68.125  1.00  0.00    -0.556 OA 
HETATM   17  N   UNL     1     -11.847  12.353  70.366  1.00  0.00    -0.250 N  
BRANCH  17  18
HETATM   18  C   UNL     1     -12.202  11.162  70.975  1.00  0.00    -0.333 A  
HETATM   19  C   UNL     1     -11.477   9.927  70.882  1.00  0.00    -0.456 A  
HETATM   20  C   UNL     1     -10.295   9.461  70.278  1.00  0.00    -0.293 A  
HETATM   21  N   UNL     1     -13.296  11.010  71.722  1.00  0.00    -0.358 NA 
HETATM   22  N   UNL     1     -13.298   9.725  72.076  1.00  0.00    -0.443 NA 
HETATM   23  H   UNL     1     -13.983  11.724  71.968  1.00  0.00     0.000 HD 
HETATM   24  C   UNL     1      -9.950   8.094  70.339  1.00  0.00    -0.190 A  
HETATM   25  C   UNL     1     -10.787   7.203  71.021  1.00  0.00    -0.262 A  
HETATM   26  C   UNL     1     -12.257   9.001  71.567  1.00  0.00    -0.335 A  
HETATM   27  C   UNL     1     -11.953   7.642  71.658  1.00  0.00    -0.329 A  
BRANCH  24  28
HETATM   28  C   UNL     1      -8.657   7.606  69.719  1.00  0.00    -0.135 C  
BRANCH  28  29
HETATM   29  C   UNL     1      -7.710   6.856  70.637  1.00  0.00    -0.096 A  
HETATM   30  C   UNL     1      -6.972   7.473  71.658  1.00  0.00    -0.061 A  
HETATM   31  C   UNL     1      -6.176   6.714  72.515  1.00  0.00    -0.050 A  
HETATM   32  F   UNL     1      -5.498   7.326  73.494  1.00  0.00    -0.044 F  
HETATM   33  C   UNL     1      -6.081   5.337  72.380  1.00  0.00    -0.030 A  
HETATM   34  C   UNL     1      -6.787   4.726  71.356  1.00  0.00    -0.039 A  
HETATM   35  C   UNL     1      -7.593   5.464  70.490  1.00  0.00    -0.080 A  
HETATM   36  F   UNL     1      -6.704   3.398  71.200  1.00  0.00    -0.028 F  
ENDBRANCH  28  29
ENDBRANCH  24  28
ENDBRANCH  17  18
ENDBRANCH  11  14
BRANCH  12  37
HETATM   37  N   UNL     1     -11.612  13.465  66.160  1.00  0.00    -0.333 NA 
HETATM   38  H   UNL     1     -12.327  12.756  66.323  1.00  0.00     0.000 HD 
BRANCH  37  39
HETATM   39  C   UNL     1     -11.002  13.556  64.822  1.00  0.00    -0.373 C  
HETATM   40  C   UNL     1     -11.980  13.419  63.652  1.00  0.00    -0.504 C  
HETATM   41  O   UNL     1     -11.321  11.097  63.333  1.00  0.00    -0.153 OA 
HETATM   42  C   UNL     1     -10.522  11.106  64.515  1.00  0.00    -0.350 C  
HETATM   43  C   UNL     1      -9.917  12.487  64.710  1.00  0.00    -0.177 C  
HETATM   44  C   UNL     1     -12.433  11.984  63.434  1.00  0.00    -0.509 C  
ENDBRANCH  37  39
ENDBRANCH  12  37
ENDBRANCH   5   8
TORSDOF 7
ENDMDL
