MODEL        2
REMARK 921   NORMALIZED FREE ENERGY PREDICTED BY IDOCK:   -6.39 KCAL/MOL
REMARK 922        TOTAL FREE ENERGY PREDICTED BY IDOCK:  -12.85 KCAL/MOL
REMARK 923 INTER-LIGAND FREE ENERGY PREDICTED BY IDOCK:  -11.05 KCAL/MOL
REMARK 924 INTRA-LIGAND FREE ENERGY PREDICTED BY IDOCK:   -1.80 KCAL/MOL
REMARK 927      BINDING AFFINITY PREDICTED BY RF-SCORE:    0.00 PKD
ROOT
HETATM    1  C   UNL     1     -13.798   8.546  71.925  1.00  0.00    -0.473 C  
HETATM    2  C   UNL     1     -13.273   9.967  72.068  1.00  0.00    -0.555 C  
ENDROOT
BRANCH   2   3
HETATM    3  C   UNL     1     -11.899  10.120  71.417  1.00  0.00    -0.414 C  
BRANCH   3   4
HETATM    4  C   UNL     1     -11.308   8.767  71.000  1.00  0.00    -0.332 C  
BRANCH   4   5
HETATM    5  C   UNL     1     -10.533   8.899  69.687  1.00  0.00    -0.218 C  
BRANCH   5   6
HETATM    6  C   UNL     1     -10.196  10.339  69.315  1.00  0.00    -0.227 C  
BRANCH   6   7
HETATM    7  O   UNL     1      -9.951  10.567  67.926  1.00  0.00    -0.164 OA 
BRANCH   7   8
HETATM    8  C   UNL     1     -11.032  10.941  67.194  1.00  0.00    -0.272 C  
HETATM    9  O   UNL     1     -12.093  11.356  67.640  1.00  0.00    -0.630 OA 
BRANCH   8  10
HETATM   10  C   UNL     1     -10.625  11.098  65.768  1.00  0.00    -0.289 A  
HETATM   11  C   UNL     1      -9.833  10.043  65.267  1.00  0.00    -0.388 A  
HETATM   12  C   UNL     1      -9.428  10.011  63.933  1.00  0.00    -0.280 A  
HETATM   13  C   UNL     1      -9.767  11.059  63.087  1.00  0.00    -0.398 A  
HETATM   14  C   UNL     1     -10.538  12.118  63.565  1.00  0.00    -0.501 A  
HETATM   15  C   UNL     1     -11.021  12.124  64.888  1.00  0.00    -0.355 A  
BRANCH  15  16
HETATM   16  C   UNL     1     -11.858  13.277  65.301  1.00  0.00    -0.357 C  
HETATM   17  O   UNL     1     -13.070  13.194  65.104  1.00  0.00    -0.703 OA 
BRANCH  16  18
HETATM   18  C   UNL     1     -11.308  14.482  66.019  1.00  0.00    -0.341 A  
HETATM   19  C   UNL     1     -10.413  15.291  65.307  1.00  0.00    -0.436 A  
HETATM   20  C   UNL     1      -9.791  16.404  65.904  1.00  0.00    -0.344 A  
HETATM   21  C   UNL     1     -10.019  16.752  67.241  1.00  0.00    -0.272 A  
HETATM   22  O   UNL     1     -12.429  14.099  68.116  1.00  0.00    -0.541 OA 
HETATM   23  C   UNL     1     -10.954  15.961  67.931  1.00  0.00    -0.327 A  
HETATM   24  H   UNL     1     -12.610  14.343  69.016  1.00  0.00     0.000 HD 
HETATM   25  C   UNL     1     -11.576  14.840  67.344  1.00  0.00    -0.360 A  
BRANCH  21  26
HETATM   26  N   UNL     1      -9.375  17.814  67.871  1.00  0.00    -0.261 NA 
BRANCH  26  27
HETATM   27  C   UNL     1     -10.171  18.979  68.290  1.00  0.00    -0.386 C  
HETATM   28  C   UNL     1     -10.563  19.824  67.085  1.00  0.00    -0.577 C  
ENDBRANCH  26  27
BRANCH  26  29
HETATM   29  C   UNL     1      -8.072  17.649  68.531  1.00  0.00    -0.283 C  
HETATM   30  C   UNL     1      -7.500  19.006  68.915  1.00  0.00    -0.364 C  
ENDBRANCH  26  29
ENDBRANCH  21  26
ENDBRANCH  16  18
ENDBRANCH  15  16
ENDBRANCH   8  10
ENDBRANCH   7   8
ENDBRANCH   6   7
ENDBRANCH   5   6
ENDBRANCH   4   5
ENDBRANCH   3   4
ENDBRANCH   2   3
TORSDOF 12
ENDMDL
