MODEL       26
REMARK 921   NORMALIZED FREE ENERGY PREDICTED BY IDOCK:   -6.49 KCAL/MOL
REMARK 922        TOTAL FREE ENERGY PREDICTED BY IDOCK:   -8.95 KCAL/MOL
REMARK 923 INTER-LIGAND FREE ENERGY PREDICTED BY IDOCK:   -8.58 KCAL/MOL
REMARK 924 INTRA-LIGAND FREE ENERGY PREDICTED BY IDOCK:   -0.37 KCAL/MOL
REMARK 927      BINDING AFFINITY PREDICTED BY RF-SCORE:    0.00 PKD
ROOT
HETATM    1 CL   UNL     1      -5.848  20.351  68.884  1.00  0.00    -0.334 Cl 
HETATM    2  C   UNL     1      -7.253  19.879  68.013  1.00  0.00    -0.292 A  
HETATM    3  C   UNL     1      -7.907  20.612  67.060  1.00  0.00    -0.307 A  
HETATM    4  C   UNL     1      -9.039  19.900  66.558  1.00  0.00    -0.464 A  
HETATM    5  C   UNL     1      -9.190  18.653  67.147  1.00  0.00    -0.287 A  
HETATM    6  S   UNL     1      -7.955  18.373  68.311  1.00  0.00    -0.308 SA 
ENDROOT
BRANCH   5   7
HETATM    7  C   UNL     1     -10.233  17.672  66.871  1.00  0.00    -0.334 C  
HETATM    8  N   UNL     1     -10.143  17.032  65.648  1.00  0.00    -0.179 N  
HETATM    9  O   UNL     1     -11.137  17.409  67.658  1.00  0.00    -0.214 OA 
HETATM   10  H   UNL     1      -9.448  17.355  64.974  1.00  0.00     0.000 HD 
BRANCH   8  11
HETATM   11  C   UNL     1     -11.002  15.916  65.287  1.00  0.00    -0.324 C  
BRANCH  11  12
HETATM   12  C   UNL     1     -10.485  14.607  65.870  1.00  0.00    -0.314 C  
HETATM   13  C   UNL     1     -11.319  14.062  67.003  1.00  0.00    -0.330 C  
HETATM   14  N   UNL     1     -11.007  12.665  66.916  1.00  0.00    -0.254 N  
HETATM   15  C   UNL     1     -10.682  12.379  65.595  1.00  0.00    -0.264 C  
HETATM   16  O   UNL     1     -10.560  13.558  64.892  1.00  0.00    -0.349 OA 
HETATM   17  O   UNL     1     -10.520  11.299  65.049  1.00  0.00    -0.278 OA 
BRANCH  14  18
HETATM   18  C   UNL     1     -11.068  11.757  68.002  1.00  0.00    -0.242 A  
HETATM   19  C   UNL     1     -10.327  10.576  68.006  1.00  0.00    -0.212 A  
HETATM   20  C   UNL     1     -10.387   9.680  69.084  1.00  0.00    -0.219 A  
HETATM   21  C   UNL     1     -11.179   9.928  70.209  1.00  0.00    -0.301 A  
HETATM   22  C   UNL     1     -11.844  12.024  69.135  1.00  0.00    -0.369 A  
HETATM   23  C   UNL     1     -11.886  11.135  70.225  1.00  0.00    -0.455 A  
BRANCH  21  24
HETATM   24  N   UNL     1     -11.326   8.936  71.232  1.00  0.00    -0.277 N  
HETATM   25  C   UNL     1     -12.647   8.440  71.623  1.00  0.00    -0.332 C  
HETATM   26  C   UNL     1     -12.652   6.921  71.775  1.00  0.00    -0.344 C  
HETATM   27  O   UNL     1     -11.700   6.538  72.765  1.00  0.00    -0.148 OA 
HETATM   28  C   UNL     1     -10.401   6.963  72.386  1.00  0.00    -0.202 C  
HETATM   29  C   UNL     1     -10.228   8.428  71.951  1.00  0.00    -0.270 C  
HETATM   30  O   UNL     1      -9.160   9.010  72.137  1.00  0.00    -0.372 OA 
ENDBRANCH  21  24
ENDBRANCH  14  18
ENDBRANCH  11  12
ENDBRANCH   8  11
ENDBRANCH   5   7
TORSDOF 5
ENDMDL
