MODEL        2
REMARK 921   NORMALIZED FREE ENERGY PREDICTED BY IDOCK:   -6.74 KCAL/MOL
REMARK 922        TOTAL FREE ENERGY PREDICTED BY IDOCK:  -10.83 KCAL/MOL
REMARK 923 INTER-LIGAND FREE ENERGY PREDICTED BY IDOCK:  -10.23 KCAL/MOL
REMARK 924 INTRA-LIGAND FREE ENERGY PREDICTED BY IDOCK:   -0.60 KCAL/MOL
REMARK 927      BINDING AFFINITY PREDICTED BY RF-SCORE:    0.00 PKD
ROOT
HETATM    1  C   UNL     1     -12.433  12.322  63.342  1.00  0.00    -0.592 C  
HETATM    2  C   UNL     1     -12.658  12.501  64.828  1.00  0.00    -0.413 C  
ENDROOT
BRANCH   2   3
HETATM    3  O   UNL     1     -12.955  13.866  65.146  1.00  0.00    -0.744 OA 
BRANCH   3   4
HETATM    4  C   UNL     1     -12.032  14.720  64.459  1.00  0.00    -0.440 C  
BRANCH   4   5
HETATM    5  C   UNL     1     -10.626  14.747  65.076  1.00  0.00    -0.429 C  
BRANCH   5   6
HETATM    6  N   UNL     1     -10.428  15.431  66.374  1.00  0.00    -0.295 N  
HETATM    7 CL   UNL     1      -8.353  17.966  67.704  1.00  0.00    -0.231 Cl 
HETATM    8  C   UNL     1     -10.370  16.848  66.301  1.00  0.00    -0.308 C  
HETATM    9  C   UNL     1     -10.100  17.646  67.589  1.00  0.00    -0.339 C  
HETATM   10 CL   UNL     1     -11.000  19.184  67.567  1.00  0.00    -0.499 Cl 
HETATM   11  O   UNL     1     -10.507  17.437  65.220  1.00  0.00    -0.654 OA 
BRANCH   6  12
HETATM   12  C   UNL     1      -9.855  14.725  67.541  1.00  0.00    -0.218 C  
BRANCH  12  13
HETATM   13  C   UNL     1     -10.765  13.878  68.397  1.00  0.00    -0.267 A  
HETATM   14  C   UNL     1     -11.346  14.391  69.566  1.00  0.00    -0.318 A  
HETATM   15  C   UNL     1     -12.070  13.554  70.422  1.00  0.00    -0.415 A  
HETATM   16  C   UNL     1     -12.258  12.203  70.111  1.00  0.00    -0.231 A  
HETATM   17  C   UNL     1     -11.007  12.536  68.061  1.00  0.00    -0.266 A  
HETATM   18  C   UNL     1     -11.732  11.700  68.921  1.00  0.00    -0.397 A  
BRANCH  16  19
HETATM   19  O   UNL     1     -12.877  11.461  71.095  1.00  0.00    -0.380 OA 
BRANCH  19  20
HETATM   20  C   UNL     1     -12.419  10.206  71.422  1.00  0.00    -0.423 A  
HETATM   21  C   UNL     1     -13.386   9.257  71.773  1.00  0.00    -0.477 A  
HETATM   22  C   UNL     1     -13.010   7.942  72.063  1.00  0.00    -0.270 A  
HETATM   23  C   UNL     1     -11.657   7.583  71.999  1.00  0.00    -0.287 A  
HETATM   24  C   UNL     1     -10.691   8.522  71.611  1.00  0.00    -0.351 A  
HETATM   25  N   UNL     1     -11.247   6.215  72.332  1.00  0.00    -0.272 N  
HETATM   26  C   UNL     1     -11.080   9.826  71.304  1.00  0.00    -0.375 A  
HETATM   27  O   UNL     1     -12.134   5.396  72.603  1.00  0.00    -0.169 OA 
HETATM   28  O   UNL     1     -10.031   5.960  72.334  1.00  0.00    -0.170 OA 
ENDBRANCH  19  20
ENDBRANCH  16  19
ENDBRANCH  12  13
ENDBRANCH   6  12
ENDBRANCH   5   6
ENDBRANCH   4   5
ENDBRANCH   3   4
ENDBRANCH   2   3
TORSDOF 8
ENDMDL
