MODEL      261
REMARK 921   NORMALIZED FREE ENERGY PREDICTED BY IDOCK:    3.38 KCAL/MOL
REMARK 922        TOTAL FREE ENERGY PREDICTED BY IDOCK:    5.02 KCAL/MOL
REMARK 923 INTER-LIGAND FREE ENERGY PREDICTED BY IDOCK:   -2.22 KCAL/MOL
REMARK 924 INTRA-LIGAND FREE ENERGY PREDICTED BY IDOCK:    7.24 KCAL/MOL
REMARK 927      BINDING AFFINITY PREDICTED BY RF-SCORE:    0.00 PKD
ROOT
HETATM    1  C   UNK A   0     -12.270  14.911  65.495  1.00  0.00     0.021 C  
HETATM    2  O   UNK A   0     -12.930  16.182  65.629  1.00  0.00     2.798 OA 
HETATM    3  C   UNK A   0     -13.268  13.887  65.005  1.00  0.00     0.171 C  
HETATM    4  H   UNK A   0     -12.303  16.825  65.937  1.00  0.00     0.000 HD 
ENDROOT
BRANCH   1   5
HETATM    5  C   UNK A   0     -11.165  15.095  64.469  1.00  0.00    -0.272 C  
HETATM    6  O   UNK A   0     -11.345  16.187  63.690  1.00  0.00    -1.084 OA 
HETATM    7  H   UNK A   0     -10.655  16.303  63.048  1.00  0.00     0.000 HD 
BRANCH   5   8
HETATM    8  N   UNK A   0     -10.135  14.319  64.387  1.00  0.00    -0.610 NA 
HETATM    9  H   UNK A   0      -9.604  14.261  63.519  1.00  0.00     0.000 HD 
BRANCH   8  10
HETATM   10  C   UNK A   0      -9.747  13.543  65.522  1.00  0.00    -0.047 A  
HETATM   11  C   UNK A   0     -10.129  12.188  65.668  1.00  0.00    -0.248 A  
HETATM   12  I   UNK A   0     -11.252  11.261  64.028  1.00  0.00     0.414 I  
HETATM   13  C   UNK A   0      -9.663  11.420  66.757  1.00  0.00    -0.221 A  
HETATM   14  I   UNK A   0      -8.493  16.235  66.328  1.00  0.00     0.015 I  
HETATM   15  C   UNK A   0      -8.595  11.944  67.541  1.00  0.00    -0.160 A  
HETATM   16  I   UNK A   0      -7.366  10.485  68.608  1.00  0.00    -0.115 I  
HETATM   17  C   UNK A   0      -8.818  14.099  66.453  1.00  0.00     0.064 A  
HETATM   18  C   UNK A   0      -8.159  13.297  67.415  1.00  0.00    -0.179 A  
BRANCH  13  19
HETATM   19  C   UNK A   0     -10.316  10.141  67.182  1.00  0.00    -0.238 C  
HETATM   20  O   UNK A   0      -9.742   9.001  66.772  1.00  0.00    -0.179 OA 
HETATM   21  H   UNK A   0     -10.156   8.190  67.043  1.00  0.00     0.000 HD 
BRANCH  19  22
ATOM     22  N   SER A   1     -11.371  10.106  67.918  1.00  0.00    -0.576 NA 
ATOM     23  H   SER A   1     -12.280  10.383  67.548  1.00  0.00     0.000 HD 
BRANCH  22  24
ATOM     24  CA  SER A   1     -11.221   9.650  69.328  1.00  0.00    -0.047 C  
BRANCH  24  25
ATOM     25  C   SER A   1     -11.166  10.913  70.208  1.00  0.00    -0.188 C  
ATOM     26  H   SER A   1     -12.203  11.685  71.692  1.00  0.00     0.000 HD 
ATOM     27  O   SER A   1     -12.237  10.906  71.149  1.00  0.00    -0.352 OA 
ENDBRANCH  24  25
BRANCH  24  28
ATOM     28  CB  SER A   1      -9.925   8.845  69.560  1.00  0.00    -0.191 C  
ATOM     29  OG  SER A   1     -10.125   7.440  69.697  1.00  0.00    -0.179 OA 
ATOM     30  HG  SER A   1      -9.327   6.945  69.840  1.00  0.00     0.000 HD 
ENDBRANCH  24  28
ENDBRANCH  22  24
ENDBRANCH  19  22
ENDBRANCH  13  19
BRANCH  18  31
HETATM   31  C   UNK A   0      -7.001  13.811  68.235  1.00  0.00    -0.109 C  
HETATM   32  H   UNK A   0      -6.053  13.477  69.907  1.00  0.00     0.000 HD 
HETATM   33  O   UNK A   0      -6.781  13.154  69.391  1.00  0.00    -0.096 OA 
BRANCH  31  34
ATOM     34  N   SER A   1      -6.285  14.837  67.928  1.00  0.00    -0.150 NA 
ATOM     35  H   SER A   1      -5.344  14.732  67.546  1.00  0.00     0.000 HD 
BRANCH  34  36
ATOM     36  CA  SER A   1      -6.887  16.186  68.153  1.00  0.00    -0.125 C  
BRANCH  36  37
ATOM     37  CB  SER A   1      -7.469  16.213  69.569  1.00  0.00    -0.084 C  
ATOM     38  HG  SER A   1      -7.055  15.403  71.317  1.00  0.00     0.000 HD 
ATOM     39  OG  SER A   1      -6.694  15.387  70.439  1.00  0.00     0.012 OA 
ENDBRANCH  36  37
BRANCH  36  40
ATOM     40  C   SER A   1      -5.795  17.262  68.003  1.00  0.00    -0.124 C  
ATOM     41  H   SER A   1      -4.470  17.804  66.647  1.00  0.00     0.000 HD 
ATOM     42  O   SER A   1      -5.143  17.141  66.740  1.00  0.00    -0.142 OA 
ENDBRANCH  36  40
ENDBRANCH  34  36
ENDBRANCH  31  34
ENDBRANCH  18  31
ENDBRANCH   8  10
ENDBRANCH   5   8
ENDBRANCH   1   5
TORSDOF 13
ENDMDL
