MODEL       15
REMARK 921   NORMALIZED FREE ENERGY PREDICTED BY IDOCK:   -5.98 KCAL/MOL
REMARK 922        TOTAL FREE ENERGY PREDICTED BY IDOCK:   -7.18 KCAL/MOL
REMARK 923 INTER-LIGAND FREE ENERGY PREDICTED BY IDOCK:   -6.54 KCAL/MOL
REMARK 924 INTRA-LIGAND FREE ENERGY PREDICTED BY IDOCK:   -0.64 KCAL/MOL
REMARK 927      BINDING AFFINITY PREDICTED BY RF-SCORE:    0.00 PKD
ROOT
HETATM    1  C   UNL     1      -7.241  15.519  67.287  1.00  0.00    -0.242 C  
HETATM    2  C   UNL     1      -8.514  15.868  68.082  1.00  0.00    -0.167 C  
HETATM    3  C   UNL     1      -9.429  14.579  68.355  1.00  0.00    -0.209 C  
HETATM    4  C   UNL     1     -11.267  15.534  71.598  1.00  0.00    -0.388 A  
HETATM    5  O   UNL     1      -8.543  13.652  69.070  1.00  0.00    -0.357 OA 
HETATM    6  C   UNL     1     -12.581  15.635  71.164  1.00  0.00    -0.453 A  
HETATM    7  C   UNL     1     -10.563  14.946  69.324  1.00  0.00    -0.248 A  
HETATM    8  C   UNL     1      -9.815  13.824  67.050  1.00  0.00    -0.251 C  
HETATM    9  C   UNL     1     -10.267  15.193  70.686  1.00  0.00     0.270 A  
HETATM   10  C   UNL     1     -11.897  15.112  68.925  1.00  0.00    -0.310 A  
HETATM   11  F   UNL     1     -13.542  15.955  72.040  1.00  0.00    -0.521 F  
HETATM   12  H   UNL     1      -9.085  12.889  69.232  1.00  0.00     0.000 HD 
HETATM   13  F   UNL     1     -12.246  15.012  67.637  1.00  0.00    -0.304 F  
HETATM   14  C   UNL     1     -12.905  15.428  69.834  1.00  0.00    -0.011 A  
ENDROOT
BRANCH   2  15
HETATM   15  N   UNL     1      -9.193  17.124  67.689  1.00  0.00    -0.236 NA 
HETATM   16  C   UNL     1      -7.638  19.614  67.199  1.00  0.00    -0.282 C  
HETATM   17  C   UNL     1      -7.935  19.159  68.606  1.00  0.00    -0.398 C  
HETATM   18  C   UNL     1      -7.285  20.876  66.909  1.00  0.00    -0.308 C  
HETATM   19  C   UNL     1      -9.140  18.202  68.696  1.00  0.00    -0.277 C  
HETATM   20  C   UNL     1      -7.769  18.554  66.133  1.00  0.00    -0.253 C  
HETATM   21  C   UNL     1      -9.011  17.675  66.345  1.00  0.00    -0.231 C  
ENDBRANCH   2  15
BRANCH   8  22
HETATM   22  N   UNL     1     -10.346  12.485  67.257  1.00  0.00    -0.219 NA 
HETATM   23  C   UNL     1     -10.448  10.480  67.791  1.00  0.00    -0.224 A  
HETATM   24  C   UNL     1     -11.654  12.101  67.239  1.00  0.00    -0.334 A  
HETATM   25  N   UNL     1     -11.746  10.830  67.557  1.00  0.00    -0.423 NA 
HETATM   26  N   UNL     1      -9.557  11.460  67.629  1.00  0.00    -0.167 NA 
ENDBRANCH   8  22
TORSDOF 2
ENDMDL
