MODEL       50
REMARK 921   NORMALIZED FREE ENERGY PREDICTED BY IDOCK:   -4.69 KCAL/MOL
REMARK 922        TOTAL FREE ENERGY PREDICTED BY IDOCK:   -9.19 KCAL/MOL
REMARK 923 INTER-LIGAND FREE ENERGY PREDICTED BY IDOCK:   -8.11 KCAL/MOL
REMARK 924 INTRA-LIGAND FREE ENERGY PREDICTED BY IDOCK:   -1.08 KCAL/MOL
REMARK 927      BINDING AFFINITY PREDICTED BY RF-SCORE:    0.00 PKD
ROOT
HETATM    1  C   UNK A   0     -12.015   7.455  71.905  1.00  0.00    -0.302 C  
HETATM    2  O   UNK A   0     -11.665   7.834  73.248  1.00  0.00    -0.659 OA 
HETATM    3  C   UNK A   0     -13.497   7.673  71.703  1.00  0.00    -0.415 C  
HETATM    4  H   UNK A   0     -10.734   7.697  73.375  1.00  0.00     0.000 HD 
ENDROOT
BRANCH   1   5
HETATM    5  C   UNK A   0     -11.223   8.356  70.973  1.00  0.00    -0.266 C  
HETATM    6  O   UNK A   0     -10.052   8.770  71.508  1.00  0.00    -0.243 OA 
HETATM    7  H   UNK A   0      -9.557   9.334  70.926  1.00  0.00     0.000 HD 
BRANCH   5   8
HETATM    8  N   UNK A   0     -11.607   8.649  69.774  1.00  0.00    -0.350 NA 
HETATM    9  H   UNK A   0     -12.347   8.110  69.326  1.00  0.00     0.000 HD 
BRANCH   8  10
HETATM   10  C   UNK A   0     -10.988   9.735  69.082  1.00  0.00    -0.175 A  
HETATM   11  C   UNK A   0     -11.287  11.084  69.384  1.00  0.00    -0.284 A  
HETATM   12  I   UNK A   0     -12.659  11.477  71.050  1.00  0.00    -0.162 I  
HETATM   13  C   UNK A   0     -10.600  12.138  68.744  1.00  0.00    -0.230 A  
HETATM   14  I   UNK A   0      -9.705   7.392  67.553  1.00  0.00    -0.249 I  
HETATM   15  C   UNK A   0      -9.425  11.821  68.002  1.00  0.00    -0.188 A  
HETATM   16  I   UNK A   0      -7.969  13.431  67.756  1.00  0.00    -0.213 I  
HETATM   17  C   UNK A   0      -9.924   9.454  68.171  1.00  0.00    -0.175 A  
HETATM   18  C   UNK A   0      -9.069  10.474  67.689  1.00  0.00    -0.146 A  
BRANCH  13  19
HETATM   19  C   UNK A   0     -11.116  13.543  68.720  1.00  0.00    -0.264 C  
HETATM   20  O   UNK A   0     -10.583  14.400  69.601  1.00  0.00    -0.426 OA 
HETATM   21  H   UNK A   0     -10.910  15.292  69.586  1.00  0.00     0.000 HD 
BRANCH  19  22
ATOM     22  N   SER A   1     -12.019  13.942  67.894  1.00  0.00    -0.409 NA 
ATOM     23  H   SER A   1     -12.910  14.310  68.226  1.00  0.00     0.000 HD 
BRANCH  22  24
ATOM     24  CA  SER A   1     -11.720  13.849  66.438  1.00  0.00    -0.383 C  
BRANCH  24  25
ATOM     25  C   SER A   1     -10.999  15.151  66.040  1.00  0.00    -0.332 C  
ATOM     26  H   SER A   1     -10.915  16.332  64.469  1.00  0.00     0.000 HD 
ATOM     27  O   SER A   1     -11.360  15.530  64.714  1.00  0.00    -0.410 OA 
ENDBRANCH  24  25
BRANCH  24  28
ATOM     28  CB  SER A   1     -12.994  13.723  65.576  1.00  0.00    -0.315 C  
ATOM     29  OG  SER A   1     -12.850  12.874  64.439  1.00  0.00    -0.696 OA 
ATOM     30  HG  SER A   1     -13.634  12.796  63.908  1.00  0.00     0.000 HD 
ENDBRANCH  24  28
ENDBRANCH  22  24
ENDBRANCH  19  22
ENDBRANCH  13  19
BRANCH  18  31
HETATM   31  C   UNK A   0      -7.800  10.171  66.932  1.00  0.00    -0.107 C  
HETATM   32  H   UNK A   0      -5.945   9.638  67.220  1.00  0.00     0.000 HD 
HETATM   33  O   UNK A   0      -6.745   9.829  67.696  1.00  0.00    -0.068 OA 
BRANCH  31  34
ATOM     34  N   SER A   1      -7.666  10.277  65.655  1.00  0.00    -0.143 NA 
ATOM     35  H   SER A   1      -8.247  10.917  65.112  1.00  0.00     0.000 HD 
BRANCH  34  36
ATOM     36  CA  SER A   1      -6.627   9.425  65.001  1.00  0.00    -0.084 C  
BRANCH  36  37
ATOM     37  CB  SER A   1      -7.324   8.191  64.422  1.00  0.00    -0.093 C  
ATOM     38  HG  SER A   1      -7.237   6.237  64.660  1.00  0.00     0.000 HD 
ATOM     39  OG  SER A   1      -6.805   7.003  65.020  1.00  0.00    -0.049 OA 
ENDBRANCH  36  37
BRANCH  36  40
ATOM     40  C   SER A   1      -5.942  10.228  63.879  1.00  0.00    -0.133 C  
ATOM     41  H   SER A   1      -6.422  10.934  62.101  1.00  0.00     0.000 HD 
ATOM     42  O   SER A   1      -6.844  10.439  62.793  1.00  0.00    -0.138 OA 
ENDBRANCH  36  40
ENDBRANCH  34  36
ENDBRANCH  31  34
ENDBRANCH  18  31
ENDBRANCH   8  10
ENDBRANCH   5   8
ENDBRANCH   1   5
TORSDOF 13
ENDMDL
