MODEL       25
REMARK 921   NORMALIZED FREE ENERGY PREDICTED BY IDOCK:   -4.72 KCAL/MOL
REMARK 922        TOTAL FREE ENERGY PREDICTED BY IDOCK:   -5.36 KCAL/MOL
REMARK 923 INTER-LIGAND FREE ENERGY PREDICTED BY IDOCK:   -5.08 KCAL/MOL
REMARK 924 INTRA-LIGAND FREE ENERGY PREDICTED BY IDOCK:   -0.28 KCAL/MOL
REMARK 927      BINDING AFFINITY PREDICTED BY RF-SCORE:    0.00 PKD
ROOT
HETATM    1  O   UNL     1     -13.376  12.493  64.586  1.00  0.00    -0.804 OA 
HETATM    2  H   UNL     1     -14.058  11.889  64.319  1.00  0.00     0.000 HD 
HETATM    3  C   UNL     1     -12.200  12.297  63.810  1.00  0.00    -0.546 C  
ENDROOT
BRANCH   3   4
HETATM    4  C   UNL     1     -11.098  13.273  64.241  1.00  0.00    -0.388 C  
HETATM    5  O   UNL     1     -10.220  12.644  65.196  1.00  0.00    -0.287 OA 
HETATM    6  C   UNL     1     -10.743  12.918  66.497  1.00  0.00    -0.269 C  
HETATM    7  H   UNL     1     -11.192  16.467  64.948  1.00  0.00     0.000 HD 
HETATM    8  O   UNL     1     -11.722  11.930  66.850  1.00  0.00    -0.541 OA 
HETATM    9  C   UNL     1     -11.402  14.307  66.423  1.00  0.00    -0.343 C  
HETATM   10  O   UNL     1     -12.635  14.314  67.156  1.00  0.00    -0.546 OA 
HETATM   11  C   UNL     1     -11.631  14.536  64.928  1.00  0.00    -0.401 C  
HETATM   12  H   UNL     1     -12.071  12.112  67.715  1.00  0.00     0.000 HD 
HETATM   13  H   UNL     1     -13.041  15.171  67.111  1.00  0.00     0.000 HD 
HETATM   14  O   UNL     1     -10.861  15.685  64.523  1.00  0.00    -0.394 OA 
BRANCH   6  15
HETATM   15  C   UNL     1      -9.636  12.852  67.556  1.00  0.00    -0.200 C  
HETATM   16  O   UNL     1     -10.143  12.302  68.776  1.00  0.00    -0.362 OA 
HETATM   17  H   UNL     1      -9.456  12.261  69.432  1.00  0.00     0.000 HD 
ENDBRANCH   6  15
ENDBRANCH   3   4
TORSDOF 2
ENDMDL
