MODEL      219
REMARK 921   NORMALIZED FREE ENERGY PREDICTED BY IDOCK:   -3.99 KCAL/MOL
REMARK 922        TOTAL FREE ENERGY PREDICTED BY IDOCK:   -9.79 KCAL/MOL
REMARK 923 INTER-LIGAND FREE ENERGY PREDICTED BY IDOCK:   -7.94 KCAL/MOL
REMARK 924 INTRA-LIGAND FREE ENERGY PREDICTED BY IDOCK:   -1.86 KCAL/MOL
REMARK 927      BINDING AFFINITY PREDICTED BY RF-SCORE:    0.00 PKD
ROOT
HETATM    1  C   UNL     1      -9.854   6.084  73.861  1.00  0.00    -0.200 C  
HETATM    2  C   UNL     1     -10.657   5.331  72.813  1.00  0.00    -0.276 C  
ENDROOT
BRANCH   2   3
HETATM    3  C   UNL     1     -11.930   6.039  72.445  1.00  0.00    -0.232 C  
HETATM    4  C   UNL     1     -12.102   6.817  71.363  1.00  0.00    -0.415 C  
BRANCH   4   5
HETATM    5  C   UNL     1     -11.030   7.194  70.380  1.00  0.00    -0.290 C  
BRANCH   5   6
HETATM    6  C   UNL     1     -10.182   8.330  70.882  1.00  0.00    -0.224 C  
HETATM    7  C   UNL     1     -10.556   9.618  70.981  1.00  0.00    -0.362 C  
BRANCH   7   8
HETATM    8  C   UNL     1     -11.898  10.148  70.567  1.00  0.00    -0.408 C  
BRANCH   8   9
HETATM    9  C   UNL     1     -11.806  11.118  69.426  1.00  0.00    -0.415 C  
HETATM   10  C   UNL     1     -11.900  12.457  69.503  1.00  0.00    -0.368 C  
BRANCH  10  11
HETATM   11  C   UNL     1     -12.043  13.285  70.750  1.00  0.00    -0.311 C  
BRANCH  11  12
HETATM   12  C   UNL     1     -12.717  14.608  70.510  1.00  0.00    -0.394 C  
HETATM   13  C   UNL     1     -12.318  15.569  69.662  1.00  0.00    -0.221 C  
BRANCH  13  14
HETATM   14  C   UNL     1     -11.072  15.536  68.841  1.00  0.00    -0.282 C  
BRANCH  14  15
HETATM   15  C   UNL     1     -10.791  16.837  68.143  1.00  0.00    -0.353 C  
HETATM   16  C   UNL     1     -10.383  16.914  66.864  1.00  0.00    -0.304 C  
BRANCH  16  17
HETATM   17  C   UNL     1     -10.099  15.723  65.999  1.00  0.00    -0.359 C  
BRANCH  17  18
HETATM   18  C   UNL     1     -10.950  15.672  64.761  1.00  0.00    -0.418 C  
HETATM   19  C   UNL     1     -11.996  14.835  64.631  1.00  0.00    -0.448 C  
BRANCH  19  20
HETATM   20  C   UNL     1     -12.397  13.893  65.734  1.00  0.00    -0.518 C  
BRANCH  20  21
HETATM   21  C   UNL     1     -12.322  12.414  65.377  1.00  0.00    -0.308 C  
HETATM   22  C   UNL     1     -10.915  11.918  65.630  1.00  0.00    -0.304 C  
HETATM   23  O   UNL     1     -10.589  10.842  64.873  1.00  0.00    -0.302 OA 
HETATM   24  O   UNL     1     -10.140  12.392  66.441  1.00  0.00    -0.227 OA 
ENDBRANCH  20  21
ENDBRANCH  19  20
ENDBRANCH  17  18
ENDBRANCH  16  17
ENDBRANCH  14  15
ENDBRANCH  13  14
ENDBRANCH  11  12
ENDBRANCH  10  11
ENDBRANCH   8   9
ENDBRANCH   7   8
ENDBRANCH   5   6
ENDBRANCH   4   5
ENDBRANCH   2   3
TORSDOF 13
ENDMDL
