MODEL      237
REMARK 921   NORMALIZED FREE ENERGY PREDICTED BY IDOCK:   21.48 KCAL/MOL
REMARK 922        TOTAL FREE ENERGY PREDICTED BY IDOCK:   34.29 KCAL/MOL
REMARK 923 INTER-LIGAND FREE ENERGY PREDICTED BY IDOCK:   27.85 KCAL/MOL
REMARK 924 INTRA-LIGAND FREE ENERGY PREDICTED BY IDOCK:    6.44 KCAL/MOL
REMARK 927      BINDING AFFINITY PREDICTED BY RF-SCORE:    0.00 PKD
ROOT
HETATM    1  O   UNL     1      -7.061  19.356  64.017  1.00  0.00     0.978 OA 
HETATM    2  H   UNL     1      -7.537  18.538  64.098  1.00  0.00     0.000 HD 
HETATM    3  C   UNL     1      -6.590  19.521  62.681  1.00  0.00     2.576 C  
ENDROOT
BRANCH   3   4
HETATM    4  C   UNL     1      -5.823  20.839  62.550  1.00  0.00    -0.239 C  
BRANCH   4   5
HETATM    5  N   UNL     1      -5.281  21.330  63.826  1.00  0.00    -0.208 NA 
HETATM    6  H   UNL     1      -5.560  22.296  64.000  1.00  0.00     0.000 HD 
BRANCH   5   7
HETATM    7  C   UNL     1      -5.648  20.457  64.949  1.00  0.00    -0.191 C  
BRANCH   7   8
HETATM    8  C   UNL     1      -7.167  20.456  65.158  1.00  0.00    -0.013 C  
BRANCH   8   9
HETATM    9  N   UNL     1      -7.500  20.169  66.541  1.00  0.00    -0.274 NA 
HETATM   10  H   UNL     1      -7.745  20.944  67.156  1.00  0.00     0.000 HD 
BRANCH   9  11
HETATM   11  C   UNL     1      -7.500  18.883  67.062  1.00  0.00    -0.216 A  
HETATM   12  C   UNL     1      -6.333  18.381  67.636  1.00  0.00    -0.191 A  
HETATM   13  C   UNL     1      -6.276  17.092  68.138  1.00  0.00    -0.136 A  
HETATM   14  C   UNL     1      -7.356  16.215  68.015  1.00  0.00    -0.129 A  
HETATM   15  H   UNL     1     -12.800  13.545  66.772  1.00  0.00     0.000 HD 
HETATM   16  C   UNL     1      -8.545  16.696  67.407  1.00  0.00    -0.203 A  
HETATM   17  C   UNL     1      -8.636  18.035  66.985  1.00  0.00    -0.254 A  
HETATM   18  C   UNL     1     -13.410  17.230  65.600  1.00  0.00    11.296 A  
HETATM   19  O   UNL     1      -9.644  14.590  67.464  1.00  0.00    -0.206 OA 
HETATM   20  C   UNL     1     -12.321  18.095  65.728  1.00  0.00     6.955 A  
HETATM   21  C   UNL     1      -9.948  18.573  66.513  1.00  0.00    -0.380 C  
HETATM   22  O   UNL     1     -10.102  19.785  66.403  1.00  0.00    -0.412 OA 
HETATM   23  C   UNL     1     -13.288  15.906  65.997  1.00  0.00     4.380 A  
HETATM   24  C   UNL     1     -11.093  17.655  66.283  1.00  0.00     0.517 A  
HETATM   25  O   UNL     1     -12.056  14.128  66.867  1.00  0.00    -0.430 OA 
HETATM   26  H   UNL     1     -13.303  19.682  64.948  1.00  0.00     0.000 HD 
HETATM   27  C   UNL     1     -10.974  16.316  66.655  1.00  0.00    -0.016 A  
HETATM   28  O   UNL     1     -12.480  19.387  65.320  1.00  0.00     5.417 OA 
HETATM   29  C   UNL     1     -12.079  15.451  66.514  1.00  0.00     0.600 A  
HETATM   30  C   UNL     1      -9.713  15.795  67.214  1.00  0.00    -0.223 C  
BRANCH  14  31
HETATM   31  N   UNL     1      -7.252  14.956  68.579  1.00  0.00    -0.108 NA 
HETATM   32  H   UNL     1      -7.671  14.797  69.495  1.00  0.00     0.000 HD 
BRANCH  31  33
HETATM   33  C   UNL     1      -6.574  13.847  67.923  1.00  0.00    -0.161 C  
BRANCH  33  34
HETATM   34  C   UNL     1      -7.568  12.723  67.584  1.00  0.00    -0.152 C  
BRANCH  34  35
HETATM   35  N   UNL     1      -6.904  11.617  66.879  1.00  0.00    -0.227 NA 
HETATM   36  H   UNL     1      -6.477  10.955  67.527  1.00  0.00     0.000 HD 
BRANCH  35  37
HETATM   37  C   UNL     1      -7.844  10.957  65.963  1.00  0.00    -0.121 C  
BRANCH  37  38
HETATM   38  C   UNL     1      -9.255  10.947  66.557  1.00  0.00    -0.171 C  
HETATM   39  O   UNL     1      -9.830   9.647  66.450  1.00  0.00    -0.208 OA 
HETATM   40  H   UNL     1     -10.706   9.641  66.818  1.00  0.00     0.000 HD 
ENDBRANCH  37  38
ENDBRANCH  35  37
ENDBRANCH  34  35
ENDBRANCH  33  34
ENDBRANCH  31  33
ENDBRANCH  14  31
ENDBRANCH   9  11
ENDBRANCH   8   9
ENDBRANCH   7   8
ENDBRANCH   5   7
ENDBRANCH   4   5
ENDBRANCH   3   4
TORSDOF 12
ENDMDL
