MODEL       25
REMARK 921   NORMALIZED FREE ENERGY PREDICTED BY IDOCK:   -7.14 KCAL/MOL
REMARK 922        TOTAL FREE ENERGY PREDICTED BY IDOCK:  -11.73 KCAL/MOL
REMARK 923 INTER-LIGAND FREE ENERGY PREDICTED BY IDOCK:  -10.52 KCAL/MOL
REMARK 924 INTRA-LIGAND FREE ENERGY PREDICTED BY IDOCK:   -1.22 KCAL/MOL
REMARK 927      BINDING AFFINITY PREDICTED BY RF-SCORE:    0.00 PKD
ROOT
HETATM    1  C   UNL     1     -11.783  11.279  68.866  1.00  0.00    -0.341 C  
HETATM    2  S   UNL     1     -12.174  12.838  69.611  1.00  0.00    -0.043 SA 
HETATM    3  C   UNL     1     -12.012  14.041  68.239  1.00  0.00    -0.349 C  
HETATM    4  C   UNL     1     -11.698  13.544  66.857  1.00  0.00    -0.424 C  
HETATM    5  CA  UNL     1     -11.483  12.230  66.542  1.00  0.00    -0.381 C  
HETATM    6  CA  UNL     1     -10.642  10.212  69.152  1.00  0.00    -0.224 C  
HETATM    7  C   UNL     1     -10.697  10.079  67.598  1.00  0.00    -0.284 C  
HETATM    8  N   UNL     1     -11.381  11.249  67.491  1.00  0.00    -0.299 N  
HETATM    9  C   UNL     1     -11.338  11.842  65.094  1.00  0.00    -0.269 C  
HETATM   10  O   UNL     1     -10.104   9.390  66.804  1.00  0.00    -0.222 OA 
HETATM   11  O   UNL     1     -10.438  10.889  64.785  1.00  0.00    -0.328 OA 
HETATM   12  OXT UNL     1     -12.019  12.348  64.215  1.00  0.00    -0.362 OA 
ENDROOT
BRANCH   4  13
HETATM   13  C   UNL     1     -11.546  14.646  65.765  1.00  0.00    -0.328 C  
BRANCH  13  14
HETATM   14  S   UNL     1      -9.938  15.499  65.520  1.00  0.00    -0.313 SA 
BRANCH  14  15
HETATM   15  C   UNL     1      -9.918  16.878  66.645  1.00  0.00    -0.296 C  
HETATM   16  N   UNL     1     -10.394  17.974  66.168  1.00  0.00    -0.396 N  
HETATM   17  H   UNL     1     -10.854  18.006  65.258  1.00  0.00     0.000 HD 
HETATM   18  C   UNL     1      -8.602  15.578  68.402  1.00  0.00    -0.168 C  
HETATM   19  C   UNL     1     -10.253  19.104  66.946  1.00  0.00    -0.395 C  
HETATM   20  N   UNL     1      -9.313  16.740  67.898  1.00  0.00    -0.227 NA 
HETATM   21  C   UNL     1      -9.965  19.006  68.443  1.00  0.00    -0.408 C  
HETATM   22  O   UNL     1     -10.237  20.246  66.484  1.00  0.00    -0.430 OA 
HETATM   23  H   UNL     1      -8.761  17.812  69.641  1.00  0.00     0.000 HD 
HETATM   24  N   UNL     1      -9.287  17.859  68.768  1.00  0.00    -0.265 N  
HETATM   25  O   UNL     1     -10.254  19.873  69.253  1.00  0.00    -0.374 OA 
ENDBRANCH  14  15
ENDBRANCH  13  14
ENDBRANCH   4  13
BRANCH   6  26
HETATM   26  N   UNL     1      -9.195  10.283  69.660  1.00  0.00    -0.369 N  
HETATM   27  O   UNL     1      -7.289   9.899  70.847  1.00  0.00    -0.328 OA 
HETATM   28  C   UNL     1      -8.445   9.559  70.602  1.00  0.00    -0.115 C  
HETATM   29  H   UNL     1      -8.656  11.024  69.213  1.00  0.00     0.000 HD 
BRANCH  28  30
HETATM   30  C   UNL     1      -8.925   8.260  71.189  1.00  0.00    -0.158 C  
BRANCH  30  31
HETATM   31  C   UNL     1     -10.318   7.976  71.560  1.00  0.00    -0.209 A  
HETATM   32  H2  UNL     1     -14.430   8.907  72.286  1.00  0.00     0.000 HD 
HETATM   33  C   UNL     1     -10.967   6.834  71.118  1.00  0.00    -0.257 A  
HETATM   34  H1  UNL     1     -13.354  10.208  72.796  1.00  0.00     0.000 HD 
HETATM   35  N   UNL     1     -11.186   8.955  72.070  1.00  0.00    -0.368 NA 
HETATM   36  N   UNL     1     -13.487   9.280  72.395  1.00  0.00    -0.471 NA 
HETATM   37  S   UNL     1     -12.657   6.979  71.336  1.00  0.00    -0.361 SA 
HETATM   38  C   UNL     1     -12.433   8.544  72.011  1.00  0.00    -0.363 A  
ENDBRANCH  30  31
BRANCH  30  39
HETATM   39  N   UNL     1      -8.128   7.346  71.634  1.00  0.00    -0.098 NA 
HETATM   40  H   UNL     1      -7.630   6.757  70.967  1.00  0.00     0.000 HD 
BRANCH  39  41
HETATM   41  O   UNL     1      -7.928   7.139  72.999  1.00  0.00    -0.099 OA 
HETATM   42  C   UNL     1      -7.717   8.208  73.901  1.00  0.00    -0.192 C  
ENDBRANCH  39  41
ENDBRANCH  30  39
ENDBRANCH  28  30
ENDBRANCH   6  26
TORSDOF 8
ENDMDL
