MODEL       61
REMARK 921   NORMALIZED FREE ENERGY PREDICTED BY IDOCK:   -5.84 KCAL/MOL
REMARK 922        TOTAL FREE ENERGY PREDICTED BY IDOCK:   -9.95 KCAL/MOL
REMARK 923 INTER-LIGAND FREE ENERGY PREDICTED BY IDOCK:   -9.43 KCAL/MOL
REMARK 924 INTRA-LIGAND FREE ENERGY PREDICTED BY IDOCK:   -0.51 KCAL/MOL
REMARK 927      BINDING AFFINITY PREDICTED BY RF-SCORE:    0.00 PKD
ROOT
HETATM    1  C   UNL     1     -11.951  15.579  70.812  1.00  0.00    -0.378 C  
HETATM    2  N   UNL     1     -12.193  15.353  69.395  1.00  0.00    -0.566 NA 
HETATM    3  H   UNL     1     -12.911  15.989  69.049  1.00  0.00     0.000 HD 
ENDROOT
BRANCH   2   4
HETATM    4  C   UNL     1     -10.983  15.437  68.563  1.00  0.00    -0.278 C  
BRANCH   4   5
HETATM    5  C   UNL     1     -11.141  14.977  67.089  1.00  0.00    -0.332 C  
HETATM    6  C   UNL     1     -11.270  16.120  66.099  1.00  0.00     0.225 C  
HETATM    7  C   UNL     1     -11.367  15.546  64.685  1.00  0.00    -0.363 C  
HETATM    8  C   UNL     1     -12.380  14.385  64.580  1.00  0.00    -0.418 C  
HETATM    9  C   UNL     1     -12.353  13.372  65.811  1.00  0.00    -0.460 C  
HETATM   10  N   UNL     1     -12.295  13.791  63.225  1.00  0.00    -1.124 NA 
HETATM   11  O   UNL     1     -12.330  14.158  66.999  1.00  0.00    -0.396 OA 
HETATM   12  H1  UNL     1     -12.964  13.025  63.155  1.00  0.00     0.000 HD 
HETATM   13  H2  UNL     1     -11.347  13.501  62.986  1.00  0.00     0.000 HD 
BRANCH   9  14
HETATM   14  O   UNL     1     -11.314  12.364  65.796  1.00  0.00    -0.320 OA 
BRANCH  14  15
HETATM   15  C   UNL     1     -10.545  12.106  67.045  1.00  0.00    -0.228 C  
HETATM   16  C   UNL     1      -9.005  12.028  66.856  1.00  0.00    -0.199 C  
HETATM   17  N   UNL     1      -8.445  13.370  66.599  1.00  0.00    -0.426 NA 
HETATM   18  C   UNL     1      -8.289  11.466  68.101  1.00  0.00    -0.149 C  
HETATM   19  H2  UNL     1      -8.703  14.035  67.329  1.00  0.00     0.000 HD 
HETATM   20  H1  UNL     1      -7.434  13.318  66.475  1.00  0.00     0.000 HD 
HETATM   21  C   UNL     1      -8.828  10.093  68.531  1.00  0.00    -0.127 C  
HETATM   22  N   UNL     1      -7.983   9.516  69.582  1.00  0.00    -0.106 NA 
HETATM   23  C   UNL     1     -10.291  10.200  69.001  1.00  0.00    -0.212 C  
HETATM   24  C   UNL     1     -11.117  10.923  67.892  1.00  0.00    -0.302 C  
HETATM   25  O   UNL     1     -12.402  11.306  68.435  1.00  0.00    -0.593 OA 
HETATM   26  H1  UNL     1      -8.341   8.604  69.868  1.00  0.00     0.000 HD 
HETATM   27  H2  UNL     1      -7.880  10.148  70.376  1.00  0.00     0.000 HD 
HETATM   28  H   UNL     1     -12.751  10.587  68.950  1.00  0.00     0.000 HD 
BRANCH  23  29
HETATM   29  O   UNL     1     -10.869   8.869  69.129  1.00  0.00    -0.182 OA 
BRANCH  29  30
HETATM   30  C   UNL     1     -10.955   8.181  70.393  1.00  0.00    -0.247 C  
HETATM   31  O   UNL     1     -10.380   8.865  71.509  1.00  0.00    -0.267 OA 
HETATM   32  C   UNL     1     -10.636   8.185  72.748  1.00  0.00    -0.316 C  
HETATM   33  C   UNL     1     -10.014   6.765  72.808  1.00  0.00    -0.173 C  
HETATM   34  C   UNL     1     -10.586   5.926  71.633  1.00  0.00    -0.241 C  
HETATM   35  O   UNL     1      -8.588   6.879  72.673  1.00  0.00    -0.120 OA 
HETATM   36  C   UNL     1     -10.317   6.148  74.182  1.00  0.00    -0.308 C  
HETATM   37  H   UNL     1     -10.847   5.047  69.199  1.00  0.00     0.000 HD 
HETATM   38  H   UNL     1      -8.207   6.009  72.710  1.00  0.00     0.000 HD 
HETATM   39  C   UNL     1     -10.440   6.697  70.276  1.00  0.00    -0.209 C  
HETATM   40  O   UNL     1     -11.158   5.942  69.270  1.00  0.00    -0.360 OA 
BRANCH  34  41
HETATM   41  N   UNL     1     -10.215   4.483  71.512  1.00  0.00    -0.163 NA 
HETATM   42  C   UNL     1      -8.903   4.164  70.976  1.00  0.00    -0.094 C  
HETATM   43  H   UNL     1     -10.861   3.747  71.796  1.00  0.00     0.000 HD 
ENDBRANCH  34  41
ENDBRANCH  29  30
ENDBRANCH  23  29
ENDBRANCH  14  15
ENDBRANCH   9  14
ENDBRANCH   4   5
ENDBRANCH   2   4
TORSDOF 7
ENDMDL
