MODEL      194
REMARK 921   NORMALIZED FREE ENERGY PREDICTED BY IDOCK:   -5.55 KCAL/MOL
REMARK 922        TOTAL FREE ENERGY PREDICTED BY IDOCK:  -11.30 KCAL/MOL
REMARK 923 INTER-LIGAND FREE ENERGY PREDICTED BY IDOCK:   -9.46 KCAL/MOL
REMARK 924 INTRA-LIGAND FREE ENERGY PREDICTED BY IDOCK:   -1.84 KCAL/MOL
REMARK 927      BINDING AFFINITY PREDICTED BY RF-SCORE:    0.00 PKD
ROOT
HETATM    1 CA   UNL     1      -9.247  11.458  69.953  1.00  0.00    -0.368 Ca 
HETATM    2  O   UNL     2     -10.746   6.693  67.131  1.00  0.00    -0.282 OA 
HETATM    3  O   UNL     3     -11.973  16.349  72.816  1.00  0.00    -0.531 OA 
HETATM    4  H   UNL     2     -10.589   6.946  66.229  1.00  0.00     0.000 HD 
HETATM    5  C   UNL     2     -10.481   7.810  67.978  1.00  0.00    -0.185 C  
HETATM    6  C   UNL     3     -11.398  15.966  71.570  1.00  0.00    -0.309 C  
HETATM    7  H   UNL     3     -11.575  17.153  73.128  1.00  0.00     0.000 HD 
ENDROOT
BRANCH   5   8
HETATM    8  C   UNL     2     -10.737   7.398  69.443  1.00  0.00    -0.211 C  
HETATM    9  O   UNL     2     -11.840   6.499  69.463  1.00  0.00    -0.649 OA 
HETATM   10  H   UNL     2     -11.998   6.245  70.365  1.00  0.00     0.000 HD 
BRANCH   8  11
HETATM   11  C   UNL     2      -9.520   6.672  70.040  1.00  0.00    -0.157 C  
HETATM   12  H   UNL     2      -7.645   6.187  69.506  1.00  0.00     0.000 HD 
HETATM   13  O   UNL     2      -8.397   6.635  69.137  1.00  0.00    -0.122 OA 
BRANCH  11  14
HETATM   14  C   UNL     2      -9.015   7.061  71.451  1.00  0.00    -0.139 C  
HETATM   15  O   UNL     2      -7.818   7.816  71.347  1.00  0.00    -0.085 OA 
HETATM   16  H   UNL     2      -7.508   8.055  72.214  1.00  0.00     0.000 HD 
BRANCH  14  17
HETATM   17  C   UNL     2      -9.006   5.973  72.541  1.00  0.00    -0.132 C  
HETATM   18  H   UNL     2      -7.797   5.476  73.992  1.00  0.00     0.000 HD 
HETATM   19  O   UNL     2      -7.802   6.148  73.320  1.00  0.00    -0.100 OA 
BRANCH  17  20
HETATM   20  C   UNL     2     -10.249   5.903  73.427  1.00  0.00    -0.212 C  
HETATM   21  O   UNL     2     -11.177   6.968  73.122  1.00  0.00    -0.483 OA 
HETATM   22  C   UNL     2     -10.931   4.530  73.169  1.00  0.00    -0.264 C  
HETATM   23  H   UNL     2     -11.949   6.925  73.673  1.00  0.00     0.000 HD 
HETATM   24  O   UNL     2     -10.126   3.569  73.041  1.00  0.00    -0.135 OA 
HETATM   25  O   UNL     2     -12.188   4.600  73.104  1.00  0.00    -0.035 OA 
ENDBRANCH  17  20
ENDBRANCH  14  17
ENDBRANCH  11  14
ENDBRANCH   8  11
ENDBRANCH   5   8
BRANCH   6  26
HETATM   26  C   UNL     3     -12.042  14.667  71.066  1.00  0.00    -0.329 C  
HETATM   27  H   UNL     3     -13.431  13.511  71.710  1.00  0.00     0.000 HD 
HETATM   28  O   UNL     3     -13.033  14.314  72.022  1.00  0.00    -0.322 OA 
BRANCH  26  29
HETATM   29  C   UNL     3     -12.602  14.809  69.626  1.00  0.00    -0.062 C  
HETATM   30  O   UNL     3     -12.049  16.053  69.008  1.00  0.00    -0.451 OA 
HETATM   31  H   UNL     3     -12.392  16.139  68.127  1.00  0.00     0.000 HD 
BRANCH  29  32
HETATM   32  C   UNL     3     -12.124  13.713  68.648  1.00  0.00    -0.290 C  
HETATM   33  H   UNL     3     -11.186  11.992  68.845  1.00  0.00     0.000 HD 
HETATM   34  O   UNL     3     -11.480  12.667  69.446  1.00  0.00    -0.276 OA 
BRANCH  32  35
HETATM   35  C   UNL     3     -11.472  13.972  67.282  1.00  0.00    -0.348 C  
HETATM   36  H   UNL     3      -9.697  14.467  66.692  1.00  0.00     0.000 HD 
HETATM   37  O   UNL     3     -10.101  14.307  67.537  1.00  0.00    -0.233 OA 
BRANCH  35  38
HETATM   38  C   UNL     3     -11.613  12.873  66.235  1.00  0.00    -0.372 C  
HETATM   39  C   UNL     3     -12.705  13.243  65.197  1.00  0.00    -0.402 C  
HETATM   40  O   UNL     3     -11.971  11.619  66.850  1.00  0.00    -0.567 OA 
HETATM   41  O   UNL     3     -13.229  14.394  65.325  1.00  0.00    -0.619 OA 
HETATM   42  O   UNL     3     -13.098  12.265  64.503  1.00  0.00    -0.791 OA 
HETATM   43  H   UNL     3     -12.059  10.933  66.198  1.00  0.00     0.000 HD 
ENDBRANCH  35  38
ENDBRANCH  32  35
ENDBRANCH  29  32
ENDBRANCH  26  29
ENDBRANCH   6  26
TORSDOF 10
ENDMDL
