MODEL      253
REMARK 921   NORMALIZED FREE ENERGY PREDICTED BY IDOCK:   -3.31 KCAL/MOL
REMARK 922        TOTAL FREE ENERGY PREDICTED BY IDOCK:   -4.52 KCAL/MOL
REMARK 923 INTER-LIGAND FREE ENERGY PREDICTED BY IDOCK:   -5.01 KCAL/MOL
REMARK 924 INTRA-LIGAND FREE ENERGY PREDICTED BY IDOCK:    0.49 KCAL/MOL
REMARK 927      BINDING AFFINITY PREDICTED BY RF-SCORE:    0.00 PKD
ROOT
HETATM    1  C   UNL     1      -7.835   3.599  68.120  1.00  0.00    -0.068 C  
HETATM    2  O   UNL     1      -9.170   4.095  68.068  1.00  0.00    -0.127 OA 
ENDROOT
BRANCH   2   3
HETATM    3  C   UNL     1      -9.304   5.452  67.918  1.00  0.00    -0.113 A  
HETATM    4  C   UNL     1      -8.382   6.287  67.296  1.00  0.00    -0.109 A  
HETATM    5  C   UNL     1      -8.617   7.660  67.222  1.00  0.00    -0.121 A  
HETATM    6  C   UNL     1      -9.786   8.227  67.752  1.00  0.00    -0.194 A  
HETATM    7  C   UNL     1     -10.477   6.002  68.439  1.00  0.00    -0.290 A  
HETATM    8  C   UNL     1     -10.718   7.377  68.359  1.00  0.00    -0.142 A  
BRANCH   6   9
HETATM    9  C   UNL     1     -10.006   9.729  67.668  1.00  0.00    -0.217 C  
HETATM   10  C   UNL     1      -8.804  10.608  67.174  1.00  0.00    -0.137 C  
HETATM   11  C   UNL     1      -8.532  10.308  65.688  1.00  0.00    -0.165 C  
HETATM   12  C   UNL     1      -7.543  10.350  68.023  1.00  0.00    -0.091 C  
HETATM   13  N   UNL     1      -9.219  12.028  67.315  1.00  0.00    -0.177 NA 
HETATM   14  H   UNL     1      -9.504  12.214  68.277  1.00  0.00     0.000 HD 
BRANCH  13  15
HETATM   15  C   UNL     1      -8.222  13.032  66.881  1.00  0.00     0.021 C  
BRANCH  15  16
HETATM   16  C   UNL     1      -8.488  14.450  67.443  1.00  0.00    -0.203 C  
HETATM   17  H   UNL     1      -8.933  15.247  69.193  1.00  0.00     0.000 HD 
HETATM   18  O   UNL     1      -8.770  14.377  68.848  1.00  0.00    -0.154 OA 
BRANCH  16  19
HETATM   19  C   UNL     1      -9.582  15.176  66.691  1.00  0.00    -0.272 A  
HETATM   20  C   UNL     1      -9.601  16.579  66.619  1.00  0.00    -0.258 A  
HETATM   21  O   UNL     1      -8.624  17.261  67.299  1.00  0.00    -0.198 OA 
HETATM   22  C   UNL     1      -8.464  18.610  66.878  1.00  0.00    -0.273 C  
HETATM   23  C   UNL     1      -9.733  19.386  66.548  1.00  0.00    -0.375 C  
HETATM   24  O   UNL     1      -9.853  20.598  66.704  1.00  0.00    -0.349 OA 
HETATM   25  N   UNL     1     -10.710  18.631  65.957  1.00  0.00    -0.345 N  
HETATM   26  H   UNL     1     -11.513  19.096  65.533  1.00  0.00     0.000 HD 
HETATM   27  C   UNL     1     -10.629  17.235  65.924  1.00  0.00    -0.204 A  
HETATM   28  C   UNL     1     -11.608  16.510  65.246  1.00  0.00     0.629 A  
HETATM   29  C   UNL     1     -11.561  15.122  65.282  1.00  0.00    -0.206 A  
HETATM   30  O   UNL     1     -12.479  14.354  64.632  1.00  0.00    -0.566 OA 
HETATM   31  C   UNL     1     -10.569  14.457  65.998  1.00  0.00    -0.304 A  
HETATM   32  H   UNL     1     -12.447  13.405  64.656  1.00  0.00     0.000 HD 
ENDBRANCH  16  19
ENDBRANCH  15  16
ENDBRANCH  13  15
ENDBRANCH   6   9
ENDBRANCH   2   3
TORSDOF 5
ENDMDL
