MODEL      229
REMARK 921   NORMALIZED FREE ENERGY PREDICTED BY IDOCK:    1.03 KCAL/MOL
REMARK 922        TOTAL FREE ENERGY PREDICTED BY IDOCK:    0.29 KCAL/MOL
REMARK 923 INTER-LIGAND FREE ENERGY PREDICTED BY IDOCK:   -2.30 KCAL/MOL
REMARK 924 INTRA-LIGAND FREE ENERGY PREDICTED BY IDOCK:    2.59 KCAL/MOL
REMARK 927      BINDING AFFINITY PREDICTED BY RF-SCORE:    0.00 PKD
ROOT
HETATM    1  F   UNL     1      -5.340  12.487  69.822  1.00  0.00    -0.070 F  
HETATM    2  C   UNL     1      -6.152  11.590  69.247  1.00  0.00    -0.068 A  
HETATM    3  C   UNL     1      -7.295  11.172  69.917  1.00  0.00     0.267 A  
HETATM    4  C   UNL     1      -8.128  10.214  69.333  1.00  0.00    -0.163 A  
HETATM    5  C   UNL     1      -7.825   9.670  68.070  1.00  0.00    -0.086 A  
HETATM    6  C   UNL     1      -6.681  10.143  67.397  1.00  0.00    -0.073 A  
HETATM    7  C   UNL     1      -5.843  11.094  67.988  1.00  0.00    -0.042 A  
ENDROOT
BRANCH   5   8
HETATM    8  C   UNL     1      -8.734   8.590  67.456  1.00  0.00    -0.135 C  
BRANCH   8   9
HETATM    9  N   UNL     1      -9.813   9.177  66.612  1.00  0.00    -0.218 NA 
HETATM   10  C   UNL     1      -9.312  10.207  65.645  1.00  0.00    -0.199 C  
HETATM   11  C   UNL     1      -9.054  11.641  66.196  1.00  0.00    -0.203 C  
HETATM   12  C   UNL     1     -10.915   9.802  67.394  1.00  0.00    -0.106 C  
HETATM   13  C   UNL     1     -10.590  11.174  68.024  1.00  0.00    -0.198 C  
HETATM   14  N   UNL     1     -10.232  12.101  66.945  1.00  0.00    -0.208 NA 
BRANCH  14  15
HETATM   15  C   UNL     1     -10.124  13.437  67.333  1.00  0.00    -0.237 A  
HETATM   16  N   UNL     1      -9.214  13.760  68.240  1.00  0.00    -0.202 NA 
HETATM   17  C   UNL     1      -9.166  15.031  68.603  1.00  0.00    -0.198 A  
HETATM   18  N   UNL     1     -10.946  14.323  66.777  1.00  0.00    -0.299 NA 
HETATM   19  N   UNL     1      -9.991  15.963  68.152  1.00  0.00    -0.221 NA 
HETATM   20  C   UNL     1     -10.840  15.576  67.211  1.00  0.00    -0.313 A  
BRANCH  17  21
HETATM   21  N   UNL     1      -8.162  15.461  69.450  1.00  0.00    -0.249 NA 
HETATM   22  H   UNL     1      -8.149  15.197  70.435  1.00  0.00     0.000 HD 
BRANCH  21  23
HETATM   23  C   UNL     1      -7.137  16.296  68.882  1.00  0.00    -0.182 C  
BRANCH  23  24
HETATM   24  C   UNL     1      -7.439  17.691  69.332  1.00  0.00     0.137 C  
HETATM   25  C   UNL     1      -7.062  18.806  68.690  1.00  0.00    -0.321 C  
ENDBRANCH  23  24
ENDBRANCH  21  23
ENDBRANCH  17  21
BRANCH  20  26
HETATM   26  N   UNL     1     -11.554  16.596  66.612  1.00  0.00     0.866 NA 
HETATM   27  H   UNL     1     -11.914  16.486  65.663  1.00  0.00     0.000 HD 
BRANCH  26  28
HETATM   28  C   UNL     1     -11.786  17.819  67.342  1.00  0.00     1.666 C  
BRANCH  28  29
HETATM   29  C   UNL     1     -10.477  18.557  67.449  1.00  0.00    -0.455 C  
HETATM   30  C   UNL     1      -9.598  18.714  66.448  1.00  0.00    -0.338 C  
ENDBRANCH  28  29
ENDBRANCH  26  28
ENDBRANCH  20  26
ENDBRANCH  14  15
ENDBRANCH   8   9
BRANCH   8  31
HETATM   31  C   UNL     1      -7.868   7.527  66.736  1.00  0.00    -0.110 A  
HETATM   32  C   UNL     1      -6.225   5.580  65.547  1.00  0.00    -0.034 A  
HETATM   33  C   UNL     1      -7.602   5.421  65.537  1.00  0.00    -0.082 A  
HETATM   34  F   UNL     1      -5.441   4.628  65.020  1.00  0.00    -0.012 F  
HETATM   35  C   UNL     1      -6.469   7.685  66.693  1.00  0.00    -0.053 A  
HETATM   36  C   UNL     1      -8.421   6.395  66.115  1.00  0.00    -0.140 A  
HETATM   37  C   UNL     1      -5.651   6.712  66.106  1.00  0.00    -0.018 A  
ENDBRANCH   8  31
ENDBRANCH   5   8
TORSDOF 10
ENDMDL
