MODEL      280
REMARK 921   NORMALIZED FREE ENERGY PREDICTED BY IDOCK:    3.33 KCAL/MOL
REMARK 922        TOTAL FREE ENERGY PREDICTED BY IDOCK:    3.72 KCAL/MOL
REMARK 923 INTER-LIGAND FREE ENERGY PREDICTED BY IDOCK:    0.66 KCAL/MOL
REMARK 924 INTRA-LIGAND FREE ENERGY PREDICTED BY IDOCK:    3.06 KCAL/MOL
REMARK 927      BINDING AFFINITY PREDICTED BY RF-SCORE:    0.00 PKD
ROOT
HETATM    1  C   UNL     1      -7.478  10.781  69.464  1.00  0.00    -0.110 C  
HETATM    2  S   UNL     1      -6.790  10.551  67.811  1.00  0.00    -0.074 SA 
HETATM    3  C   UNL     1      -7.722  11.915  67.076  1.00  0.00    -0.146 C  
HETATM    4  C   UNL     1      -9.196  11.989  67.463  1.00  0.00    -0.180 C  
HETATM    5  C   UNL     1      -9.025   9.695  70.350  1.00  0.00    -0.187 C  
HETATM    6  CA  UNL     1      -9.735  11.349  68.545  1.00  0.00    -0.197 C  
HETATM    7  C   UNL     1     -11.233  11.402  68.778  1.00  0.00    -0.247 C  
HETATM    8  CA  UNL     1      -7.467   9.510  70.384  1.00  0.00    -0.151 C  
HETATM    9  N   UNL     1      -8.918  10.642  69.395  1.00  0.00    -0.093 N  
HETATM   10  O   UNL     1     -11.776  10.445  69.551  1.00  0.00    -0.241 OA 
HETATM   11  OXT UNL     1     -11.958  12.260  68.292  1.00  0.00    -0.336 OA 
HETATM   12  O   UNL     1     -10.013   9.171  70.814  1.00  0.00    -0.225 OA 
ENDROOT
BRANCH   4  13
HETATM   13  C   UNL     1     -10.006  12.711  66.378  1.00  0.00    -0.255 C  
BRANCH  13  14
HETATM   14  S   UNL     1      -9.077  14.033  65.521  1.00  0.00     1.157 SA 
BRANCH  14  15
HETATM   15  C   UNL     1      -8.595  14.977  66.893  1.00  0.00    -0.249 A  
HETATM   16  N   UNL     1      -7.356  15.133  67.306  1.00  0.00    -0.202 NA 
HETATM   17  N   UNL     1      -7.411  15.978  68.385  1.00  0.00    -0.138 NA 
HETATM   18  N   UNL     1      -9.415  15.706  67.714  1.00  0.00    -0.207 NA 
HETATM   19  N   UNL     1      -8.658  16.343  68.636  1.00  0.00    -0.225 NA 
BRANCH  18  20
HETATM   20  C   UNL     1     -10.817  16.005  67.661  1.00  0.00    -0.311 C  
HETATM   21  O   UNL     1     -12.812  16.574  66.053  1.00  0.00     3.984 OA 
HETATM   22  O   UNL     1     -10.746  15.706  65.090  1.00  0.00    -0.397 OA 
HETATM   23  O   UNL     1     -10.752  18.033  65.958  1.00  0.00    -0.319 OA 
HETATM   24  S   UNL     1     -11.382  16.748  66.151  1.00  0.00     0.961 S  
ENDBRANCH  18  20
ENDBRANCH  14  15
ENDBRANCH  13  14
ENDBRANCH   4  13
BRANCH   8  25
HETATM   25  N   UNL     1      -6.968   8.259  69.761  1.00  0.00    -0.047 N  
HETATM   26  C   UNL     1      -7.571   7.620  68.698  1.00  0.00    -0.109 C  
HETATM   27  H   UNL     1      -6.120   7.843  70.146  1.00  0.00     0.000 HD 
HETATM   28  O   UNL     1      -8.623   7.999  68.194  1.00  0.00    -0.126 OA 
BRANCH  26  29
HETATM   29  C   UNL     1      -6.771   6.394  68.203  1.00  0.00    -0.068 C  
HETATM   30  O   UNL     1      -5.406   6.768  67.963  1.00  0.00    -0.010 OA 
HETATM   31  H   UNL     1      -4.914   6.014  67.659  1.00  0.00     0.000 HD 
BRANCH  29  32
HETATM   32  C   UNL     1      -7.359   5.799  66.941  1.00  0.00    -0.079 A  
HETATM   33  C   UNL     1      -7.650   6.627  65.845  1.00  0.00    -0.087 A  
HETATM   34  C   UNL     1      -7.609   4.421  66.824  1.00  0.00    -0.086 A  
HETATM   35  C   UNL     1      -8.161   3.892  65.657  1.00  0.00    -0.105 A  
HETATM   36  C   UNL     1      -8.463   4.729  64.586  1.00  0.00    -0.139 A  
HETATM   37  C   UNL     1      -8.203   6.095  64.679  1.00  0.00    -0.094 A  
ENDBRANCH  29  32
ENDBRANCH  26  29
ENDBRANCH   8  25
TORSDOF 7
ENDMDL
