MODEL        6
REMARK 921   NORMALIZED FREE ENERGY PREDICTED BY IDOCK:   -8.16 KCAL/MOL
REMARK 922        TOTAL FREE ENERGY PREDICTED BY IDOCK:  -11.55 KCAL/MOL
REMARK 923 INTER-LIGAND FREE ENERGY PREDICTED BY IDOCK:  -10.41 KCAL/MOL
REMARK 924 INTRA-LIGAND FREE ENERGY PREDICTED BY IDOCK:   -1.13 KCAL/MOL
REMARK 927      BINDING AFFINITY PREDICTED BY RF-SCORE:    0.00 PKD
ROOT
HETATM    1  C   UNL     1      -9.402   7.585  73.057  1.00  0.00    -0.242 C  
HETATM    2  C   UNL     1     -10.165   8.490  72.167  1.00  0.00    -0.333 A  
HETATM    3  N   UNL     1      -9.754   9.013  71.028  1.00  0.00    -0.253 NA 
HETATM    4  C   UNL     1     -10.793   9.794  70.588  1.00  0.00    -0.329 A  
HETATM    5  H   UNL     1      -8.855   8.868  70.572  1.00  0.00     0.000 HD 
HETATM    6  C   UNL     1     -11.862   9.703  71.443  1.00  0.00    -0.406 A  
HETATM    7  N   UNL     1     -11.452   8.880  72.454  1.00  0.00    -0.242 NA 
HETATM    8  C   UNL     1     -13.177  10.362  71.326  1.00  0.00    -0.431 C  
HETATM    9  C   UNL     1     -12.979  11.877  71.283  1.00  0.00    -0.236 C  
HETATM   10  N   UNL     1     -12.131  12.472  70.235  1.00  0.00    -0.341 N  
HETATM   11  C   UNL     1     -11.633  11.684  69.140  1.00  0.00    -0.314 A  
HETATM   12  C   UNL     1     -11.945  13.874  70.375  1.00  0.00    -0.323 C  
HETATM   13  C   UNL     1     -11.778  12.173  67.829  1.00  0.00    -0.390 A  
HETATM   14  O   UNL     1     -12.528  14.501  71.266  1.00  0.00    -0.306 OA 
HETATM   15  C   UNL     1     -10.858  10.510  69.331  1.00  0.00    -0.291 A  
HETATM   16  C   UNL     1     -11.048  11.630  66.765  1.00  0.00    -0.366 A  
HETATM   17  C   UNL     1     -10.125   9.982  68.253  1.00  0.00    -0.182 A  
HETATM   18  C   UNL     1     -10.194  10.556  66.985  1.00  0.00    -0.275 A  
ENDROOT
BRANCH  12  19
HETATM   19  C   UNL     1     -11.077  14.679  69.460  1.00  0.00    -0.294 A  
HETATM   20  C   UNL     1      -9.692  14.503  69.565  1.00  0.00     0.193 A  
HETATM   21  C   UNL     1      -9.299  16.417  68.129  1.00  0.00    -0.209 A  
HETATM   22  C   UNL     1     -10.680  16.549  67.963  1.00  0.00    -0.343 A  
HETATM   23  C   UNL     1      -8.811  15.355  68.890  1.00  0.00    -0.211 A  
HETATM   24  C   UNL     1     -11.557  15.631  68.558  1.00  0.00    -0.378 A  
BRANCH  21  25
HETATM   25  N   UNL     1      -8.456  17.386  67.540  1.00  0.00    -0.212 N  
HETATM   26  C   UNL     1      -8.489  18.746  67.835  1.00  0.00    -0.292 C  
HETATM   27  H   UNL     1      -7.775  17.067  66.851  1.00  0.00     0.000 HD 
HETATM   28  O   UNL     1      -9.187  19.251  68.705  1.00  0.00    -0.360 OA 
BRANCH  26  29
HETATM   29  C   UNL     1      -7.523  19.637  67.113  1.00  0.00    -0.260 A  
HETATM   30  C   UNL     1      -7.833  19.993  65.779  1.00  0.00    -0.214 A  
HETATM   31  C   UNL     1      -6.906  20.644  64.968  1.00  0.00    -0.165 A  
HETATM   32  C   UNL     1      -5.655  20.948  65.472  1.00  0.00    -0.261 A  
HETATM   33  C   UNL     1      -5.352  20.647  66.801  1.00  0.00    -0.206 A  
HETATM   34  C   UNL     1      -6.261  19.988  67.670  1.00  0.00    -0.243 A  
BRANCH  34  35
HETATM   35  C   UNL     1      -5.812  19.753  69.082  1.00  0.00    -0.286 A  
HETATM   36  C   UNL     1      -5.740  18.473  69.662  1.00  0.00    -0.243 A  
HETATM   37  C   UNL     1      -5.389  18.291  71.009  1.00  0.00    -0.231 A  
HETATM   38  C   UNL     1      -5.139  19.389  71.826  1.00  0.00    -0.332 A  
HETATM   39  C   UNL     1      -5.200  20.667  71.288  1.00  0.00    -0.219 A  
HETATM   40  C   UNL     1      -5.509  20.840  69.933  1.00  0.00    -0.390 A  
ENDBRANCH  34  35
ENDBRANCH  26  29
ENDBRANCH  21  25
ENDBRANCH  12  19
TORSDOF 4
ENDMDL
