MODEL       23
REMARK 921   NORMALIZED FREE ENERGY PREDICTED BY IDOCK:   10.92 KCAL/MOL
REMARK 922        TOTAL FREE ENERGY PREDICTED BY IDOCK:   29.86 KCAL/MOL
REMARK 923 INTER-LIGAND FREE ENERGY PREDICTED BY IDOCK:    7.32 KCAL/MOL
REMARK 924 INTRA-LIGAND FREE ENERGY PREDICTED BY IDOCK:   22.53 KCAL/MOL
REMARK 927      BINDING AFFINITY PREDICTED BY RF-SCORE:    0.00 PKD
ROOT
HETATM    1  C   UNL     1      -9.470   3.363  70.277  1.00  0.00    -0.247 C  
HETATM    2  C   UNL     1      -9.897   4.210  71.464  1.00  0.00    -0.255 C  
ENDROOT
BRANCH   2   3
HETATM    3  C   UNL     1      -9.854   5.696  71.123  1.00  0.00    -0.229 C  
BRANCH   3   4
HETATM    4  C   UNL     1      -8.707   6.395  71.850  1.00  0.00    -0.134 C  
BRANCH   4   5
HETATM    5  C   UNL     1      -8.997   7.885  72.012  1.00  0.00    -0.189 C  
BRANCH   5   6
HETATM    6  C   UNL     1     -10.492   8.164  71.910  1.00  0.00    -0.312 C  
BRANCH   6   7
HETATM    7  C   UNL     1     -11.250   6.896  71.528  1.00  0.00    -0.290 C  
BRANCH   7   8
HETATM    8  C   UNL     1     -11.719   6.961  70.080  1.00  0.00    -0.261 C  
BRANCH   8   9
HETATM    9  C   UNL     1     -10.537   6.831  69.128  1.00  0.00    -0.261 C  
BRANCH   9  10
HETATM   10  C   UNL     1     -10.969   7.115  67.694  1.00  0.00    -0.226 C  
BRANCH  10  11
HETATM   11  C   UNL     1      -9.861   7.830  66.926  1.00  0.00    -0.305 C  
BRANCH  11  12
HETATM   12  C   UNL     1      -9.087   8.761  67.850  1.00  0.00    -0.145 C  
BRANCH  12  13
HETATM   13  C   UNL     1      -7.868   9.356  67.150  1.00  0.00    -0.098 C  
BRANCH  13  14
HETATM   14  C   UNL     1      -6.922   9.961  68.181  1.00  0.00    -0.076 C  
BRANCH  14  15
HETATM   15  C   UNL     1      -6.522  11.388  67.828  1.00  0.00    -0.065 C  
BRANCH  15  16
HETATM   16  C   UNL     1      -6.641  12.270  69.045  1.00  0.00    -0.100 C  
HETATM   17  O   UNL     1      -5.698  12.761  69.649  1.00  0.00    -0.088 OA 
BRANCH  16  18
HETATM   18  O   UNL     1      -7.952  12.453  69.373  1.00  0.00     0.453 OA 
BRANCH  18  19
HETATM   19  C   UNL     1      -8.777  12.879  68.278  1.00  0.00    -0.168 C  
BRANCH  19  20
HETATM   20  C   UNL     1      -9.532  14.182  68.585  1.00  0.00    -0.163 C  
BRANCH  20  21
HETATM   21  O   UNL     1     -10.813  13.827  69.153  1.00  0.00    -0.237 OA 
BRANCH  21  22
HETATM   22  C   UNL     1     -11.676  14.861  69.317  1.00  0.00    -0.316 C  
HETATM   23  O   UNL     1     -11.604  15.940  68.730  1.00  0.00    -0.373 OA 
BRANCH  22  24
HETATM   24  C   UNL     1     -12.742  14.528  70.323  1.00  0.00    -0.325 C  
BRANCH  24  25
HETATM   25  C   UNL     1     -12.965  13.025  70.320  1.00  0.00     0.352 C  
BRANCH  25  26
HETATM   26  C   UNL     1     -12.837  12.437  68.920  1.00  0.00     1.582 C  
BRANCH  26  27
HETATM   27  C   UNL     1     -12.537  13.562  67.941  1.00  0.00     0.602 C  
BRANCH  27  28
HETATM   28  C   UNL     1     -12.403  13.070  66.503  1.00  0.00    -0.175 C  
BRANCH  28  29
HETATM   29  C   UNL     1     -13.761  12.682  65.913  1.00  0.00     4.584 C  
BRANCH  29  30
HETATM   30  C   UNL     1     -14.285  13.644  64.844  1.00  0.00     4.536 C  
BRANCH  30  31
HETATM   31  C   UNL     1     -13.266  13.942  63.778  1.00  0.00     1.727 C  
HETATM   32  C   UNL     1     -12.028  13.424  63.741  1.00  0.00    -0.517 C  
BRANCH  32  33
HETATM   33  C   UNL     1     -11.542  12.451  64.764  1.00  0.00    -0.395 C  
BRANCH  33  34
HETATM   34  C   UNL     1     -10.106  12.702  65.191  1.00  0.00    -0.257 C  
BRANCH  34  35
HETATM   35  C   UNL     1      -9.827  14.199  65.127  1.00  0.00    -0.140 C  
BRANCH  35  36
HETATM   36  C   UNL     1     -11.111  14.976  64.897  1.00  0.00    -0.425 C  
BRANCH  36  37
HETATM   37  C   UNL     1     -10.811  16.360  64.333  1.00  0.00     0.383 C  
BRANCH  37  38
HETATM   38  C   UNL     1      -9.840  17.098  65.246  1.00  0.00     0.687 C  
BRANCH  38  39
HETATM   39  C   UNL     1     -10.280  18.539  65.477  1.00  0.00     0.275 C  
HETATM   40  C   UNL     1     -11.436  18.598  66.459  1.00  0.00     1.234 C  
ENDBRANCH  38  39
ENDBRANCH  37  38
ENDBRANCH  36  37
ENDBRANCH  35  36
ENDBRANCH  34  35
ENDBRANCH  33  34
ENDBRANCH  32  33
ENDBRANCH  30  31
ENDBRANCH  29  30
ENDBRANCH  28  29
ENDBRANCH  27  28
ENDBRANCH  26  27
ENDBRANCH  25  26
ENDBRANCH  24  25
ENDBRANCH  22  24
ENDBRANCH  21  22
ENDBRANCH  20  21
BRANCH  20  41
HETATM   41  C   UNL     1      -8.775  15.072  69.577  1.00  0.00    -0.059 C  
BRANCH  41  42
HETATM   42  O   UNL     1      -9.382  16.350  69.740  1.00  0.00     0.052 OA 
BRANCH  42  43
HETATM   43  P   UNL     1      -8.593  17.573  68.805  1.00  0.00    -0.076 P  
HETATM   44  O   UNL     1      -8.846  16.549  67.583  1.00  0.00    -0.190 OA 
HETATM   45  O   UNL     1      -9.817  18.474  68.944  1.00  0.00    -0.377 OA 
BRANCH  43  46
HETATM   46  O   UNL     1      -7.806  18.796  67.869  1.00  0.00    -0.253 OA 
BRANCH  46  47
HETATM   47  C   UNL     1      -7.303  19.954  68.589  1.00  0.00    -0.262 C  
BRANCH  47  48
HETATM   48  C   UNL     1      -6.397  20.992  67.826  1.00  0.00    -0.354 C  
HETATM   49  O   UNL     1      -5.226  21.370  68.555  1.00  0.00    -0.462 OA 
HETATM   50  H   UNL     1      -4.680  21.996  68.094  1.00  0.00     0.000 HD 
BRANCH  48  51
HETATM   51  C   UNL     1      -5.947  20.452  66.454  1.00  0.00    -0.182 C  
HETATM   52  H   UNL     1      -6.360  20.758  64.526  1.00  0.00     0.000 HD 
HETATM   53  O   UNL     1      -6.637  21.091  65.371  1.00  0.00    -0.158 OA 
ENDBRANCH  48  51
ENDBRANCH  47  48
ENDBRANCH  46  47
ENDBRANCH  43  46
ENDBRANCH  42  43
ENDBRANCH  41  42
ENDBRANCH  20  41
ENDBRANCH  19  20
ENDBRANCH  18  19
ENDBRANCH  16  18
ENDBRANCH  15  16
ENDBRANCH  14  15
ENDBRANCH  13  14
ENDBRANCH  12  13
ENDBRANCH  11  12
ENDBRANCH  10  11
ENDBRANCH   9  10
ENDBRANCH   8   9
ENDBRANCH   7   8
ENDBRANCH   6   7
ENDBRANCH   5   6
ENDBRANCH   4   5
ENDBRANCH   3   4
ENDBRANCH   2   3
TORSDOF 41
ENDMDL
