MODEL       67
REMARK 921   NORMALIZED FREE ENERGY PREDICTED BY IDOCK:   -4.29 KCAL/MOL
REMARK 922        TOTAL FREE ENERGY PREDICTED BY IDOCK:   -7.62 KCAL/MOL
REMARK 923 INTER-LIGAND FREE ENERGY PREDICTED BY IDOCK:   -7.19 KCAL/MOL
REMARK 924 INTRA-LIGAND FREE ENERGY PREDICTED BY IDOCK:   -0.43 KCAL/MOL
REMARK 927      BINDING AFFINITY PREDICTED BY RF-SCORE:    0.00 PKD
ROOT
HETATM    1  C   UNL     1     -14.397   8.453  71.812  1.00  0.00    -0.472 C  
HETATM    2  N   UNL     1     -13.360   9.208  71.143  1.00  0.00    -0.547 NA 
HETATM    3  H   UNL     1     -13.678   9.808  70.383  1.00  0.00     0.000 HD 
ENDROOT
BRANCH   2   4
HETATM    4  C   UNL     1     -11.998   9.230  71.389  1.00  0.00    -0.351 C  
HETATM    5  C   UNL     1     -11.494   8.436  72.357  1.00  0.00    -0.380 C  
HETATM    6  O   UNL     1      -9.270   9.050  72.070  1.00  0.00    -0.373 OA 
HETATM    7  N   UNL     1     -10.094   8.372  72.698  1.00  0.00    -0.285 N  
HETATM    8  O   UNL     1      -9.808   7.608  73.629  1.00  0.00    -0.301 OA 
BRANCH   4   9
HETATM    9  N   UNL     1     -11.214  10.086  70.635  1.00  0.00    -0.328 NA 
HETATM   10  H   UNL     1     -10.287  10.268  71.021  1.00  0.00     0.000 HD 
BRANCH   9  11
HETATM   11  C   UNL     1     -11.498  10.765  69.388  1.00  0.00    -0.295 C  
BRANCH  11  12
HETATM   12  C   UNL     1     -10.346  10.575  68.397  1.00  0.00    -0.176 C  
BRANCH  12  13
HETATM   13  S   UNL     1     -10.742  11.195  66.726  1.00  0.00    -0.268 SA 
BRANCH  13  14
HETATM   14  C   UNL     1     -11.901  12.535  67.162  1.00  0.00    -0.316 C  
BRANCH  14  15
HETATM   15  C   UNL     1     -11.421  13.846  66.641  1.00  0.00    -0.355 A  
HETATM   16  C   UNL     1     -11.343  14.234  65.318  1.00  0.00    -0.336 A  
HETATM   17  S   UNL     1     -10.738  15.832  65.207  1.00  0.00    -0.411 SA 
HETATM   18  C   UNL     1     -10.601  15.889  66.921  1.00  0.00    -0.309 A  
HETATM   19  N   UNL     1     -10.956  14.787  67.551  1.00  0.00    -0.294 NA 
BRANCH  18  20
HETATM   20  C   UNL     1     -10.069  17.123  67.611  1.00  0.00    -0.305 C  
BRANCH  20  21
HETATM   21  N   UNL     1     -10.040  18.333  66.758  1.00  0.00    -0.344 NA 
HETATM   22  C   UNL     1     -10.838  19.417  67.339  1.00  0.00    -0.440 C  
HETATM   23  C   UNL     1      -8.655  18.780  66.593  1.00  0.00    -0.302 C  
ENDBRANCH  20  21
ENDBRANCH  18  20
ENDBRANCH  14  15
ENDBRANCH  13  14
ENDBRANCH  12  13
ENDBRANCH  11  12
ENDBRANCH   9  11
ENDBRANCH   4   9
ENDBRANCH   2   4
TORSDOF 9
ENDMDL
