MODEL       38
REMARK 921   NORMALIZED FREE ENERGY PREDICTED BY IDOCK:   -6.53 KCAL/MOL
REMARK 922        TOTAL FREE ENERGY PREDICTED BY IDOCK:  -12.68 KCAL/MOL
REMARK 923 INTER-LIGAND FREE ENERGY PREDICTED BY IDOCK:  -12.39 KCAL/MOL
REMARK 924 INTRA-LIGAND FREE ENERGY PREDICTED BY IDOCK:   -0.29 KCAL/MOL
REMARK 927      BINDING AFFINITY PREDICTED BY RF-SCORE:    0.00 PKD
ROOT
HETATM    1  C   UNL     1     -11.028   6.655  68.240  1.00  0.00    -0.321 C  
HETATM    2  C   UNL     1     -10.516   5.677  69.281  1.00  0.00    -0.286 C  
ENDROOT
BRANCH   2   3
HETATM    3  O   UNL     1     -11.236   5.916  70.497  1.00  0.00    -0.305 OA 
BRANCH   3   4
HETATM    4  C   UNL     1     -10.456   5.969  71.620  1.00  0.00    -0.228 C  
HETATM    5  O   UNL     1      -9.529   5.211  71.871  1.00  0.00    -0.143 OA 
BRANCH   4   6
HETATM    6  C   UNL     1     -10.917   7.151  72.484  1.00  0.00    -0.273 C  
HETATM    7  N   UNL     1     -11.003   6.712  73.896  1.00  0.00    -0.405 NA 
HETATM    8  H2  UNL     1     -10.130   6.304  74.231  1.00  0.00     0.000 HD 
HETATM    9  H1  UNL     1     -11.310   7.497  74.470  1.00  0.00     0.000 HD 
BRANCH   6  10
HETATM   10  C   UNL     1      -9.967   8.357  72.314  1.00  0.00    -0.383 C  
BRANCH  10  11
HETATM   11  C   UNL     1     -10.028   9.101  70.986  1.00  0.00    -0.367 A  
HETATM   12  C   UNL     1     -11.133   9.850  70.571  1.00  0.00    -0.398 A  
HETATM   13  C   UNL     1     -11.140  10.501  69.312  1.00  0.00    -0.298 A  
HETATM   14  C   UNL     1     -10.053  10.428  68.413  1.00  0.00    -0.181 A  
HETATM   15  C   UNL     1      -8.926   9.735  68.893  1.00  0.00    -0.144 A  
HETATM   16  C   UNL     1      -8.916   9.084  70.139  1.00  0.00    -0.200 A  
BRANCH  14  17
HETATM   17  C   UNL     1     -10.134  10.958  67.007  1.00  0.00    -0.205 A  
HETATM   18  N   UNL     1      -9.956  10.064  66.007  1.00  0.00    -0.258 NA 
HETATM   19  C   UNL     1      -9.843  10.531  64.756  1.00  0.00    -0.323 A  
HETATM   20  N   UNL     1      -9.819  11.821  64.401  1.00  0.00    -0.231 NA 
HETATM   21  N   UNL     1      -9.648   9.608  63.749  1.00  0.00    -0.453 NA 
HETATM   22  H1  UNL     1      -9.562   9.964  62.798  1.00  0.00     0.000 HD 
HETATM   23  C   UNL     1     -10.016  12.688  65.398  1.00  0.00    -0.214 A  
HETATM   24  H2  UNL     1      -9.593   8.609  63.949  1.00  0.00     0.000 HD 
HETATM   25  C   UNL     1     -10.229  12.309  66.710  1.00  0.00    -0.229 A  
BRANCH  23  26
HETATM   26  O   UNL     1      -9.862  14.045  65.178  1.00  0.00    -0.262 OA 
BRANCH  26  27
HETATM   27  C   UNL     1     -11.001  14.902  65.440  1.00  0.00    -0.364 C  
HETATM   28  C   UNL     1     -12.342  14.484  64.784  1.00  0.00    -0.391 C  
HETATM   29  F   UNL     1     -12.229  13.500  63.865  1.00  0.00    -0.451 F  
HETATM   30  F   UNL     1     -12.876  15.562  64.137  1.00  0.00    -0.286 F  
HETATM   31  F   UNL     1     -13.285  14.098  65.678  1.00  0.00    -0.568 F  
BRANCH  27  32
HETATM   32  C   UNL     1     -11.143  15.181  66.969  1.00  0.00    -0.328 A  
HETATM   33  C   UNL     1     -11.911  14.248  67.707  1.00  0.00    -0.414 A  
HETATM   34  C   UNL     1     -12.237  14.461  69.049  1.00  0.00    -0.233 A  
HETATM   35  C   UNL     1     -11.821  15.622  69.683  1.00  0.00    -0.362 A  
HETATM   36  C   UNL     1     -10.982  16.520  69.023  1.00  0.00    -0.306 A  
HETATM   37 CL   UNL     1     -12.332  15.953  71.293  1.00  0.00    -0.478 Cl 
HETATM   38  C   UNL     1     -10.588  16.280  67.690  1.00  0.00    -0.311 A  
BRANCH  38  39
HETATM   39  N   UNL     1      -9.608  17.143  67.119  1.00  0.00    -0.249 NA 
HETATM   40  C   UNL     1      -8.439  16.832  66.449  1.00  0.00    -0.303 A  
HETATM   41  C   UNL     1      -7.750  18.015  66.293  1.00  0.00    -0.293 A  
HETATM   42  C   UNL     1      -8.611  18.989  66.816  1.00  0.00    -0.304 A  
HETATM   43  N   UNL     1      -9.785  18.473  67.145  1.00  0.00    -0.295 NA 
HETATM   44  C   UNL     1      -8.383  20.436  67.060  1.00  0.00    -0.349 C  
ENDBRANCH  38  39
ENDBRANCH  27  32
ENDBRANCH  26  27
ENDBRANCH  23  26
ENDBRANCH  14  17
ENDBRANCH  10  11
ENDBRANCH   6  10
ENDBRANCH   4   6
ENDBRANCH   3   4
ENDBRANCH   2   3
TORSDOF 10
ENDMDL
