MODEL       17
REMARK 921   NORMALIZED FREE ENERGY PREDICTED BY IDOCK:   -6.32 KCAL/MOL
REMARK 922        TOTAL FREE ENERGY PREDICTED BY IDOCK:  -10.74 KCAL/MOL
REMARK 923 INTER-LIGAND FREE ENERGY PREDICTED BY IDOCK:  -10.04 KCAL/MOL
REMARK 924 INTRA-LIGAND FREE ENERGY PREDICTED BY IDOCK:   -0.70 KCAL/MOL
REMARK 927      BINDING AFFINITY PREDICTED BY RF-SCORE:    0.00 PKD
ROOT
HETATM    1  O   UNL     1     -12.107  11.472  67.601  1.00  0.00    -0.623 OA 
HETATM    2  C   UNL     1     -10.950  11.883  68.343  1.00  0.00    -0.232 C  
HETATM    3  H   UNL     1     -12.013  10.566  67.334  1.00  0.00     0.000 HD 
ENDROOT
BRANCH   2   4
HETATM    4  C   UNL     1     -10.798  10.888  69.474  1.00  0.00    -0.286 A  
HETATM    5  C   UNL     1     -10.552   8.925  71.468  1.00  0.00    -0.329 A  
HETATM    6  C   UNL     1      -9.587  10.196  69.651  1.00  0.00    -0.237 A  
HETATM    7  O   UNL     1      -9.369   7.241  72.541  1.00  0.00    -0.139 OA 
HETATM    8  O   UNL     1     -11.421   7.646  73.199  1.00  0.00    -0.314 OA 
HETATM    9  C   UNL     1     -11.876  10.592  70.328  1.00  0.00    -0.430 A  
HETATM   10  C   UNL     1      -9.460   9.217  70.642  1.00  0.00    -0.333 A  
HETATM   11  N   UNL     1     -10.439   7.861  72.474  1.00  0.00    -0.273 N  
HETATM   12  C   UNL     1     -11.759   9.618  71.323  1.00  0.00    -0.458 A  
ENDBRANCH   2   4
BRANCH   2  13
HETATM   13  C   UNL     1     -11.102  13.366  68.781  1.00  0.00    -0.262 C  
BRANCH  13  14
HETATM   14  N   UNL     1     -11.967  13.430  69.983  1.00  0.00    -0.369 N  
HETATM   15  C   UNL     1     -12.917  14.461  72.048  1.00  0.00    -0.353 C  
HETATM   16  C   UNL     1     -11.881  14.452  70.914  1.00  0.00    -0.283 C  
HETATM   17  H   UNL     1     -12.655  12.691  70.131  1.00  0.00     0.000 HD 
HETATM   18  O   UNL     1     -11.028  15.336  70.823  1.00  0.00    -0.313 OA 
HETATM   19 CL   UNL     1     -13.586  12.842  72.343  1.00  0.00    -0.622 Cl 
HETATM   20 CL   UNL     1     -14.208  15.608  71.644  1.00  0.00    -0.465 Cl 
ENDBRANCH  13  14
BRANCH  13  21
HETATM   21  C   UNL     1     -11.663  14.222  67.623  1.00  0.00    -0.389 C  
BRANCH  21  22
HETATM   22  O   UNL     1     -10.619  14.820  66.830  1.00  0.00    -0.291 OA 
BRANCH  22  23
HETATM   23  C   UNL     1     -11.021  15.368  65.653  1.00  0.00    -0.326 C  
HETATM   24  O   UNL     1     -10.572  16.398  65.165  1.00  0.00    -0.610 OA 
BRANCH  23  25
HETATM   25  C   UNL     1     -12.092  14.533  65.004  1.00  0.00    -0.390 C  
BRANCH  25  26
HETATM   26  C   UNL     1     -11.510  13.561  63.996  1.00  0.00    -0.357 C  
HETATM   27  C   UNL     1     -11.993  12.146  64.200  1.00  0.00    -0.408 C  
HETATM   28  O   UNL     1     -13.314  11.977  63.987  1.00  0.00    -0.703 OA 
HETATM   29  O   UNL     1     -11.251  11.226  64.501  1.00  0.00    -0.244 OA 
ENDBRANCH  25  26
ENDBRANCH  23  25
ENDBRANCH  22  23
ENDBRANCH  21  22
ENDBRANCH  13  21
ENDBRANCH   2  13
TORSDOF 8
ENDMDL
