MODEL        1
REMARK 921   NORMALIZED FREE ENERGY PREDICTED BY IDOCK:   -8.92 KCAL/MOL
REMARK 922        TOTAL FREE ENERGY PREDICTED BY IDOCK:  -12.83 KCAL/MOL
REMARK 923 INTER-LIGAND FREE ENERGY PREDICTED BY IDOCK:  -11.53 KCAL/MOL
REMARK 924 INTRA-LIGAND FREE ENERGY PREDICTED BY IDOCK:   -1.30 KCAL/MOL
REMARK 927      BINDING AFFINITY PREDICTED BY RF-SCORE:    0.00 PKD
ROOT
HETATM    1  C   UNL     1     -12.044  14.440  64.451  1.00  0.00    -0.491 C  
HETATM    2  C   UNL     1     -11.335  15.288  65.441  1.00  0.00    -0.253 C  
HETATM    3  N   UNL     1     -10.537  16.288  65.203  1.00  0.00    -0.638 NA 
HETATM    4  N   UNL     1     -10.123  16.794  66.452  1.00  0.00    -0.304 N  
HETATM    5  O   UNL     1     -10.563  16.249  68.754  1.00  0.00    -0.261 OA 
HETATM    6  C   UNL     1     -10.657  16.132  67.548  1.00  0.00    -0.314 C  
HETATM    7  C   UNL     1     -11.470  15.066  66.901  1.00  0.00    -0.263 C  
ENDROOT
BRANCH   4   8
HETATM    8  C   UNL     1      -9.199  17.864  66.491  1.00  0.00    -0.273 A  
HETATM    9  C   UNL     1      -9.595  19.138  66.903  1.00  0.00    -0.379 A  
HETATM   10  C   UNL     1      -8.684  20.192  66.970  1.00  0.00    -0.420 A  
HETATM   11  C   UNL     1      -7.857  17.675  66.133  1.00  0.00    -0.269 A  
HETATM   12  C   UNL     1      -5.499  18.428  65.798  1.00  0.00    -0.214 C  
HETATM   13  C   UNL     1      -6.921  18.729  66.191  1.00  0.00    -0.285 A  
HETATM   14  C   UNL     1      -7.341  20.001  66.620  1.00  0.00    -0.287 A  
HETATM   15  C   UNL     1      -6.408  21.176  66.707  1.00  0.00    -0.385 C  
ENDBRANCH   4   8
BRANCH   7  16
HETATM   16  N   UNL     1     -12.154  14.107  67.442  1.00  0.00    -0.538 NA 
HETATM   17  H   UNL     1     -13.154  14.001  67.273  1.00  0.00     0.000 HD 
BRANCH  16  18
HETATM   18  N   UNL     1     -11.466  13.246  68.248  1.00  0.00    -0.294 NA 
HETATM   19  H   UNL     1     -10.546  12.911  67.964  1.00  0.00     0.000 HD 
BRANCH  18  20
HETATM   20  C   UNL     1     -12.023  12.817  69.473  1.00  0.00    -0.276 A  
HETATM   21  C   UNL     1     -12.303  11.460  69.727  1.00  0.00    -0.184 A  
HETATM   22  C   UNL     1     -12.774  10.991  70.970  1.00  0.00    -0.485 A  
HETATM   23  O   UNL     1     -12.098  10.557  68.704  1.00  0.00    -0.775 OA 
HETATM   24  C   UNL     1     -12.314  13.742  70.478  1.00  0.00    -0.429 A  
HETATM   25  C   UNL     1     -13.083  11.959  71.937  1.00  0.00    -0.474 A  
HETATM   26  H   UNL     1     -12.288   9.642  68.875  1.00  0.00     0.000 HD 
HETATM   27  C   UNL     1     -12.862  13.319  71.693  1.00  0.00    -0.397 A  
BRANCH  22  28
HETATM   28  C   UNL     1     -12.811   9.548  71.284  1.00  0.00    -0.414 A  
HETATM   29  C   UNL     1     -13.940   8.741  71.084  1.00  0.00    -0.120 A  
HETATM   30  C   UNL     1     -13.933   7.391  71.460  1.00  0.00    -0.517 A  
HETATM   31  C   UNL     1     -12.784   6.814  72.006  1.00  0.00    -0.230 A  
HETATM   32  C   UNL     1     -11.641   7.592  72.181  1.00  0.00    -0.340 A  
HETATM   33  C   UNL     1     -11.679   8.949  71.869  1.00  0.00    -0.439 A  
HETATM   34  C   UNL     1     -10.410   6.979  72.732  1.00  0.00    -0.222 C  
HETATM   35  O   UNL     1      -9.271   7.498  72.215  1.00  0.00    -0.132 OA 
HETATM   36  O   UNL     1     -10.426   6.075  73.540  1.00  0.00    -0.228 OA 
ENDBRANCH  22  28
ENDBRANCH  18  20
ENDBRANCH  16  18
ENDBRANCH   7  16
TORSDOF 5
ENDMDL
