MODEL       59
REMARK 921   NORMALIZED FREE ENERGY PREDICTED BY IDOCK:   -6.65 KCAL/MOL
REMARK 922        TOTAL FREE ENERGY PREDICTED BY IDOCK:   -9.08 KCAL/MOL
REMARK 923 INTER-LIGAND FREE ENERGY PREDICTED BY IDOCK:   -8.35 KCAL/MOL
REMARK 924 INTRA-LIGAND FREE ENERGY PREDICTED BY IDOCK:   -0.73 KCAL/MOL
REMARK 927      BINDING AFFINITY PREDICTED BY RF-SCORE:    0.00 PKD
ROOT
HETATM    1  C   UNL     1     -10.128  10.131  66.072  1.00  0.00    -0.317 C  
HETATM    2  C   UNL     1     -10.671  10.736  67.365  1.00  0.00    -0.268 C  
ENDROOT
BRANCH   2   3
HETATM    3  N   UNL     1     -10.605  12.191  67.403  1.00  0.00    -0.222 NA 
HETATM    4  H   UNL     1     -10.124  12.669  68.165  1.00  0.00     0.000 HD 
BRANCH   3   5
HETATM    5  C   UNL     1     -11.208  12.920  66.380  1.00  0.00    -0.300 A  
HETATM    6  C   UNL     1     -11.376  14.818  64.952  1.00  0.00    -0.410 A  
HETATM    7  N   UNL     1     -12.444  14.389  64.267  1.00  0.00    -0.691 NA 
HETATM    8  C   UNL     1      -9.674  16.021  65.671  1.00  0.00    -0.238 A  
HETATM    9  H   UNL     1      -9.001  14.730  67.185  1.00  0.00     0.000 HD 
HETATM   10  N   UNL     1      -9.656  14.948  66.433  1.00  0.00    -0.276 NA 
HETATM   11  C   UNL     1     -12.842  13.187  64.727  1.00  0.00    -0.229 A  
HETATM   12  C   UNL     1     -10.719  14.183  65.992  1.00  0.00    -0.299 A  
HETATM   13  N   UNL     1     -10.693  15.982  64.756  1.00  0.00    -0.621 NA 
HETATM   14  N   UNL     1     -12.298  12.444  65.718  1.00  0.00    -0.603 NA 
ENDBRANCH   3   5
ENDBRANCH   2   3
BRANCH   2  15
HETATM   15  C   UNL     1     -10.180  10.183  68.714  1.00  0.00    -0.186 C  
HETATM   16  O   UNL     1      -7.365   9.608  70.899  1.00  0.00    -0.288 OA 
HETATM   17  C   UNL     1     -11.155   9.662  69.484  1.00  0.00    -0.198 C  
HETATM   18  C   UNL     1     -10.887   8.975  70.731  1.00  0.00    -0.310 A  
HETATM   19  N   UNL     1      -8.839  10.119  69.155  1.00  0.00    -0.164 N  
HETATM   20  C   UNL     1     -11.945   8.325  71.382  1.00  0.00    -0.333 A  
HETATM   21  C   UNL     1      -8.507   9.579  70.441  1.00  0.00    -0.201 C  
HETATM   22  C   UNL     1      -9.591   8.947  71.255  1.00  0.00    -0.348 A  
HETATM   23 CL   UNL     1      -7.867   8.203  73.311  1.00  0.00    -0.216 Cl 
HETATM   24  C   UNL     1     -11.724   7.640  72.569  1.00  0.00    -0.352 A  
HETATM   25  C   UNL     1     -10.447   7.634  73.121  1.00  0.00    -0.433 A  
HETATM   26  C   UNL     1      -9.383   8.288  72.480  1.00  0.00    -0.280 A  
BRANCH  19  27
HETATM   27  C   UNL     1      -7.702  10.528  68.372  1.00  0.00    -0.104 A  
HETATM   28  C   UNL     1      -7.295  11.874  68.409  1.00  0.00    -0.095 A  
HETATM   29  C   UNL     1      -6.190  12.317  67.674  1.00  0.00    -0.120 A  
HETATM   30  C   UNL     1      -5.478  11.419  66.882  1.00  0.00    -0.115 A  
HETATM   31  C   UNL     1      -5.890  10.087  66.811  1.00  0.00    -0.051 A  
HETATM   32  C   UNL     1      -7.009   9.649  67.535  1.00  0.00    -0.084 A  
ENDBRANCH  19  27
ENDBRANCH   2  15
TORSDOF 4
ENDMDL
