MODEL      235
REMARK 921   NORMALIZED FREE ENERGY PREDICTED BY IDOCK:    2.14 KCAL/MOL
REMARK 922        TOTAL FREE ENERGY PREDICTED BY IDOCK:    1.90 KCAL/MOL
REMARK 923 INTER-LIGAND FREE ENERGY PREDICTED BY IDOCK:    1.37 KCAL/MOL
REMARK 924 INTRA-LIGAND FREE ENERGY PREDICTED BY IDOCK:    0.53 KCAL/MOL
REMARK 927      BINDING AFFINITY PREDICTED BY RF-SCORE:    0.00 PKD
ROOT
HETATM    1  C   UNL     1     -10.108   8.749  69.219  1.00  0.00    -0.206 C  
HETATM    2  C   UNL     1      -9.041   9.598  68.576  1.00  0.00    -0.131 C  
HETATM    3  C   UNL     1      -8.874   9.760  67.249  1.00  0.00    -0.139 C  
HETATM    4  C   UNL     1      -5.127  12.132  69.734  1.00  0.00    -0.074 C  
HETATM    5  C   UNL     1      -7.784  10.682  66.825  1.00  0.00    -0.127 C  
HETATM    6  N   UNL     1      -7.068  11.308  67.826  1.00  0.00    -0.083 N  
HETATM    7  O   UNL     1      -7.561  10.864  65.630  1.00  0.00    -0.092 OA 
HETATM    8  C   UNL     1      -6.474  11.636  70.221  1.00  0.00     0.139 C  
HETATM    9  N   UNL     1      -8.248  10.196  69.519  1.00  0.00    -0.161 NA 
HETATM   10  C   UNL     1      -5.951  12.142  67.403  1.00  0.00    -0.139 C  
HETATM   11  C   UNL     1      -5.342  12.993  68.504  1.00  0.00    -0.063 C  
HETATM   12  C   UNL     1      -7.304  10.987  69.134  1.00  0.00    -0.121 C  
ENDROOT
BRANCH   3  13
HETATM   13  C   UNL     1      -9.688   9.191  66.112  1.00  0.00    -0.357 C  
BRANCH  13  14
HETATM   14  C   UNL     1     -10.020  10.202  64.980  1.00  0.00    -0.305 C  
BRANCH  14  15
HETATM   15  N   UNL     1     -10.968  11.270  65.345  1.00  0.00    -0.187 NA 
HETATM   16  C   UNL     1     -10.375  13.895  63.998  1.00  0.00     0.798 C  
HETATM   17  C   UNL     1      -9.494  13.255  65.079  1.00  0.00     0.424 C  
HETATM   18  C   UNL     1     -10.354  12.414  66.017  1.00  0.00    -0.251 C  
HETATM   19  C   UNL     1     -11.173  12.793  63.285  1.00  0.00    -0.160 C  
HETATM   20  C   UNL     1     -11.797  11.731  64.214  1.00  0.00    -0.217 C  
BRANCH  16  21
HETATM   21  C   UNL     1     -11.150  15.030  64.624  1.00  0.00    -0.321 A  
HETATM   22  N   UNL     1     -12.488  15.035  64.701  1.00  0.00    -0.330 NA 
HETATM   23  O   UNL     1     -12.808  16.012  65.634  1.00  0.00     2.206 OA 
HETATM   24  C   UNL     1     -11.671  16.605  66.085  1.00  0.00     1.499 A  
HETATM   25  C   UNL     1     -10.585  16.075  65.411  1.00  0.00    -0.428 A  
HETATM   26  C   UNL     1      -9.295  16.553  65.710  1.00  0.00    -0.110 A  
HETATM   27  C   UNL     1      -9.165  17.536  66.699  1.00  0.00    -0.277 A  
HETATM   28  C   UNL     1     -10.287  18.010  67.378  1.00  0.00    -0.382 A  
HETATM   29  C   UNL     1     -11.576  17.565  67.089  1.00  0.00     1.321 A  
HETATM   30  F   UNL     1     -10.115  18.917  68.349  1.00  0.00    -0.355 F  
ENDBRANCH  16  21
ENDBRANCH  14  15
ENDBRANCH  13  14
ENDBRANCH   3  13
TORSDOF 4
ENDMDL
