MODEL      108
REMARK 921   NORMALIZED FREE ENERGY PREDICTED BY IDOCK:   -4.78 KCAL/MOL
REMARK 922        TOTAL FREE ENERGY PREDICTED BY IDOCK:   -9.74 KCAL/MOL
REMARK 923 INTER-LIGAND FREE ENERGY PREDICTED BY IDOCK:   -8.93 KCAL/MOL
REMARK 924 INTRA-LIGAND FREE ENERGY PREDICTED BY IDOCK:   -0.81 KCAL/MOL
REMARK 927      BINDING AFFINITY PREDICTED BY RF-SCORE:    0.00 PKD
ROOT
HETATM    1  N   UNL     1      -9.953   7.706  73.583  1.00  0.00    -0.331 NA 
HETATM    2  C   UNL     1     -10.427   7.350  72.378  1.00  0.00    -0.233 A  
HETATM    3  H1  UNL     1     -10.210   7.225  74.445  1.00  0.00     0.000 HD 
HETATM    4  H2  UNL     1      -9.307   8.493  73.639  1.00  0.00     0.000 HD 
HETATM    5  N   UNL     1     -10.097   7.968  71.272  1.00  0.00    -0.183 NA 
HETATM    6  C   UNL     1     -10.735   7.379  70.185  1.00  0.00    -0.242 A  
HETATM    7  S   UNL     1     -11.493   6.020  72.193  1.00  0.00    -0.282 SA 
HETATM    8  C   UNL     1     -11.535   6.298  70.503  1.00  0.00    -0.338 A  
ENDROOT
BRANCH   6   9
HETATM    9  C   UNL     1     -10.490   7.930  68.823  1.00  0.00    -0.198 C  
BRANCH   9  10
HETATM   10  C   UNL     1     -10.444   9.448  68.761  1.00  0.00    -0.212 C  
HETATM   11  N   UNL     1     -11.646  10.094  69.006  1.00  0.00    -0.492 N  
HETATM   12  O   UNL     1      -9.353   9.999  68.610  1.00  0.00    -0.147 OA 
HETATM   13  H   UNL     1     -12.472   9.508  69.129  1.00  0.00     0.000 HD 
BRANCH  11  14
HETATM   14  C   UNL     1     -11.830  11.489  69.102  1.00  0.00    -0.340 A  
HETATM   15  C   UNL     1     -11.733  12.344  68.004  1.00  0.00    -0.414 A  
HETATM   16  C   UNL     1     -11.808  13.728  68.165  1.00  0.00    -0.411 A  
HETATM   17  C   UNL     1     -11.997  14.290  69.431  1.00  0.00    -0.381 A  
HETATM   18  C   UNL     1     -12.090  12.041  70.360  1.00  0.00    -0.407 A  
HETATM   19  C   UNL     1     -12.158  13.431  70.527  1.00  0.00    -0.399 A  
BRANCH  17  20
HETATM   20  C   UNL     1     -11.973  15.793  69.613  1.00  0.00    -0.332 C  
BRANCH  20  21
HETATM   21  C   UNL     1     -10.640  16.468  69.245  1.00  0.00    -0.327 C  
BRANCH  21  22
HETATM   22  N   UNL     1     -10.787  17.317  68.065  1.00  0.00    -0.357 NA 
HETATM   23  H   UNL     1     -11.769  17.445  67.823  1.00  0.00     0.000 HD 
BRANCH  22  24
HETATM   24  C   UNL     1     -10.107  18.609  68.217  1.00  0.00    -0.389 C  
BRANCH  24  25
HETATM   25  C   UNL     1      -9.700  19.244  66.863  1.00  0.00    -0.331 C  
HETATM   26  O   UNL     1     -10.331  18.533  65.787  1.00  0.00    -0.590 OA 
HETATM   27  H   UNL     1     -10.081  18.923  64.957  1.00  0.00     0.000 HD 
BRANCH  25  28
HETATM   28  C   UNL     1      -8.208  19.353  66.607  1.00  0.00    -0.322 A  
HETATM   29  C   UNL     1      -7.553  20.584  66.759  1.00  0.00    -0.290 A  
HETATM   30  C   UNL     1      -6.194  20.711  66.454  1.00  0.00    -0.275 A  
HETATM   31  C   UNL     1      -5.473  19.609  65.999  1.00  0.00    -0.166 A  
HETATM   32  C   UNL     1      -6.103  18.376  65.866  1.00  0.00    -0.247 A  
HETATM   33  C   UNL     1      -7.460  18.248  66.168  1.00  0.00    -0.291 A  
ENDBRANCH  25  28
ENDBRANCH  24  25
ENDBRANCH  22  24
ENDBRANCH  21  22
ENDBRANCH  20  21
ENDBRANCH  17  20
ENDBRANCH  11  14
ENDBRANCH   9  10
ENDBRANCH   6   9
TORSDOF 9
ENDMDL
