MODEL      428
REMARK 921   NORMALIZED FREE ENERGY PREDICTED BY IDOCK:    1.73 KCAL/MOL
REMARK 922        TOTAL FREE ENERGY PREDICTED BY IDOCK:    0.83 KCAL/MOL
REMARK 923 INTER-LIGAND FREE ENERGY PREDICTED BY IDOCK:    1.10 KCAL/MOL
REMARK 924 INTRA-LIGAND FREE ENERGY PREDICTED BY IDOCK:   -0.27 KCAL/MOL
REMARK 927      BINDING AFFINITY PREDICTED BY RF-SCORE:    0.00 PKD
ROOT
HETATM    1  C   UNL     1      -6.060   9.122  65.413  1.00  0.00    -0.063 C  
HETATM    2  C   UNL     1      -6.444   8.615  66.799  1.00  0.00    -0.060 C  
HETATM    3  C   UNL     1      -5.694   7.328  67.129  1.00  0.00    -0.029 C  
ENDROOT
BRANCH   2   4
HETATM    4  O   UNL     1      -6.075   9.597  67.784  1.00  0.00    -0.051 OA 
BRANCH   4   5
HETATM    5  C   UNL     1      -6.567  10.848  67.559  1.00  0.00    -0.063 C  
HETATM    6  O   UNL     1      -5.937  11.772  67.062  1.00  0.00    -0.127 OA 
BRANCH   5   7
HETATM    7  C   UNL     1      -7.982  10.951  68.064  1.00  0.00    -0.109 C  
BRANCH   7   8
HETATM    8  C   UNL     1      -8.905  11.405  66.933  1.00  0.00    -0.173 C  
BRANCH   8   9
HETATM    9  C   UNL     1      -9.926  10.350  66.518  1.00  0.00    -0.271 C  
BRANCH   9  10
HETATM   10  C   UNL     1     -11.322  10.679  66.974  1.00  0.00     0.023 C  
HETATM   11  C   UNL     1     -12.104  11.651  66.479  1.00  0.00     0.664 C  
BRANCH  11  12
HETATM   12  C   UNL     1     -11.705  12.648  65.426  1.00  0.00    -0.428 C  
BRANCH  12  13
HETATM   13  C   UNL     1     -11.244  13.989  66.011  1.00  0.00    -0.310 C  
HETATM   14  C   UNL     1     -10.540  14.931  65.027  1.00  0.00    -0.422 C  
HETATM   15  O   UNL     1     -11.138  14.888  63.736  1.00  0.00     0.055 OA 
HETATM   16  C   UNL     1     -10.765  16.317  65.620  1.00  0.00    -0.297 C  
HETATM   17  C   UNL     1     -12.202  16.265  66.129  1.00  0.00     2.261 C  
HETATM   18  H   UNL     1     -10.701  15.472  63.127  1.00  0.00     0.000 HD 
HETATM   19  O   UNL     1     -13.102  16.598  65.068  1.00  0.00     3.500 OA 
HETATM   20  C   UNL     1     -12.443  14.802  66.576  1.00  0.00     0.247 C  
HETATM   21  H   UNL     1     -13.997  16.565  65.385  1.00  0.00     0.000 HD 
BRANCH  20  22
HETATM   22  C   UNL     1     -12.569  14.547  68.068  1.00  0.00     0.539 C  
HETATM   23  C   UNL     1     -11.939  15.217  69.050  1.00  0.00    -0.295 C  
BRANCH  23  24
HETATM   24  C   UNL     1     -12.010  14.938  70.536  1.00  0.00    -0.309 C  
HETATM   25  H   UNL     1     -13.386  14.972  71.932  1.00  0.00     0.000 HD 
HETATM   26  O   UNL     1     -13.341  15.146  70.999  1.00  0.00    -0.424 OA 
BRANCH  24  27
HETATM   27  C   UNL     1     -11.567  13.491  70.832  1.00  0.00     0.519 C  
BRANCH  27  28
HETATM   28  O   UNL     1     -12.282  12.551  70.015  1.00  0.00    -0.272 OA 
BRANCH  28  29
HETATM   29  C   UNL     1     -12.182  11.249  70.436  1.00  0.00    -0.365 A  
HETATM   30  C   UNL     1     -12.838  10.733  71.557  1.00  0.00    -0.567 A  
HETATM   31  C   UNL     1     -12.689   9.388  71.904  1.00  0.00    -0.484 A  
HETATM   32  C   UNL     1     -11.890   8.551  71.128  1.00  0.00    -0.322 A  
HETATM   33  C   UNL     1     -11.236   9.045  69.993  1.00  0.00    -0.141 A  
HETATM   34  C   UNL     1     -10.369   8.140  69.152  1.00  0.00    -0.220 C  
HETATM   35  C   UNL     1     -11.400  10.399  69.647  1.00  0.00    -0.333 A  
HETATM   36  F   UNL     1     -10.277   6.870  69.644  1.00  0.00    -0.178 F  
HETATM   37  F   UNL     1      -9.088   8.589  69.051  1.00  0.00    -0.142 F  
HETATM   38  F   UNL     1     -10.826   8.009  67.877  1.00  0.00    -0.255 F  
ENDBRANCH  28  29
ENDBRANCH  27  28
ENDBRANCH  24  27
ENDBRANCH  23  24
ENDBRANCH  20  22
ENDBRANCH  12  13
ENDBRANCH  11  12
ENDBRANCH   9  10
ENDBRANCH   8   9
ENDBRANCH   7   8
ENDBRANCH   5   7
ENDBRANCH   4   5
ENDBRANCH   2   4
TORSDOF 13
ENDMDL
