MODEL      276
REMARK 921   NORMALIZED FREE ENERGY PREDICTED BY IDOCK:   -3.48 KCAL/MOL
REMARK 922        TOTAL FREE ENERGY PREDICTED BY IDOCK:   -6.67 KCAL/MOL
REMARK 923 INTER-LIGAND FREE ENERGY PREDICTED BY IDOCK:   -5.98 KCAL/MOL
REMARK 924 INTRA-LIGAND FREE ENERGY PREDICTED BY IDOCK:   -0.69 KCAL/MOL
REMARK 927      BINDING AFFINITY PREDICTED BY RF-SCORE:    0.00 PKD
ROOT
HETATM    1  C   UNL     1      -7.386  20.751  66.909  1.00  0.00    -0.312 C  
HETATM    2  C   UNL     1      -7.474  19.668  67.983  1.00  0.00    -0.331 C  
HETATM    3  C   UNL     1      -8.923  19.526  68.457  1.00  0.00    -0.395 C  
HETATM    4  C   UNL     1      -6.889  18.349  67.441  1.00  0.00    -0.205 C  
ENDROOT
BRANCH   4   5
HETATM    5  C   UNL     1      -6.942  17.232  68.479  1.00  0.00    -0.209 C  
BRANCH   5   6
HETATM    6  C   UNL     1      -7.979  16.162  68.148  1.00  0.00    -0.148 C  
HETATM    7  C   UNL     1      -7.364  14.747  68.155  1.00  0.00    -0.122 C  
HETATM    8  C   UNL     1      -6.762  14.389  69.522  1.00  0.00    -0.141 C  
HETATM    9  C   UNL     1      -8.430  13.723  67.720  1.00  0.00    -0.181 C  
BRANCH   9  10
HETATM   10  C   UNL     1      -7.875  12.301  67.707  1.00  0.00    -0.151 C  
BRANCH  10  11
HETATM   11  C   UNL     1      -8.851  11.295  68.297  1.00  0.00    -0.158 C  
HETATM   12  C   UNL     1     -10.315  11.668  67.980  1.00  0.00    -0.208 C  
HETATM   13  C   UNL     1     -11.294  10.716  68.682  1.00  0.00    -0.345 C  
HETATM   14  C   UNL     1     -10.606  11.658  66.475  1.00  0.00    -0.292 C  
BRANCH  13  15
HETATM   15  C   UNL     1     -11.153  10.645  70.202  1.00  0.00    -0.341 C  
BRANCH  15  16
HETATM   16  C   UNL     1     -11.746   9.377  70.845  1.00  0.00    -0.378 C  
BRANCH  16  17
HETATM   17  C   UNL     1     -10.811   8.138  70.754  1.00  0.00    -0.228 C  
HETATM   18  C   UNL     1     -11.658   6.899  70.389  1.00  0.00    -0.385 C  
HETATM   19  C   UNL     1     -10.032   8.013  72.063  1.00  0.00    -0.275 C  
HETATM   20  C   UNL     1      -9.107   6.820  72.018  1.00  0.00    -0.139 C  
HETATM   21  C   UNL     1      -8.403   6.695  70.694  1.00  0.00    -0.129 A  
HETATM   22  C   UNL     1      -7.384   5.739  70.526  1.00  0.00    -0.084 A  
HETATM   23  C   UNL     1      -7.002   4.799  71.641  1.00  0.00    -0.052 C  
HETATM   24  C   UNL     1      -6.732   5.668  69.283  1.00  0.00    -0.060 A  
HETATM   25  C   UNL     1      -7.084   6.500  68.201  1.00  0.00    -0.083 A  
HETATM   26  O   UNL     1      -5.722   4.766  69.068  1.00  0.00    -0.015 OA 
HETATM   27  C   UNL     1      -6.354   6.381  66.888  1.00  0.00    -0.041 C  
HETATM   28  C   UNL     1      -8.135   7.433  68.365  1.00  0.00    -0.125 A  
HETATM   29  H   UNL     1      -5.281   4.718  68.228  1.00  0.00     0.000 HD 
HETATM   30  C   UNL     1      -8.799   7.505  69.608  1.00  0.00    -0.141 A  
HETATM   31  C   UNL     1      -8.588   8.340  67.248  1.00  0.00    -0.124 C  
HETATM   32  O   UNL     1      -9.867   8.382  69.683  1.00  0.00    -0.179 OA 
ENDBRANCH  16  17
ENDBRANCH  15  16
ENDBRANCH  13  15
ENDBRANCH  10  11
ENDBRANCH   9  10
ENDBRANCH   5   6
ENDBRANCH   4   5
TORSDOF 7
ENDMDL
