MODEL       55
REMARK 921   NORMALIZED FREE ENERGY PREDICTED BY IDOCK:   -5.16 KCAL/MOL
REMARK 922        TOTAL FREE ENERGY PREDICTED BY IDOCK:   -7.00 KCAL/MOL
REMARK 923 INTER-LIGAND FREE ENERGY PREDICTED BY IDOCK:   -6.70 KCAL/MOL
REMARK 924 INTRA-LIGAND FREE ENERGY PREDICTED BY IDOCK:   -0.30 KCAL/MOL
REMARK 927      BINDING AFFINITY PREDICTED BY RF-SCORE:    0.00 PKD
ROOT
HETATM    1  C   UNL     1     -11.493  15.214  67.874  1.00  0.00    -0.332 C  
HETATM    2  N   UNL     1     -12.166  13.927  67.657  1.00  0.00    -0.485 N  
HETATM    3  H   UNL     1     -13.033  13.861  67.124  1.00  0.00     0.000 HD 
ENDROOT
BRANCH   2   4
HETATM    4  S   UNL     1     -11.434  12.556  68.334  1.00  0.00    -0.336 S  
HETATM    5  O   UNL     1     -12.075  11.432  67.688  1.00  0.00    -0.630 OA 
HETATM    6  O   UNL     1     -10.009  12.781  68.217  1.00  0.00    -0.223 OA 
BRANCH   4   7
HETATM    7  C   UNL     1     -11.971  12.666  70.052  1.00  0.00    -0.306 C  
BRANCH   7   8
HETATM    8  C   UNL     1     -12.148  11.296  70.657  1.00  0.00    -0.480 A  
HETATM    9  C   UNL     1     -11.216  10.268  70.411  1.00  0.00    -0.407 A  
HETATM   10  C   UNL     1     -11.355   9.011  71.034  1.00  0.00    -0.362 A  
HETATM   11  C   UNL     1     -12.409   8.835  71.928  1.00  0.00    -0.363 A  
HETATM   12  C   UNL     1     -13.348   9.834  72.204  1.00  0.00    -0.527 A  
HETATM   13  N   UNL     1     -12.306   7.559  72.426  1.00  0.00    -0.519 NA 
HETATM   14  C   UNL     1     -13.200  11.063  71.552  1.00  0.00    -0.400 A  
HETATM   15  H   UNL     1     -12.942   7.148  73.109  1.00  0.00     0.000 HD 
HETATM   16  C   UNL     1     -11.231   6.918  71.876  1.00  0.00    -0.254 A  
HETATM   17  C   UNL     1     -10.625   7.777  70.977  1.00  0.00    -0.226 A  
BRANCH  17  18
HETATM   18  C   UNL     1      -9.429   7.457  70.119  1.00  0.00    -0.165 C  
BRANCH  18  19
HETATM   19  C   UNL     1      -9.728   6.336  69.099  1.00  0.00    -0.135 C  
BRANCH  19  20
HETATM   20  N   UNL     1      -9.472   6.670  67.681  1.00  0.00    -0.125 NA 
HETATM   21  C   UNL     1      -8.082   7.124  67.535  1.00  0.00    -0.113 C  
HETATM   22  C   UNL     1     -10.375   7.707  67.180  1.00  0.00    -0.315 C  
ENDBRANCH  19  20
ENDBRANCH  18  19
ENDBRANCH  17  18
ENDBRANCH   7   8
ENDBRANCH   4   7
ENDBRANCH   2   4
TORSDOF 6
ENDMDL
