MODEL      207
REMARK 921   NORMALIZED FREE ENERGY PREDICTED BY IDOCK:   -2.56 KCAL/MOL
REMARK 922        TOTAL FREE ENERGY PREDICTED BY IDOCK:   -3.76 KCAL/MOL
REMARK 923 INTER-LIGAND FREE ENERGY PREDICTED BY IDOCK:   -2.85 KCAL/MOL
REMARK 924 INTRA-LIGAND FREE ENERGY PREDICTED BY IDOCK:   -0.91 KCAL/MOL
REMARK 927      BINDING AFFINITY PREDICTED BY RF-SCORE:    0.00 PKD
ROOT
HETATM    1  O   UNL     1     -11.609  18.064  66.136  1.00  0.00     1.379 OA 
HETATM    2  H   UNL     1     -12.541  17.935  65.999  1.00  0.00     0.000 HD 
HETATM    3  C   UNL     1     -10.599  17.131  65.984  1.00  0.00    -0.204 C  
HETATM    4  C   UNL     1      -9.273  17.315  66.180  1.00  0.00    -0.162 C  
HETATM    5  N   UNL     1      -8.354  16.260  66.016  1.00  0.00    -0.261 NA 
HETATM    6  C   UNL     1      -7.067  16.227  66.710  1.00  0.00    -0.165 C  
HETATM    7  C   UNL     1      -8.805  15.059  65.458  1.00  0.00     1.188 C  
HETATM    8  C   UNL     1      -6.513  17.599  67.081  1.00  0.00    -0.188 C  
HETATM    9  C   UNL     1     -10.093  14.714  65.275  1.00  0.00    -0.393 C  
HETATM   10  C   UNL     1     -11.017  15.706  65.890  1.00  0.00    -0.231 C  
HETATM   11  O   UNL     1      -5.503  17.317  68.365  1.00  0.00    -0.133 OA 
HETATM   12  C   UNL     1      -6.294  19.481  70.146  1.00  0.00    -0.224 C  
HETATM   13  C   UNL     1      -5.189  18.447  69.373  1.00  0.00    -0.197 C  
HETATM   14  N   UNL     1      -7.660  18.786  67.352  1.00  0.00    -0.227 N  
HETATM   15  O   UNL     1     -12.056  15.400  66.468  1.00  0.00     0.266 OA 
HETATM   16  C   UNL     1      -8.902  18.669  66.755  1.00  0.00    -0.297 C  
HETATM   17  C   UNL     1      -7.665  19.618  68.829  1.00  0.00    -0.337 C  
HETATM   18  C   UNL     1      -5.800  19.318  68.487  1.00  0.00    -0.230 C  
HETATM   19  C   UNL     1      -7.326  18.330  69.227  1.00  0.00    -0.051 C  
HETATM   20  O   UNL     1      -9.748  19.560  66.870  1.00  0.00    -0.319 OA 
ENDROOT
BRANCH   9  21
HETATM   21  C   UNL     1     -10.364  13.370  64.656  1.00  0.00    -0.381 C  
HETATM   22  H   UNL     1     -11.202  11.499  64.890  1.00  0.00     0.000 HD 
HETATM   23  O   UNL     1     -10.253  13.216  63.438  1.00  0.00     0.090 OA 
HETATM   24  N   UNL     1     -10.789  12.289  65.385  1.00  0.00    -0.277 N  
BRANCH  24  25
HETATM   25  C   UNL     1     -10.679  12.219  66.810  1.00  0.00    -0.240 C  
BRANCH  25  26
HETATM   26  C   UNL     1      -9.696  11.297  67.435  1.00  0.00    -0.190 A  
HETATM   27  C   UNL     1      -9.015   9.000  67.846  1.00  0.00    -0.135 A  
HETATM   28  C   UNL     1      -7.729   9.449  68.110  1.00  0.00    -0.083 A  
HETATM   29  C   UNL     1      -9.988   9.931  67.513  1.00  0.00    -0.185 A  
HETATM   30  F   UNL     1     -11.210   9.486  67.182  1.00  0.00    -0.240 F  
HETATM   31  F   UNL     1      -6.774   8.558  68.401  1.00  0.00    -0.058 F  
HETATM   32  C   UNL     1      -7.405  10.799  68.046  1.00  0.00    -0.088 A  
HETATM   33  C   UNL     1      -8.393  11.714  67.705  1.00  0.00    -0.142 A  
HETATM   34  F   UNL     1      -8.059  13.002  67.552  1.00  0.00    -0.135 F  
ENDBRANCH  25  26
ENDBRANCH  24  25
ENDBRANCH   9  21
TORSDOF 3
ENDMDL
