MODEL      162
REMARK 921   NORMALIZED FREE ENERGY PREDICTED BY IDOCK:   -3.82 KCAL/MOL
REMARK 922        TOTAL FREE ENERGY PREDICTED BY IDOCK:   -7.61 KCAL/MOL
REMARK 923 INTER-LIGAND FREE ENERGY PREDICTED BY IDOCK:   -6.95 KCAL/MOL
REMARK 924 INTRA-LIGAND FREE ENERGY PREDICTED BY IDOCK:   -0.66 KCAL/MOL
REMARK 927      BINDING AFFINITY PREDICTED BY RF-SCORE:    0.00 PKD
ROOT
HETATM    1  C   UNL     1     -10.801   8.296  70.251  1.00  0.00    -0.241 C  
HETATM    2  C   UNL     1     -12.120   8.192  71.018  1.00  0.00    -0.207 C  
HETATM    3  C   UNL     1     -11.838   8.144  72.524  1.00  0.00    -0.438 C  
ENDROOT
BRANCH   2   4
HETATM    4  N   UNL     1     -13.029   9.318  70.763  1.00  0.00    -0.519 NA 
HETATM    5  H   UNL     1     -13.680   9.428  71.541  1.00  0.00     0.000 HD 
BRANCH   4   6
HETATM    6  C   UNL     1     -12.369  10.596  70.470  1.00  0.00    -0.359 C  
BRANCH   6   7
HETATM    7  C   UNL     1     -12.448  11.682  71.561  1.00  0.00    -0.133 C  
HETATM    8  O   UNL     1     -13.590  11.413  72.390  1.00  0.00    -0.538 OA 
HETATM    9  H   UNL     1     -13.639  12.083  73.062  1.00  0.00     0.000 HD 
BRANCH   7  10
HETATM   10  C   UNL     1     -12.577  13.087  70.965  1.00  0.00    -0.299 C  
BRANCH  10  11
HETATM   11  O   UNL     1     -12.157  13.030  69.590  1.00  0.00    -0.297 OA 
BRANCH  11  12
HETATM   12  C   UNL     1     -11.724  14.211  69.047  1.00  0.00    -0.324 A  
HETATM   13  C   UNL     1     -11.635  14.487  67.683  1.00  0.00    -0.402 A  
HETATM   14  C   UNL     1     -11.136  15.716  67.244  1.00  0.00    -0.238 A  
HETATM   15  C   UNL     1     -10.742  16.701  68.158  1.00  0.00    -0.349 A  
HETATM   16  C   UNL     1     -10.859  16.428  69.527  1.00  0.00    -0.338 A  
HETATM   17  C   UNL     1     -11.349  15.193  69.965  1.00  0.00    -0.304 A  
BRANCH  15  18
HETATM   18  C   UNL     1     -10.170  18.012  67.673  1.00  0.00    -0.376 C  
BRANCH  18  19
HETATM   19  C   UNL     1      -9.222  17.842  66.485  1.00  0.00    -0.273 C  
BRANCH  19  20
HETATM   20  O   UNL     1      -8.322  18.952  66.424  1.00  0.00    -0.291 OA 
BRANCH  20  21
HETATM   21  C   UNL     1      -6.995  18.539  66.754  1.00  0.00    -0.194 C  
BRANCH  21  22
HETATM   22  C   UNL     1      -6.402  19.520  67.712  1.00  0.00    -0.236 C  
HETATM   23  C   UNL     1      -5.410  20.540  67.207  1.00  0.00    -0.196 C  
HETATM   24  C   UNL     1      -6.774  20.981  67.660  1.00  0.00    -0.399 C  
ENDBRANCH  21  22
ENDBRANCH  20  21
ENDBRANCH  19  20
ENDBRANCH  18  19
ENDBRANCH  15  18
ENDBRANCH  11  12
ENDBRANCH  10  11
ENDBRANCH   7  10
ENDBRANCH   6   7
ENDBRANCH   4   6
ENDBRANCH   2   4
TORSDOF 11
ENDMDL
