MODEL        7
REMARK 921   NORMALIZED FREE ENERGY PREDICTED BY IDOCK:   -8.29 KCAL/MOL
REMARK 922        TOTAL FREE ENERGY PREDICTED BY IDOCK:  -10.99 KCAL/MOL
REMARK 923 INTER-LIGAND FREE ENERGY PREDICTED BY IDOCK:   -9.87 KCAL/MOL
REMARK 924 INTRA-LIGAND FREE ENERGY PREDICTED BY IDOCK:   -1.12 KCAL/MOL
REMARK 927      BINDING AFFINITY PREDICTED BY RF-SCORE:    0.00 PKD
ROOT
HETATM    1  O   UNL     1      -9.454  19.401  67.620  1.00  0.00    -0.299 OA 
HETATM    2  C   UNL     1      -8.739  18.389  68.165  1.00  0.00    -0.302 C  
HETATM    3  O   UNL     1      -7.603  18.533  68.584  1.00  0.00    -0.296 OA 
HETATM    4  C   UNL     1      -9.450  17.086  68.180  1.00  0.00    -0.262 A  
HETATM    5  C   UNL     1     -10.837  17.003  68.333  1.00  0.00    -0.333 A  
HETATM    6  C   UNL     1     -11.469  15.753  68.357  1.00  0.00    -0.367 A  
HETATM    7  C   UNL     1     -10.718  14.569  68.300  1.00  0.00    -0.240 A  
HETATM    8  C   UNL     1      -9.328  14.655  68.127  1.00  0.00    -0.197 A  
HETATM    9  C   UNL     1      -8.697  15.909  68.079  1.00  0.00    -0.169 A  
ENDROOT
BRANCH   7  10
HETATM   10  N   UNL     1     -11.327  13.278  68.425  1.00  0.00    -0.271 NA 
HETATM   11  N   UNL     1     -11.581  12.780  69.669  1.00  0.00    -0.278 NA 
HETATM   12  C   UNL     1     -11.840  11.486  69.442  1.00  0.00    -0.350 A  
HETATM   13  N   UNL     1     -11.906  11.181  68.103  1.00  0.00    -0.607 NA 
HETATM   14  C   UNL     1     -11.652  12.313  67.471  1.00  0.00    -0.353 A  
BRANCH  12  15
HETATM   15  C   UNL     1     -12.033  10.427  70.446  1.00  0.00    -0.409 A  
HETATM   16  C   UNL     1     -11.283   9.238  70.305  1.00  0.00    -0.267 A  
HETATM   17  C   UNL     1     -11.387   8.184  71.219  1.00  0.00    -0.300 A  
HETATM   18  H   UNL     1     -14.219  11.700  72.529  1.00  0.00     0.000 HD 
HETATM   19  C   UNL     1     -12.249   8.295  72.301  1.00  0.00    -0.428 A  
HETATM   20  O   UNL     1     -13.639  11.639  71.779  1.00  0.00    -0.174 OA 
HETATM   21  C   UNL     1     -13.000   9.459  72.471  1.00  0.00    -0.345 A  
HETATM   22  C   UNL     1     -12.891  10.517  71.553  1.00  0.00    -0.463 A  
ENDBRANCH  12  15
BRANCH  14  23
HETATM   23  C   UNL     1     -11.676  12.424  66.004  1.00  0.00    -0.469 A  
HETATM   24  C   UNL     1     -11.420  12.660  63.210  1.00  0.00    -0.368 A  
HETATM   25  C   UNL     1     -12.276  13.511  63.907  1.00  0.00    -0.458 A  
HETATM   26  C   UNL     1     -10.876  11.530  65.270  1.00  0.00    -0.319 A  
HETATM   27  C   UNL     1     -12.430  13.364  65.288  1.00  0.00    -0.483 A  
HETATM   28  C   UNL     1     -10.747  11.646  63.885  1.00  0.00    -0.459 A  
HETATM   29  O   UNL     1     -13.327  14.160  65.944  1.00  0.00    -0.603 OA 
HETATM   30  H   UNL     1     -13.838  14.797  65.459  1.00  0.00     0.000 HD 
ENDBRANCH  14  23
ENDBRANCH   7  10
TORSDOF 3
ENDMDL
