MODEL       45
REMARK 921   NORMALIZED FREE ENERGY PREDICTED BY IDOCK:   -5.36 KCAL/MOL
REMARK 922        TOTAL FREE ENERGY PREDICTED BY IDOCK:  -13.49 KCAL/MOL
REMARK 923 INTER-LIGAND FREE ENERGY PREDICTED BY IDOCK:  -12.06 KCAL/MOL
REMARK 924 INTRA-LIGAND FREE ENERGY PREDICTED BY IDOCK:   -1.43 KCAL/MOL
REMARK 927      BINDING AFFINITY PREDICTED BY RF-SCORE:    0.00 PKD
ROOT
HETATM    1  C   UNL     1     -10.935   7.809  73.067  1.00  0.00    -0.442 C  
HETATM    2  C   UNL     1     -11.758   8.228  71.835  1.00  0.00    -0.381 C  
HETATM    3  C   UNL     1     -12.564   7.013  71.313  1.00  0.00    -0.418 C  
ENDROOT
BRANCH   2   4
HETATM    4  C   UNL     1     -12.791   9.294  72.259  1.00  0.00    -0.384 C  
HETATM    5  O   UNL     1     -13.559   8.856  73.378  1.00  0.00    -0.970 OA 
HETATM    6  H   UNL     1     -14.195   9.512  73.638  1.00  0.00     0.000 HD 
ENDBRANCH   2   4
BRANCH   2   7
HETATM    7  C   UNL     1     -10.843   8.801  70.708  1.00  0.00    -0.234 C  
HETATM    8  O   UNL     1      -9.662   9.441  71.219  1.00  0.00    -0.262 OA 
HETATM    9  H   UNL     1      -9.105   9.789  70.533  1.00  0.00     0.000 HD 
BRANCH   7  10
HETATM   10  C   UNL     1     -10.391   7.771  69.649  1.00  0.00    -0.212 C  
HETATM   11  O   UNL     1      -9.728   6.766  69.889  1.00  0.00    -0.159 OA 
HETATM   12  N   UNL     1     -10.870   8.048  68.388  1.00  0.00    -0.432 N  
HETATM   13  H   UNL     1     -11.360   8.927  68.216  1.00  0.00     0.000 HD 
BRANCH  12  14
HETATM   14  C   UNL     1     -10.688   7.109  67.303  1.00  0.00    -0.329 C  
BRANCH  14  15
HETATM   15  C   UNL     1      -9.402   7.341  66.515  1.00  0.00    -0.216 C  
BRANCH  15  16
HETATM   16  C   UNL     1      -9.191   8.831  66.363  1.00  0.00    -0.189 C  
HETATM   17  O   UNL     1      -8.706   9.511  67.263  1.00  0.00    -0.127 OA 
HETATM   18  N   UNL     1      -9.560   9.332  65.136  1.00  0.00    -0.458 N  
HETATM   19  H   UNL     1      -9.906   8.669  64.444  1.00  0.00     0.000 HD 
BRANCH  18  20
HETATM   20  C   UNL     1      -9.494  10.743  64.744  1.00  0.00    -0.247 C  
BRANCH  20  21
HETATM   21  C   UNL     1     -10.152  11.130  63.416  1.00  0.00    -0.390 C  
BRANCH  21  22
HETATM   22  S   UNL     1     -11.574  12.280  63.557  1.00  0.00    -0.481 SA 
BRANCH  22  23
HETATM   23  S   UNL     1     -11.035  13.557  65.081  1.00  0.00    -0.337 SA 
BRANCH  23  24
HETATM   24  C   UNL     1     -12.380  13.281  66.280  1.00  0.00    -0.317 C  
BRANCH  24  25
HETATM   25  C   UNL     1     -11.890  13.483  67.716  1.00  0.00    -0.362 C  
BRANCH  25  26
HETATM   26  N   UNL     1     -11.144  14.719  67.942  1.00  0.00    -0.282 N  
HETATM   27  H   UNL     1     -10.379  14.942  67.306  1.00  0.00     0.000 HD 
HETATM   28  C   UNL     1     -11.418  15.599  68.968  1.00  0.00    -0.363 C  
HETATM   29  O   UNL     1     -12.277  15.405  69.822  1.00  0.00    -0.337 OA 
BRANCH  28  30
HETATM   30  C   UNL     1     -10.595  16.866  68.942  1.00  0.00    -0.353 C  
BRANCH  30  31
HETATM   31  C   UNL     1     -10.864  17.632  67.650  1.00  0.00    -0.221 C  
BRANCH  31  32
HETATM   32  N   UNL     1      -9.714  18.408  67.224  1.00  0.00    -0.290 N  
HETATM   33  H   UNL     1      -9.039  17.978  66.591  1.00  0.00     0.000 HD 
HETATM   34  C   UNL     1      -9.501  19.700  67.642  1.00  0.00    -0.337 C  
HETATM   35  O   UNL     1     -10.205  20.269  68.472  1.00  0.00    -0.352 OA 
BRANCH  34  36
HETATM   36  C   UNL     1      -8.245  20.358  67.029  1.00  0.00    -0.292 C  
HETATM   37  O   UNL     1      -8.212  20.125  65.612  1.00  0.00    -0.475 OA 
HETATM   38  H   UNL     1      -7.439  20.530  65.235  1.00  0.00     0.000 HD 
BRANCH  36  39
HETATM   39  C   UNL     1      -6.917  19.883  67.681  1.00  0.00    -0.282 C  
HETATM   40  C   UNL     1      -5.977  21.070  67.975  1.00  0.00    -0.396 C  
HETATM   41  C   UNL     1      -7.242  19.206  69.033  1.00  0.00    -0.370 C  
BRANCH  39  42
HETATM   42  C   UNL     1      -6.211  18.861  66.757  1.00  0.00    -0.181 C  
HETATM   43  O   UNL     1      -6.964  17.661  66.622  1.00  0.00    -0.181 OA 
HETATM   44  H   UNL     1      -6.531  17.034  66.054  1.00  0.00     0.000 HD 
ENDBRANCH  39  42
ENDBRANCH  36  39
ENDBRANCH  34  36
ENDBRANCH  31  32
ENDBRANCH  30  31
ENDBRANCH  28  30
ENDBRANCH  25  26
ENDBRANCH  24  25
ENDBRANCH  23  24
ENDBRANCH  22  23
ENDBRANCH  21  22
ENDBRANCH  20  21
ENDBRANCH  18  20
ENDBRANCH  15  16
ENDBRANCH  14  15
ENDBRANCH  12  14
ENDBRANCH   7  10
ENDBRANCH   2   7
TORSDOF 19
ENDMDL
