MODEL      370
REMARK 921   NORMALIZED FREE ENERGY PREDICTED BY IDOCK:   17.71 KCAL/MOL
REMARK 922        TOTAL FREE ENERGY PREDICTED BY IDOCK:   24.04 KCAL/MOL
REMARK 923 INTER-LIGAND FREE ENERGY PREDICTED BY IDOCK:   23.39 KCAL/MOL
REMARK 924 INTRA-LIGAND FREE ENERGY PREDICTED BY IDOCK:    0.64 KCAL/MOL
REMARK 927      BINDING AFFINITY PREDICTED BY RF-SCORE:    0.00 PKD
ROOT
HETATM    1  C   UNL     1     -13.888  19.499  66.044  1.00  0.00    15.041 C  
HETATM    2  O   UNL     1     -12.493  19.760  66.082  1.00  0.00     3.284 OA 
ENDROOT
BRANCH   2   3
HETATM    3  C   UNL     1     -11.747  19.020  66.961  1.00  0.00     1.594 A  
HETATM    4  C   UNL     1     -10.801  19.486  67.885  1.00  0.00    -0.175 A  
HETATM    5  C   UNL     1     -10.112  18.561  68.680  1.00  0.00    -0.406 A  
HETATM    6  C   UNL     1     -11.943  17.639  66.817  1.00  0.00     3.068 A  
HETATM    7  C   UNL     1     -11.222  16.722  67.583  1.00  0.00     0.026 A  
HETATM    8  C   UNL     1     -10.275  17.186  68.492  1.00  0.00    -0.346 A  
BRANCH   4   9
HETATM    9  O   UNL     1     -10.560  20.832  68.001  1.00  0.00     0.118 OA 
HETATM   10  C   UNL     1     -10.754  21.364  69.311  1.00  0.00     1.668 C  
ENDBRANCH   4   9
BRANCH   8  11
HETATM   11  C   UNL     1      -9.421  16.221  69.264  1.00  0.00    -0.202 C  
BRANCH  11  12
HETATM   12  C   UNL     1      -8.012  16.107  68.711  1.00  0.00    -0.216 C  
BRANCH  12  13
HETATM   13  O   UNL     1      -7.899  14.952  67.879  1.00  0.00    -0.118 OA 
BRANCH  13  14
HETATM   14  C   UNL     1      -7.626  13.711  68.558  1.00  0.00    -0.130 C  
HETATM   15  C   UNL     1      -6.931  13.971  69.904  1.00  0.00     0.151 C  
HETATM   16  C   UNL     1      -6.392  12.705  70.555  1.00  0.00     0.411 C  
HETATM   17  C   UNL     1      -5.497  11.957  69.578  1.00  0.00    -0.067 C  
HETATM   18  C   UNL     1      -6.321  11.485  68.383  1.00  0.00    -0.050 C  
HETATM   19  C   UNL     1      -6.922  12.673  67.618  1.00  0.00    -0.140 C  
BRANCH  19  20
HETATM   20  N   UNL     1      -7.801  12.373  66.463  1.00  0.00     0.210 NA 
HETATM   21  C   UNL     1      -8.813  13.379  66.130  1.00  0.00     0.395 C  
HETATM   22  C   UNL     1     -10.070  12.962  66.876  1.00  0.00    -0.241 C  
HETATM   23  C   UNL     1      -9.956  11.447  66.991  1.00  0.00    -0.201 C  
HETATM   24  C   UNL     1      -8.529  11.106  66.549  1.00  0.00    -0.165 C  
HETATM   25  O   UNL     1     -10.924  10.823  66.154  1.00  0.00    -0.115 OA 
HETATM   26  H   UNL     1     -10.852   9.878  66.226  1.00  0.00     0.000 HD 
ENDBRANCH  19  20
ENDBRANCH  13  14
ENDBRANCH  12  13
ENDBRANCH  11  12
ENDBRANCH   8  11
ENDBRANCH   2   3
TORSDOF 7
ENDMDL
