MODEL       60
REMARK 921   NORMALIZED FREE ENERGY PREDICTED BY IDOCK:   -5.02 KCAL/MOL
REMARK 922        TOTAL FREE ENERGY PREDICTED BY IDOCK:  -10.65 KCAL/MOL
REMARK 923 INTER-LIGAND FREE ENERGY PREDICTED BY IDOCK:   -9.49 KCAL/MOL
REMARK 924 INTRA-LIGAND FREE ENERGY PREDICTED BY IDOCK:   -1.16 KCAL/MOL
REMARK 927      BINDING AFFINITY PREDICTED BY RF-SCORE:    0.00 PKD
ROOT
HETATM    1  C   UNL     1      -9.751  16.031  67.918  1.00  0.00    -0.220 C  
HETATM    2  C   UNL     1     -10.334  14.955  67.369  1.00  0.00    -0.243 C  
ENDROOT
BRANCH   1   3
HETATM    3  C   UNL     1     -10.447  17.264  68.426  1.00  0.00    -0.381 C  
BRANCH   3   4
HETATM    4  C   UNL     1     -10.550  18.340  67.344  1.00  0.00    -0.425 C  
BRANCH   4   5
HETATM    5  C   UNL     1      -9.612  19.518  67.609  1.00  0.00    -0.436 C  
HETATM    6  O   UNL     1      -7.572  20.538  66.938  1.00  0.00    -0.301 OA 
HETATM    7  C   UNL     1      -8.398  19.489  66.714  1.00  0.00    -0.300 C  
HETATM    8  O   UNL     1      -8.163  18.640  65.868  1.00  0.00    -0.488 OA 
ENDBRANCH   4   5
ENDBRANCH   3   4
ENDBRANCH   1   3
BRANCH   2   9
HETATM    9  C   UNL     1     -11.802  14.780  67.091  1.00  0.00    -0.307 C  
BRANCH   9  10
HETATM   10  C   UNL     1     -12.190  13.533  66.279  1.00  0.00    -0.468 C  
HETATM   11  H   UNL     1      -9.221  11.666  64.598  1.00  0.00     0.000 HD 
HETATM   12  C   UNL     1     -12.386  13.873  64.792  1.00  0.00    -0.400 C  
HETATM   13  O   UNL     1      -9.937  12.103  64.153  1.00  0.00    -0.296 OA 
HETATM   14  O   UNL     1     -11.320  14.677  64.292  1.00  0.00    -0.608 OA 
HETATM   15  C   UNL     1     -12.321  12.518  64.107  1.00  0.00    -0.548 C  
HETATM   16  C   UNL     1     -11.128  12.399  66.259  1.00  0.00    -0.344 C  
HETATM   17  H   UNL     1     -11.442  14.887  63.373  1.00  0.00     0.000 HD 
HETATM   18  C   UNL     1     -11.168  11.815  64.823  1.00  0.00    -0.271 C  
BRANCH  16  19
HETATM   19  C   UNL     1     -11.344  11.347  67.322  1.00  0.00    -0.347 C  
HETATM   20  C   UNL     1     -11.171  11.533  68.643  1.00  0.00    -0.307 C  
BRANCH  20  21
HETATM   21  C   UNL     1     -11.313  10.479  69.708  1.00  0.00    -0.300 C  
HETATM   22  O   UNL     1     -10.041  10.163  70.261  1.00  0.00    -0.390 OA 
HETATM   23  H   UNL     1     -10.131   9.499  70.934  1.00  0.00     0.000 HD 
BRANCH  21  24
HETATM   24  C   UNL     1     -12.233  10.942  70.844  1.00  0.00    -0.485 C  
BRANCH  24  25
HETATM   25  C   UNL     1     -13.375   9.980  71.189  1.00  0.00    -0.379 C  
BRANCH  25  26
HETATM   26  C   UNL     1     -12.956   8.887  72.172  1.00  0.00    -0.473 C  
BRANCH  26  27
HETATM   27  C   UNL     1     -13.092   7.496  71.557  1.00  0.00    -0.402 C  
HETATM   28  C   UNL     1     -11.789   6.722  71.671  1.00  0.00    -0.370 C  
ENDBRANCH  26  27
ENDBRANCH  25  26
ENDBRANCH  24  25
ENDBRANCH  21  24
ENDBRANCH  20  21
ENDBRANCH  16  19
ENDBRANCH   9  10
ENDBRANCH   2   9
TORSDOF 11
ENDMDL
