MODEL       49
REMARK 921   NORMALIZED FREE ENERGY PREDICTED BY IDOCK:   -5.58 KCAL/MOL
REMARK 922        TOTAL FREE ENERGY PREDICTED BY IDOCK:   -8.79 KCAL/MOL
REMARK 923 INTER-LIGAND FREE ENERGY PREDICTED BY IDOCK:   -8.43 KCAL/MOL
REMARK 924 INTRA-LIGAND FREE ENERGY PREDICTED BY IDOCK:   -0.36 KCAL/MOL
REMARK 927      BINDING AFFINITY PREDICTED BY RF-SCORE:    0.00 PKD
ROOT
HETATM    1  C   UNL     1      -9.245   7.763  72.975  1.00  0.00    -0.226 C  
HETATM    2  O   UNL     1     -10.649   7.854  72.785  1.00  0.00    -0.299 OA 
ENDROOT
BRANCH   2   3
HETATM    3  C   UNL     1     -11.099   8.831  71.937  1.00  0.00    -0.364 A  
HETATM    4  C   UNL     1     -12.390   9.374  71.863  1.00  0.00    -0.375 A  
HETATM    5  C   UNL     1     -12.663  10.351  70.897  1.00  0.00    -0.477 A  
HETATM    6  C   UNL     1     -10.129   9.238  71.009  1.00  0.00    -0.373 A  
HETATM    7  C   UNL     1     -10.422  10.181  70.023  1.00  0.00    -0.325 A  
HETATM    8  C   UNL     1     -11.707  10.711  69.944  1.00  0.00    -0.395 A  
BRANCH   4   9
HETATM    9  O   UNL     1     -13.364   8.949  72.730  1.00  0.00    -0.405 OA 
HETATM   10  C   UNL     1     -14.355   8.102  72.150  1.00  0.00    -0.372 C  
ENDBRANCH   4   9
BRANCH   8  11
HETATM   11  C   UNL     1     -12.076  11.659  68.838  1.00  0.00    -0.253 C  
BRANCH  11  12
HETATM   12  C   UNL     1     -11.236  12.923  68.839  1.00  0.00    -0.279 C  
BRANCH  12  13
HETATM   13  O   UNL     1     -12.059  14.065  68.599  1.00  0.00    -0.351 OA 
BRANCH  13  14
HETATM   14  C   UNL     1     -11.880  14.712  67.323  1.00  0.00    -0.351 C  
HETATM   15  C   UNL     1     -12.559  13.905  66.205  1.00  0.00    -0.376 C  
HETATM   16  C   UNL     1     -12.199  14.393  64.810  1.00  0.00    -0.458 C  
HETATM   17  C   UNL     1     -10.687  14.444  64.649  1.00  0.00    -0.357 C  
HETATM   18  C   UNL     1     -10.101  15.477  65.608  1.00  0.00    -0.406 C  
HETATM   19  C   UNL     1     -10.382  15.099  67.070  1.00  0.00    -0.271 C  
BRANCH  19  20
HETATM   20  N   UNL     1      -9.927  16.038  68.123  1.00  0.00    -0.225 NA 
HETATM   21  C   UNL     1     -10.881  17.067  68.540  1.00  0.00    -0.310 C  
HETATM   22  C   UNL     1     -10.583  18.282  67.677  1.00  0.00    -0.427 C  
HETATM   23  C   UNL     1      -9.099  18.160  67.353  1.00  0.00    -0.253 C  
HETATM   24  C   UNL     1      -8.689  16.759  67.818  1.00  0.00    -0.210 C  
HETATM   25  O   UNL     1      -8.369  19.171  68.040  1.00  0.00    -0.286 OA 
HETATM   26  H   UNL     1      -7.444  19.095  67.838  1.00  0.00     0.000 HD 
ENDBRANCH  19  20
ENDBRANCH  13  14
ENDBRANCH  12  13
ENDBRANCH  11  12
ENDBRANCH   8  11
ENDBRANCH   2   3
TORSDOF 7
ENDMDL
