MODEL      281
REMARK 921   NORMALIZED FREE ENERGY PREDICTED BY IDOCK:   -2.31 KCAL/MOL
REMARK 922        TOTAL FREE ENERGY PREDICTED BY IDOCK:   -3.86 KCAL/MOL
REMARK 923 INTER-LIGAND FREE ENERGY PREDICTED BY IDOCK:   -3.68 KCAL/MOL
REMARK 924 INTRA-LIGAND FREE ENERGY PREDICTED BY IDOCK:   -0.18 KCAL/MOL
REMARK 927      BINDING AFFINITY PREDICTED BY RF-SCORE:    0.00 PKD
ROOT
HETATM    1  O   UNL     1     -10.219   8.725  68.770  1.00  0.00    -0.197 OA 
HETATM    2  C   UNL     1     -10.696   9.788  69.459  1.00  0.00    -0.233 C  
HETATM    3  O   UNL     1     -10.699   9.827  70.678  1.00  0.00    -0.290 OA 
HETATM    4  C   UNL     1     -11.206  10.880  68.544  1.00  0.00    -0.335 C  
ENDROOT
BRANCH   4   5
HETATM    5  C   UNL     1     -11.742  12.071  69.336  1.00  0.00    -0.402 C  
BRANCH   5   6
HETATM    6  C   UNL     1     -11.763  13.347  68.495  1.00  0.00    -0.392 C  
BRANCH   6   7
HETATM    7  C   UNL     1     -11.527  14.577  69.372  1.00  0.00    -0.323 C  
BRANCH   7   8
HETATM    8  C   UNL     1     -10.607  15.587  68.686  1.00  0.00    -0.243 C  
BRANCH   8   9
HETATM    9  C   UNL     1     -11.148  15.973  67.309  1.00  0.00    -0.131 C  
BRANCH   9  10
HETATM   10  C   UNL     1     -10.102  15.757  66.217  1.00  0.00    -0.320 C  
BRANCH  10  11
HETATM   11  C   UNL     1      -8.688  15.762  66.802  1.00  0.00    -0.305 C  
BRANCH  11  12
HETATM   12  C   UNL     1      -8.286  17.140  67.242  1.00  0.00    -0.208 C  
HETATM   13  C   UNL     1      -7.801  18.076  66.417  1.00  0.00    -0.304 C  
ENDBRANCH  11  12
ENDBRANCH  10  11
ENDBRANCH   9  10
ENDBRANCH   8   9
ENDBRANCH   7   8
ENDBRANCH   6   7
ENDBRANCH   5   6
ENDBRANCH   4   5
TORSDOF 8
ENDMDL
