MODEL        1
REMARK 921   NORMALIZED FREE ENERGY PREDICTED BY IDOCK:   -6.83 KCAL/MOL
REMARK 922        TOTAL FREE ENERGY PREDICTED BY IDOCK:  -15.19 KCAL/MOL
REMARK 923 INTER-LIGAND FREE ENERGY PREDICTED BY IDOCK:  -12.02 KCAL/MOL
REMARK 924 INTRA-LIGAND FREE ENERGY PREDICTED BY IDOCK:   -3.17 KCAL/MOL
REMARK 927      BINDING AFFINITY PREDICTED BY RF-SCORE:    0.00 PKD
ROOT
HETATM    1  C   UNL     1     -10.764  11.405  64.256  1.00  0.00    -0.420 C  
HETATM    2  C   UNL     1     -10.384  12.113  65.562  1.00  0.00    -0.263 C  
ENDROOT
BRANCH   2   3
HETATM    3  C   UNL     1     -11.521  12.068  66.609  1.00  0.00    -0.411 C  
BRANCH   3   4
HETATM    4  C   UNL     1     -11.173  11.276  67.837  1.00  0.00    -0.353 A  
HETATM    5  C   UNL     1     -12.105  11.153  68.873  1.00  0.00    -0.276 A  
HETATM    6  C   UNL     1      -8.692   8.572  70.752  1.00  0.00    -0.160 A  
HETATM    7  C   UNL     1      -9.934  10.666  67.975  1.00  0.00    -0.180 A  
HETATM    8  C   UNL     1      -9.682   9.933  69.127  1.00  0.00    -0.204 A  
HETATM    9  C   UNL     1     -11.855  10.380  70.034  1.00  0.00    -0.351 A  
HETATM   10  C   UNL     1     -10.606   9.768  70.185  1.00  0.00    -0.285 A  
HETATM   11  C   UNL     1      -8.397   9.227  69.407  1.00  0.00    -0.127 A  
HETATM   12  N   UNL     1     -10.031   8.997  71.180  1.00  0.00    -0.268 NA 
BRANCH  12  13
HETATM   13  C   UNL     1     -10.579   8.464  72.412  1.00  0.00    -0.335 C  
BRANCH  13  14
HETATM   14  C   UNL     1     -10.739   6.943  72.348  1.00  0.00    -0.257 C  
BRANCH  14  15
HETATM   15  C   UNL     1     -12.110   6.498  71.859  1.00  0.00    -0.339 C  
HETATM   16  O   UNL     1     -12.258   6.859  70.485  1.00  0.00    -0.569 OA 
HETATM   17  H   UNL     1     -13.114   6.581  70.180  1.00  0.00     0.000 HD 
ENDBRANCH  14  15
ENDBRANCH  13  14
ENDBRANCH  12  13
BRANCH   9  18
HETATM   18  C   UNL     1     -12.991  10.358  70.992  1.00  0.00    -0.399 C  
HETATM   19  N   UNL     1     -13.125  11.466  71.799  1.00  0.00    -0.471 N  
HETATM   20  O   UNL     1     -13.755   9.410  71.132  1.00  0.00    -0.304 OA 
HETATM   21  H2  UNL     1     -12.482  12.255  71.743  1.00  0.00     0.000 HD 
HETATM   22  H1  UNL     1     -13.905  11.451  72.457  1.00  0.00     0.000 HD 
ENDBRANCH   9  18
ENDBRANCH   3   4
ENDBRANCH   2   3
BRANCH   2  23
HETATM   23  N   UNL     1      -9.996  13.499  65.243  1.00  0.00    -0.516 NA 
HETATM   24  H   UNL     1      -9.238  13.509  64.562  1.00  0.00     0.000 HD 
BRANCH  23  25
HETATM   25  C   UNL     1     -11.111  14.345  64.790  1.00  0.00    -0.394 C  
BRANCH  25  26
HETATM   26  C   UNL     1     -10.924  15.850  65.080  1.00  0.00    -0.412 C  
BRANCH  26  27
HETATM   27  O   UNL     1     -10.387  16.097  66.386  1.00  0.00    -0.296 OA 
BRANCH  27  28
HETATM   28  C   UNL     1     -10.296  17.406  66.786  1.00  0.00    -0.305 A  
HETATM   29  C   UNL     1     -10.026  18.981  68.607  1.00  0.00    -0.482 A  
HETATM   30  C   UNL     1     -10.515  18.497  65.926  1.00  0.00    -0.379 A  
HETATM   31  C   UNL     1     -10.046  17.666  68.143  1.00  0.00    -0.347 A  
HETATM   32  C   UNL     1     -10.256  20.054  67.743  1.00  0.00    -0.549 A  
HETATM   33  C   UNL     1     -10.504  19.806  66.398  1.00  0.00    -0.618 A  
BRANCH  31  34
HETATM   34  O   UNL     1      -9.929  16.728  69.135  1.00  0.00    -0.267 OA 
BRANCH  34  35
HETATM   35  C   UNL     1     -11.147  16.202  69.674  1.00  0.00    -0.344 C  
HETATM   36  C   UNL     1     -11.320  14.714  69.387  1.00  0.00    -0.284 C  
HETATM   37  F   UNL     1     -10.228  14.144  68.835  1.00  0.00    -0.225 F  
HETATM   38  F   UNL     1     -11.616  14.029  70.516  1.00  0.00    -0.332 F  
HETATM   39  F   UNL     1     -12.353  14.513  68.525  1.00  0.00    -0.300 F  
ENDBRANCH  34  35
ENDBRANCH  31  34
ENDBRANCH  27  28
ENDBRANCH  26  27
ENDBRANCH  25  26
ENDBRANCH  23  25
ENDBRANCH   2  23
TORSDOF 13
ENDMDL
