MODEL        2
REMARK 921   NORMALIZED FREE ENERGY PREDICTED BY IDOCK:   -6.90 KCAL/MOL
REMARK 922        TOTAL FREE ENERGY PREDICTED BY IDOCK:  -12.47 KCAL/MOL
REMARK 923 INTER-LIGAND FREE ENERGY PREDICTED BY IDOCK:  -11.40 KCAL/MOL
REMARK 924 INTRA-LIGAND FREE ENERGY PREDICTED BY IDOCK:   -1.07 KCAL/MOL
REMARK 927      BINDING AFFINITY PREDICTED BY RF-SCORE:    0.00 PKD
ROOT
ATOM      1  C   ALA A   1     -12.668  13.078  70.587  1.00  0.00    -0.175 C  
ATOM      2  C   ALA A   1     -11.771  11.929  70.159  1.00  0.00    -0.337 C  
ATOM      3  CA  ALA A   1     -10.957  12.567  69.023  1.00  0.00    -0.188 C  
ATOM      4  N   ALA A   1     -10.916  14.020  69.349  1.00  0.00    -0.201 N  
ATOM      5  C   ALA A   1     -11.616  12.270  67.675  1.00  0.00    -0.354 C  
ATOM      6  C   ALA A   1     -11.699  14.265  70.565  1.00  0.00    -0.243 C  
ATOM      7  O   ALA A   1     -12.336  13.302  67.182  1.00  0.00    -0.280 OA 
ATOM      8  C   ALA A   1      -9.876  14.882  68.983  1.00  0.00    -0.220 C  
ATOM      9  OXT ALA A   1     -11.542  11.184  67.117  1.00  0.00    -0.495 OA 
ATOM     10  C   ALA A   1     -13.358  12.948  71.931  1.00  0.00    -0.530 C  
ATOM     11  O   ALA A   1      -9.761  15.998  69.495  1.00  0.00    -0.253 OA 
ATOM     12  C   ALA A   1     -12.507  15.552  70.726  1.00  0.00    -0.491 C  
ATOM     13  C   ALA A   1     -14.126  14.238  72.236  1.00  0.00    -0.621 C  
ATOM     14  C   ALA A   1     -13.272  15.502  72.064  1.00  0.00    -0.549 C  
ENDROOT
BRANCH   8  15
ATOM     15  CA  ALA A   1      -8.840  14.366  67.922  1.00  0.00    -0.179 C  
ATOM     16  CB  ALA A   1      -7.519  15.126  68.076  1.00  0.00    -0.128 C  
BRANCH  15  17
ATOM     17  N   ALA A   1      -9.403  14.498  66.563  1.00  0.00    -0.294 NA 
ATOM     18  H   ALA A   1     -10.039  13.724  66.372  1.00  0.00     0.000 HD 
BRANCH  17  19
HETATM   19  C   UNK A   0     -10.073  15.790  66.277  1.00  0.00    -0.303 C  
BRANCH  19  20
HETATM   20  C   UNK A   0      -9.074  16.962  66.183  1.00  0.00    -0.265 C  
BRANCH  20  21
HETATM   21  C   UNK A   0      -9.551  18.232  66.908  1.00  0.00    -0.296 C  
BRANCH  21  22
HETATM   22  C   UNK A   0      -8.383  19.083  67.338  1.00  0.00    -0.299 A  
HETATM   23  C   UNK A   0      -7.816  20.017  66.461  1.00  0.00    -0.334 A  
HETATM   24  C   UNK A   0      -7.875  18.979  68.641  1.00  0.00    -0.383 A  
HETATM   25  C   UNK A   0      -6.753  20.819  66.873  1.00  0.00    -0.366 A  
HETATM   26  C   UNK A   0      -6.809  19.783  69.051  1.00  0.00    -0.372 A  
HETATM   27  C   UNK A   0      -6.248  20.702  68.168  1.00  0.00    -0.350 A  
ENDBRANCH  21  22
ENDBRANCH  20  21
ENDBRANCH  19  20
BRANCH  19  28
HETATM   28  C   UNK A   0     -10.838  15.676  64.941  1.00  0.00    -0.418 C  
HETATM   29  O   UNK A   0     -11.323  16.610  64.321  1.00  0.00    -1.116 OA 
BRANCH  28  30
HETATM   30  O   UNK A   0     -10.969  14.359  64.590  1.00  0.00    -0.390 OA 
BRANCH  30  31
HETATM   31  C   UNK A   0     -12.220  14.014  63.973  1.00  0.00    -0.355 C  
HETATM   32  C   UNK A   0     -12.272  12.503  63.819  1.00  0.00    -0.615 C  
ENDBRANCH  30  31
ENDBRANCH  28  30
ENDBRANCH  19  28
ENDBRANCH  17  19
ENDBRANCH  15  17
ENDBRANCH   8  15
TORSDOF 9
ENDMDL
