MODEL      169
REMARK 921   NORMALIZED FREE ENERGY PREDICTED BY IDOCK:   21.21 KCAL/MOL
REMARK 922        TOTAL FREE ENERGY PREDICTED BY IDOCK:   27.20 KCAL/MOL
REMARK 923 INTER-LIGAND FREE ENERGY PREDICTED BY IDOCK:   22.79 KCAL/MOL
REMARK 924 INTRA-LIGAND FREE ENERGY PREDICTED BY IDOCK:    4.41 KCAL/MOL
REMARK 927      BINDING AFFINITY PREDICTED BY RF-SCORE:    0.00 PKD
ROOT
HETATM    1  C   UNL     1      -8.918   9.592  67.343  1.00  0.00    -0.131 C  
HETATM    2  N   UNL     1      -9.061  10.882  68.007  1.00  0.00    -0.148 N  
HETATM    3  C   UNL     1      -8.107  11.830  67.681  1.00  0.00    -0.144 C  
HETATM    4  O   UNL     1      -7.074  11.559  67.068  1.00  0.00    -0.129 OA 
HETATM    5  C   UNL     1      -8.412  13.251  68.031  1.00  0.00    -0.170 C  
HETATM    6  C   UNL     1      -9.399  13.529  68.921  1.00  0.00     0.193 C  
HETATM    7  C   UNL     1      -7.586  14.196  67.196  1.00  0.00     0.024 C  
HETATM    8  N   UNL     1      -9.712  14.819  69.391  1.00  0.00    -0.100 N  
HETATM    9  C   UNL     1     -10.853  15.090  70.189  1.00  0.00    -0.190 C  
HETATM   10  C   UNL     1     -10.121  11.121  68.892  1.00  0.00    -0.186 C  
HETATM   11  O   UNL     1     -11.183  16.236  70.523  1.00  0.00    -0.376 OA 
HETATM   12  O   UNL     1     -12.400  11.895  70.326  1.00  0.00    -0.274 OA 
HETATM   13  N   UNL     1     -11.614  14.014  70.621  1.00  0.00    -0.143 N  
HETATM   14  C   UNL     1     -10.285  12.405  69.329  1.00  0.00     0.351 C  
HETATM   15  C   UNL     1     -11.502  12.721  70.143  1.00  0.00     0.084 C  
ENDROOT
BRANCH   8  16
HETATM   16  C   UNL     1      -8.814  15.965  69.320  1.00  0.00    -0.249 A  
HETATM   17  C   UNL     1      -8.141  16.248  68.120  1.00  0.00    -0.158 A  
HETATM   18  C   UNL     1      -7.631  18.472  68.891  1.00  0.00    -0.261 A  
HETATM   19  C   UNL     1      -8.195  18.183  70.138  1.00  0.00     2.407 A  
HETATM   20  C   UNL     1      -8.781  16.922  70.352  1.00  0.00     3.141 A  
HETATM   21  C   UNL     1      -7.568  17.497  67.898  1.00  0.00    -0.204 A  
BRANCH  19  22
HETATM   22  N   UNL     1      -8.170  19.225  71.096  1.00  0.00     3.405 N  
HETATM   23  H   UNL     1      -7.644  20.060  70.842  1.00  0.00     0.000 HD 
HETATM   24  C   UNL     1      -8.543  20.525  73.103  1.00  0.00     4.755 C  
HETATM   25  O   UNL     1      -9.466  18.347  72.812  1.00  0.00     7.932 OA 
HETATM   26  C   UNL     1      -8.778  19.237  72.335  1.00  0.00     6.398 C  
ENDBRANCH  19  22
ENDBRANCH   8  16
BRANCH  13  27
HETATM   27  C   UNL     1     -12.796  14.308  71.433  1.00  0.00    -0.344 C  
HETATM   28  C   UNL     1     -13.236  15.738  71.645  1.00  0.00    -0.462 C  
HETATM   29  C   UNL     1     -14.115  14.802  70.879  1.00  0.00    -0.035 C  
ENDBRANCH  13  27
BRANCH  10  30
HETATM   30  N   UNL     1     -10.951  10.051  69.198  1.00  0.00    -0.256 NA 
HETATM   31  H   UNL     1     -11.860  10.061  68.733  1.00  0.00     0.000 HD 
BRANCH  30  32
HETATM   32  C   UNL     1     -10.728   8.953  70.055  1.00  0.00    -0.228 A  
HETATM   33  C   UNL     1      -9.687   8.037  69.880  1.00  0.00    -0.180 A  
HETATM   34  C   UNL     1      -9.626   6.862  70.649  1.00  0.00    -0.171 A  
HETATM   35  C   UNL     1     -10.600   6.600  71.614  1.00  0.00    -0.217 A  
HETATM   36  C   UNL     1     -11.597   7.533  71.866  1.00  0.00    -0.312 A  
HETATM   37  I   UNL     1     -10.596   4.784  72.628  1.00  0.00    -0.214 I  
HETATM   38  C   UNL     1     -11.652   8.688  71.086  1.00  0.00    -0.281 A  
HETATM   39  F   UNL     1     -12.643   9.565  71.320  1.00  0.00    -0.339 F  
ENDBRANCH  30  32
ENDBRANCH  10  30
TORSDOF 5
ENDMDL
