MODEL       10
REMARK 921   NORMALIZED FREE ENERGY PREDICTED BY IDOCK:   -6.75 KCAL/MOL
REMARK 922        TOTAL FREE ENERGY PREDICTED BY IDOCK:  -10.75 KCAL/MOL
REMARK 923 INTER-LIGAND FREE ENERGY PREDICTED BY IDOCK:   -9.83 KCAL/MOL
REMARK 924 INTRA-LIGAND FREE ENERGY PREDICTED BY IDOCK:   -0.92 KCAL/MOL
REMARK 927      BINDING AFFINITY PREDICTED BY RF-SCORE:    0.00 PKD
ROOT
HETATM    1  C   UNL     1     -12.076  14.370  68.257  1.00  0.00    -0.225 C  
HETATM    2  S   UNL     1     -11.674  13.796  66.545  1.00  0.00    -0.408 SA 
HETATM    3  C   UNL     1     -10.170  12.842  67.061  1.00  0.00    -0.243 C  
HETATM    4  C   UNL     1     -10.369  12.565  68.575  1.00  0.00    -0.222 C  
HETATM    5  C   UNL     1     -10.021  11.602  66.174  1.00  0.00    -0.252 C  
HETATM    6  C   UNL     1      -8.943  13.737  66.788  1.00  0.00    -0.202 C  
HETATM    7  N   UNL     1     -11.062  13.735  69.119  1.00  0.00    -0.254 N  
HETATM    8  O   UNL     1      -9.290  15.090  69.810  1.00  0.00    -0.087 OA 
HETATM    9  C   UNL     1     -10.407  14.904  69.384  1.00  0.00    -0.208 C  
HETATM   10  C   UNL     1     -11.515  15.746  68.708  1.00  0.00    -0.388 C  
ENDROOT
BRANCH   4  11
HETATM   11  C   UNL     1     -11.163  11.277  68.890  1.00  0.00    -0.253 C  
HETATM   12  O   UNL     1     -12.342  11.114  68.596  1.00  0.00    -0.549 OA 
BRANCH  11  13
HETATM   13  O   UNL     1     -10.396  10.338  69.509  1.00  0.00    -0.217 OA 
BRANCH  13  14
HETATM   14  C   UNL     1     -10.611   8.983  69.110  1.00  0.00    -0.203 C  
BRANCH  14  15
HETATM   15  O   UNL     1     -10.429   8.076  70.200  1.00  0.00    -0.215 OA 
BRANCH  15  16
HETATM   16  C   UNL     1     -11.385   7.114  70.301  1.00  0.00    -0.269 C  
HETATM   17  O   UNL     1     -11.655   6.311  69.418  1.00  0.00    -0.403 OA 
BRANCH  16  18
HETATM   18  C   UNL     1     -12.074   7.165  71.668  1.00  0.00    -0.371 C  
HETATM   19  C   UNL     1     -13.573   7.442  71.471  1.00  0.00    -0.454 C  
HETATM   20  C   UNL     1     -11.465   8.292  72.514  1.00  0.00    -0.454 C  
HETATM   21  C   UNL     1     -11.904   5.817  72.380  1.00  0.00    -0.227 C  
ENDBRANCH  16  18
ENDBRANCH  15  16
ENDBRANCH  14  15
ENDBRANCH  13  14
ENDBRANCH  11  13
ENDBRANCH   4  11
BRANCH  10  22
HETATM   22  N   UNL     1     -11.091  16.685  67.643  1.00  0.00    -0.183 N  
HETATM   23  C   UNL     1     -10.480  17.885  67.934  1.00  0.00    -0.396 C  
HETATM   24  O   UNL     1     -10.168  18.206  69.082  1.00  0.00    -0.344 OA 
HETATM   25  H   UNL     1     -11.256  16.437  66.668  1.00  0.00     0.000 HD 
BRANCH  23  26
HETATM   26  C   UNL     1     -10.210  18.781  66.703  1.00  0.00    -0.408 C  
HETATM   27  N   UNL     1     -10.586  18.056  65.459  1.00  0.00    -0.601 NA 
HETATM   28  H2  UNL     1     -11.550  17.723  65.486  1.00  0.00     0.000 HD 
HETATM   29  H1  UNL     1     -10.408  18.646  64.647  1.00  0.00     0.000 HD 
BRANCH  26  30
HETATM   30  C   UNL     1      -8.773  19.269  66.675  1.00  0.00    -0.343 A  
HETATM   31  C   UNL     1      -7.774  18.446  66.129  1.00  0.00    -0.253 A  
HETATM   32  C   UNL     1      -6.442  18.863  66.100  1.00  0.00    -0.237 A  
HETATM   33  C   UNL     1      -6.090  20.111  66.608  1.00  0.00    -0.200 A  
HETATM   34  C   UNL     1      -7.071  20.949  67.131  1.00  0.00    -0.413 A  
HETATM   35  C   UNL     1      -8.405  20.535  67.157  1.00  0.00    -0.348 A  
ENDBRANCH  26  30
ENDBRANCH  23  26
ENDBRANCH  10  22
TORSDOF 9
ENDMDL
