MODEL       46
REMARK 921   NORMALIZED FREE ENERGY PREDICTED BY IDOCK:   -5.67 KCAL/MOL
REMARK 922        TOTAL FREE ENERGY PREDICTED BY IDOCK:  -10.53 KCAL/MOL
REMARK 923 INTER-LIGAND FREE ENERGY PREDICTED BY IDOCK:   -9.79 KCAL/MOL
REMARK 924 INTRA-LIGAND FREE ENERGY PREDICTED BY IDOCK:   -0.74 KCAL/MOL
REMARK 927      BINDING AFFINITY PREDICTED BY RF-SCORE:    0.00 PKD
ROOT
HETATM    1  C   UNL     1      -7.878  10.551  69.253  1.00  0.00    -0.144 C  
HETATM    2  O   UNL     1      -9.048   9.961  68.690  1.00  0.00    -0.126 OA 
ENDROOT
BRANCH   2   3
HETATM    3  C   UNL     1     -10.098   9.712  69.550  1.00  0.00    -0.209 A  
HETATM    4  C   UNL     1     -11.123  10.666  69.845  1.00  0.00    -0.364 A  
HETATM    5  C   UNL     1     -12.195  10.245  70.665  1.00  0.00    -0.329 A  
HETATM    6  C   UNL     1     -11.269   8.008  70.781  1.00  0.00    -0.275 A  
HETATM    7  O   UNL     1     -13.175  11.076  71.115  1.00  0.00    -0.280 OA 
HETATM    8  C   UNL     1     -10.168   8.375  70.016  1.00  0.00    -0.202 A  
HETATM    9  C   UNL     1     -12.254   8.923  71.090  1.00  0.00    -0.303 A  
HETATM   10  C   UNL     1     -13.292   8.250  71.875  1.00  0.00    -0.342 C  
HETATM   11  C   UNL     1      -9.079   7.386  69.704  1.00  0.00    -0.140 C  
HETATM   12  H   UNL     1     -13.895  10.793  71.666  1.00  0.00     0.000 HD 
HETATM   13  O   UNL     1     -12.879   6.948  72.030  1.00  0.00    -0.279 OA 
HETATM   14  C   UNL     1     -11.610   6.707  71.402  1.00  0.00    -0.313 C  
HETATM   15  O   UNL     1     -14.343   8.693  72.296  1.00  0.00    -0.451 OA 
BRANCH   4  16
HETATM   16  C   UNL     1     -10.954  12.087  69.344  1.00  0.00    -0.128 C  
BRANCH  16  17
HETATM   17  C   UNL     1     -11.305  12.426  67.932  1.00  0.00    -0.344 C  
HETATM   18  C   UNL     1     -11.617  13.643  67.448  1.00  0.00    -0.389 C  
HETATM   19  C   UNL     1     -11.611  14.922  68.243  1.00  0.00    -0.356 C  
BRANCH  18  20
HETATM   20  C   UNL     1     -12.030  13.771  66.002  1.00  0.00    -0.443 C  
BRANCH  20  21
HETATM   21  C   UNL     1     -10.864  14.263  65.155  1.00  0.00    -0.387 C  
BRANCH  21  22
HETATM   22  C   UNL     1     -11.073  15.694  64.745  1.00  0.00    -0.412 C  
HETATM   23  O   UNL     1     -11.955  16.105  64.007  1.00  0.00    -0.897 OA 
BRANCH  22  24
HETATM   24  O   UNL     1     -10.029  16.434  65.206  1.00  0.00    -0.519 OA 
BRANCH  24  25
HETATM   25  C   UNL     1     -10.442  17.557  66.001  1.00  0.00    -0.274 C  
BRANCH  25  26
HETATM   26  C   UNL     1      -9.462  17.633  67.185  1.00  0.00    -0.267 C  
BRANCH  26  27
HETATM   27  N   UNL     1      -8.935  18.961  67.513  1.00  0.00    -0.283 NA 
HETATM   28  C   UNL     1      -7.927  18.945  68.593  1.00  0.00    -0.346 C  
HETATM   29  C   UNL     1      -6.580  18.332  68.177  1.00  0.00    -0.205 C  
HETATM   30  O   UNL     1      -6.033  19.005  67.036  1.00  0.00    -0.169 OA 
HETATM   31  C   UNL     1      -6.948  18.976  65.934  1.00  0.00    -0.268 C  
HETATM   32  C   UNL     1      -8.312  19.580  66.316  1.00  0.00    -0.345 C  
ENDBRANCH  26  27
ENDBRANCH  25  26
ENDBRANCH  24  25
ENDBRANCH  22  24
ENDBRANCH  21  22
ENDBRANCH  20  21
ENDBRANCH  18  20
ENDBRANCH  16  17
ENDBRANCH   4  16
ENDBRANCH   2   3
TORSDOF 10
ENDMDL
