MODEL        2
REMARK 921   NORMALIZED FREE ENERGY PREDICTED BY IDOCK:   -8.65 KCAL/MOL
REMARK 922        TOTAL FREE ENERGY PREDICTED BY IDOCK:  -13.51 KCAL/MOL
REMARK 923 INTER-LIGAND FREE ENERGY PREDICTED BY IDOCK:  -12.66 KCAL/MOL
REMARK 924 INTRA-LIGAND FREE ENERGY PREDICTED BY IDOCK:   -0.86 KCAL/MOL
REMARK 927      BINDING AFFINITY PREDICTED BY RF-SCORE:    0.00 PKD
ROOT
HETATM    1  C   UNL     1     -11.805  11.342  70.806  1.00  0.00    -0.183 C  
HETATM    2  S   UNL     1     -11.921  10.849  69.074  1.00  0.00    -0.150 SA 
HETATM    3  C   UNL     1     -11.208  12.388  68.451  1.00  0.00    -0.273 C  
HETATM    4  C   UNL     1     -11.751  13.658  69.094  1.00  0.00    -0.376 C  
HETATM    5  O   UNL     1     -14.055  14.913  71.637  1.00  0.00    -0.417 OA 
HETATM    6  CA  UNL     1     -12.444  13.687  70.271  1.00  0.00    -0.265 C  
HETATM    7  N   UNL     1     -12.607  12.534  70.987  1.00  0.00    -0.326 N  
HETATM    8  O   UNL     1     -14.300  12.567  72.572  1.00  0.00    -0.113 OA 
HETATM    9  C   UNL     1     -13.019  14.989  70.787  1.00  0.00    -0.389 C  
HETATM   10  CA  UNL     1     -12.761  10.632  71.821  1.00  0.00    -0.383 C  
HETATM   11  OXT UNL     1     -12.575  16.080  70.469  1.00  0.00    -0.317 OA 
HETATM   12  C   UNL     1     -13.398  12.045  71.960  1.00  0.00    -0.341 C  
ENDROOT
BRANCH   4  13
HETATM   13  C   UNL     1     -11.543  14.864  68.178  1.00  0.00    -0.334 C  
BRANCH  13  14
HETATM   14  S   UNL     1     -10.278  14.523  66.903  1.00  0.00    -0.267 SA 
BRANCH  14  15
HETATM   15  C   UNL     1     -11.011  15.318  65.551  1.00  0.00    -0.359 A  
HETATM   16  N   UNL     1     -10.660  16.488  65.069  1.00  0.00    -0.698 NA 
HETATM   17  N   UNL     1     -12.041  14.826  64.795  1.00  0.00    -0.407 NA 
HETATM   18  N   UNL     1     -11.459  16.706  63.977  1.00  0.00    -1.136 NA 
HETATM   19  N   UNL     1     -12.280  15.687  63.779  1.00  0.00    -0.506 NA 
BRANCH  17  20
HETATM   20  C   UNL     1     -12.725  13.554  64.855  1.00  0.00    -0.287 C  
HETATM   21  O   UNL     1     -11.173  12.578  63.223  1.00  0.00    -0.452 OA 
HETATM   22  C   UNL     1     -12.416  12.573  63.746  1.00  0.00    -0.455 C  
HETATM   23  O   UNL     1     -13.236  11.734  63.390  1.00  0.00    -0.569 OA 
ENDBRANCH  17  20
ENDBRANCH  14  15
ENDBRANCH  13  14
ENDBRANCH   4  13
BRANCH  10  24
HETATM   24  N   UNL     1     -13.656   9.565  71.316  1.00  0.00    -0.471 N  
HETATM   25  C   UNL     1     -13.560   8.226  71.583  1.00  0.00    -0.346 C  
HETATM   26  O   UNL     1     -14.341   7.449  71.033  1.00  0.00    -0.278 OA 
HETATM   27  H   UNL     1     -14.421   9.858  70.708  1.00  0.00     0.000 HD 
BRANCH  25  28
HETATM   28  C   UNL     1     -12.477   7.747  72.538  1.00  0.00    -0.072 C  
BRANCH  28  29
HETATM   29  C   UNL     1     -11.478   6.790  71.925  1.00  0.00    -0.318 A  
HETATM   30  C   UNL     1     -10.479   6.139  72.684  1.00  0.00    -0.233 A  
HETATM   31  C   UNL     1      -9.601   5.258  72.020  1.00  0.00    -0.189 A  
HETATM   32  C   UNL     1     -11.577   6.514  70.544  1.00  0.00    -0.455 A  
HETATM   33  C   UNL     1      -9.718   4.996  70.656  1.00  0.00    -0.266 A  
HETATM   34  C   UNL     1     -10.703   5.630  69.915  1.00  0.00    -0.399 A  
BRANCH  30  35
HETATM   35  C   UNL     1     -10.276   6.405  74.164  1.00  0.00    -0.343 C  
HETATM   36  N   UNL     1      -8.988   7.034  74.457  1.00  0.00    -0.283 NA 
HETATM   37  H1  UNL     1      -8.852   7.213  75.452  1.00  0.00     0.000 HD 
HETATM   38  H2  UNL     1      -8.867   7.889  73.912  1.00  0.00     0.000 HD 
ENDBRANCH  30  35
ENDBRANCH  28  29
ENDBRANCH  25  28
ENDBRANCH  10  24
TORSDOF 8
ENDMDL
