MODEL       26
REMARK 921   NORMALIZED FREE ENERGY PREDICTED BY IDOCK:   -5.47 KCAL/MOL
REMARK 922        TOTAL FREE ENERGY PREDICTED BY IDOCK:   -6.23 KCAL/MOL
REMARK 923 INTER-LIGAND FREE ENERGY PREDICTED BY IDOCK:   -6.01 KCAL/MOL
REMARK 924 INTRA-LIGAND FREE ENERGY PREDICTED BY IDOCK:   -0.22 KCAL/MOL
REMARK 927      BINDING AFFINITY PREDICTED BY RF-SCORE:    0.00 PKD
ROOT
HETATM    1 NA   UNL     1     -13.287  15.502  69.557  1.00  0.00    -0.551 Na 
HETATM    2 NA   UNL     2      -9.845   9.635  71.783  1.00  0.00    -0.271 Na 
HETATM    3 NA   UNL     3     -14.321  14.450  65.693  1.00  0.00    -0.589 Na 
HETATM    4 NA   UNL     4     -12.118   9.516  68.234  1.00  0.00    -0.405 Na 
HETATM    5  C   UNL     5     -10.450  13.734  69.368  1.00  0.00     0.140 C  
HETATM    6  C   UNL     5     -10.162  12.910  68.156  1.00  0.00    -0.239 A  
HETATM    7  C   UNL     5     -10.497  13.234  66.843  1.00  0.00    -0.261 A  
HETATM    8  C   UNL     5      -9.576  11.674  68.413  1.00  0.00    -0.195 A  
HETATM    9  C   UNL     5     -10.182  12.321  65.776  1.00  0.00    -0.281 A  
HETATM   10  C   UNL     5      -9.492  10.697  67.433  1.00  0.00    -0.154 A  
HETATM   11  C   UNL     5     -10.343  12.658  64.409  1.00  0.00    -0.386 A  
HETATM   12  C   UNL     5      -9.697  11.022  66.085  1.00  0.00    -0.257 A  
HETATM   13  C   UNL     5     -10.006  11.765  63.386  1.00  0.00    -0.446 A  
HETATM   14  C   UNL     5      -9.414  10.113  65.040  1.00  0.00    -0.330 A  
HETATM   15  C   UNL     5      -9.544  10.493  63.703  1.00  0.00    -0.370 A  
ENDROOT
BRANCH   7  16
HETATM   16  O   UNL     5     -11.038  14.432  66.484  1.00  0.00    -0.317 OA 
HETATM   17  O   UNL     5     -11.130  16.925  66.662  1.00  0.00     0.059 OA 
HETATM   18  O   UNL     5      -8.992  15.895  67.018  1.00  0.00    -0.197 OA 
HETATM   19  P   UNL     5     -10.253  15.801  66.157  1.00  0.00    -0.358 P  
HETATM   20  O   UNL     5      -9.840  15.893  64.709  1.00  0.00    -0.105 OA 
ENDBRANCH   7  16
BRANCH  10  21
HETATM   21  O   UNL     5      -9.329   9.395  67.837  1.00  0.00    -0.129 OA 
HETATM   22  P   UNL     5      -7.861   8.756  68.181  1.00  0.00    -0.102 P  
HETATM   23  O   UNL     5      -6.969   9.885  68.721  1.00  0.00    -0.060 OA 
HETATM   24  O   UNL     5      -7.194   8.263  66.920  1.00  0.00    -0.080 OA 
HETATM   25  O   UNL     5      -8.061   7.809  69.319  1.00  0.00    -0.122 OA 
ENDBRANCH  10  21
TORSDOF 2
ENDMDL
