MODEL        1
REMARK 921   NORMALIZED FREE ENERGY PREDICTED BY IDOCK:   -3.86 KCAL/MOL
REMARK 922        TOTAL FREE ENERGY PREDICTED BY IDOCK:  -17.94 KCAL/MOL
REMARK 923 INTER-LIGAND FREE ENERGY PREDICTED BY IDOCK:  -12.44 KCAL/MOL
REMARK 924 INTRA-LIGAND FREE ENERGY PREDICTED BY IDOCK:   -5.50 KCAL/MOL
REMARK 927      BINDING AFFINITY PREDICTED BY RF-SCORE:    0.00 PKD
ROOT
HETATM    1  C   UNK     1     -10.035   3.492  64.599  1.00  0.00    -0.153 C  
HETATM    2  C   UNK     1     -10.752   2.879  63.399  1.00  0.00    -0.242 C  
HETATM    3  N   UNK     1      -9.638   4.898  64.284  1.00  0.00    -0.345 NA 
HETATM    4  H2  UNK     1      -8.927   4.925  63.554  1.00  0.00     0.000 HD 
HETATM    5  O   UNK     1     -10.757   3.713  62.331  1.00  0.00    -0.181 OA 
HETATM    6  O   UNK     1     -11.260   1.768  63.395  1.00  0.00    -0.213 OA 
HETATM    7  H1  UNK     1     -10.439   5.482  64.040  1.00  0.00     0.000 HD 
ENDROOT
BRANCH   1   8
HETATM    8  C   UNK     1      -8.826   2.610  64.969  1.00  0.00    -0.123 C  
BRANCH   8   9
HETATM    9  O   UNK     1      -9.057   1.794  66.128  1.00  0.00    -0.114 OA 
BRANCH   9  10
HETATM   10  P   UNK     1      -8.211   2.394  67.513  1.00  0.00    -0.078 P  
HETATM   11  O   UNK     1      -9.517   3.081  67.923  1.00  0.00    -0.207 OA 
HETATM   12  O   UNK     1      -7.439   3.435  66.524  1.00  0.00    -0.074 OA 
BRANCH  10  13
HETATM   13  O   UNK     1      -7.365   2.994  68.897  1.00  0.00    -0.048 OA 
BRANCH  13  14
HETATM   14  C   UNK     1      -8.135   3.856  69.739  1.00  0.00    -0.054 C  
BRANCH  14  15
HETATM   15  C   UNK     1      -7.548   5.253  69.873  1.00  0.00    -0.065 C  
BRANCH  15  16
HETATM   16  O   UNK     1      -7.890   5.766  71.185  1.00  0.00    -0.105 OA 
BRANCH  16  17
HETATM   17  C   UNK     1      -7.089   5.360  72.205  1.00  0.00    -0.086 C  
HETATM   18  O   UNK     1      -6.139   4.594  72.096  1.00  0.00    -0.015 OA 
BRANCH  17  19
HETATM   19  C   UNK     1      -7.517   5.975  73.507  1.00  0.00    -0.093 C  
BRANCH  19  20
HETATM   20  C   UNK     1      -7.992   7.414  73.327  1.00  0.00    -0.129 C  
BRANCH  20  21
HETATM   21  C   UNK     1      -6.869   8.439  73.535  1.00  0.00    -0.127 C  
BRANCH  21  22
HETATM   22  C   UNK     1      -5.804   8.340  72.444  1.00  0.00    -0.052 C  
BRANCH  22  23
HETATM   23  C   UNK     1      -5.176   9.654  72.082  1.00  0.00    -0.068 C  
HETATM   24  C   UNK     1      -5.665  10.449  71.114  1.00  0.00    -0.017 C  
BRANCH  24  25
HETATM   25  C   UNK     1      -6.846  10.125  70.242  1.00  0.00    -0.150 C  
BRANCH  25  26
HETATM   26  C   UNK     1      -6.571  10.361  68.783  1.00  0.00    -0.052 C  
HETATM   27  C   UNK     1      -6.790  11.529  68.154  1.00  0.00    -0.068 C  
BRANCH  27  28
HETATM   28  C   UNK     1      -7.400  12.750  68.780  1.00  0.00    -0.067 C  
BRANCH  28  29
HETATM   29  C   UNK     1      -6.453  13.478  69.693  1.00  0.00    -0.072 C  
HETATM   30  C   UNK     1      -6.410  14.818  69.794  1.00  0.00    -0.152 C  
BRANCH  30  31
HETATM   31  C   UNK     1      -7.242  15.768  68.980  1.00  0.00    -0.168 C  
BRANCH  31  32
HETATM   32  C   UNK     1      -6.868  17.204  69.222  1.00  0.00    -0.209 C  
HETATM   33  C   UNK     1      -6.840  18.142  68.255  1.00  0.00    -0.229 C  
BRANCH  33  34
HETATM   34  C   UNK     1      -7.064  17.882  66.796  1.00  0.00    -0.230 C  
BRANCH  34  35
HETATM   35  C   UNK     1      -7.686  19.046  66.080  1.00  0.00    -0.291 C  
HETATM   36  C   UNK     1      -8.957  19.447  66.262  1.00  0.00    -0.374 C  
BRANCH  36  37
HETATM   37  C   UNK     1      -9.949  18.802  67.192  1.00  0.00    -0.376 C  
HETATM   38  C   UNK     1     -10.158  19.633  68.447  1.00  0.00    -0.557 C  
ENDBRANCH  36  37
ENDBRANCH  34  35
ENDBRANCH  33  34
ENDBRANCH  31  32
ENDBRANCH  30  31
ENDBRANCH  28  29
ENDBRANCH  27  28
ENDBRANCH  25  26
ENDBRANCH  24  25
ENDBRANCH  22  23
ENDBRANCH  21  22
ENDBRANCH  20  21
ENDBRANCH  19  20
ENDBRANCH  17  19
ENDBRANCH  16  17
ENDBRANCH  15  16
BRANCH  15  39
HETATM   39  C   UNK     1      -8.144   6.189  68.820  1.00  0.00    -0.105 C  
BRANCH  39  40
HETATM   40  O   UNK     1      -9.231   6.950  69.375  1.00  0.00    -0.147 OA 
BRANCH  40  41
HETATM   41  C   UNK     1     -10.425   6.791  68.744  1.00  0.00    -0.208 C  
HETATM   42  O   UNK     1     -11.127   5.791  68.800  1.00  0.00    -0.243 OA 
BRANCH  41  43
HETATM   43  C   UNK     1     -10.793   8.043  67.995  1.00  0.00    -0.011 C  
BRANCH  43  44
HETATM   44  C   UNK     1     -10.053   8.106  66.663  1.00  0.00    -0.344 C  
BRANCH  44  45
HETATM   45  C   UNK     1      -9.069   9.278  66.623  1.00  0.00    -0.177 C  
BRANCH  45  46
HETATM   46  C   UNK     1      -8.474   9.480  65.258  1.00  0.00    -0.159 C  
HETATM   47  C   UNK     1      -9.101  10.125  64.262  1.00  0.00    -0.288 C  
BRANCH  47  48
HETATM   48  C   UNK     1     -10.496  10.674  64.333  1.00  0.00    -0.247 C  
BRANCH  48  49
HETATM   49  C   UNK     1     -10.641  11.986  63.616  1.00  0.00    -0.503 C  
HETATM   50  C   UNK     1     -11.417  12.995  64.051  1.00  0.00    -0.473 C  
BRANCH  50  51
HETATM   51  C   UNK     1     -12.291  12.940  65.270  1.00  0.00    -0.544 C  
BRANCH  51  52
HETATM   52  C   UNK     1     -11.587  12.391  66.479  1.00  0.00    -0.447 C  
HETATM   53  C   UNK     1     -10.767  13.129  67.249  1.00  0.00    -0.262 C  
BRANCH  53  54
HETATM   54  C   UNK     1     -10.494  14.595  67.059  1.00  0.00    -0.269 C  
BRANCH  54  55
HETATM   55  C   UNK     1     -11.623  15.461  67.542  1.00  0.00    -0.176 C  
HETATM   56  C   UNK     1     -11.719  15.935  68.797  1.00  0.00    -0.355 C  
BRANCH  56  57
HETATM   57  C   UNK     1     -10.756  15.638  69.910  1.00  0.00    -0.328 C  
BRANCH  57  58
HETATM   58  C   UNK     1     -11.305  16.003  71.259  1.00  0.00    -0.397 C  
HETATM   59  C   UNK     1     -11.971  15.155  72.061  1.00  0.00    -0.479 C  
BRANCH  59  60
HETATM   60  C   UNK     1     -12.287  13.719  71.745  1.00  0.00    -0.154 C  
HETATM   61  C   UNK     1     -13.757  13.413  71.978  1.00  0.00    -0.541 C  
ENDBRANCH  59  60
ENDBRANCH  57  58
ENDBRANCH  56  57
ENDBRANCH  54  55
ENDBRANCH  53  54
ENDBRANCH  51  52
ENDBRANCH  50  51
ENDBRANCH  48  49
ENDBRANCH  47  48
ENDBRANCH  45  46
ENDBRANCH  44  45
ENDBRANCH  43  44
ENDBRANCH  41  43
ENDBRANCH  40  41
ENDBRANCH  39  40
ENDBRANCH  15  39
ENDBRANCH  14  15
ENDBRANCH  13  14
ENDBRANCH  10  13
ENDBRANCH   9  10
ENDBRANCH   8   9
ENDBRANCH   1   8
TORSDOF 38
ENDMDL
MODEL        2
REMARK 921   NORMALIZED FREE ENERGY PREDICTED BY IDOCK:   -3.68 KCAL/MOL
REMARK 922        TOTAL FREE ENERGY PREDICTED BY IDOCK:  -17.36 KCAL/MOL
REMARK 923 INTER-LIGAND FREE ENERGY PREDICTED BY IDOCK:  -10.99 KCAL/MOL
REMARK 924 INTRA-LIGAND FREE ENERGY PREDICTED BY IDOCK:   -6.37 KCAL/MOL
REMARK 927      BINDING AFFINITY PREDICTED BY RF-SCORE:    0.00 PKD
ROOT
HETATM    1  C   UNK     1      -9.729   3.997  64.618  1.00  0.00    -0.185 C  
HETATM    2  C   UNK     1     -10.580   3.420  63.490  1.00  0.00    -0.260 C  
HETATM    3  N   UNK     1      -9.039   5.236  64.146  1.00  0.00    -0.351 NA 
HETATM    4  H2  UNK     1      -8.349   5.020  63.426  1.00  0.00     0.000 HD 
HETATM    5  O   UNK     1     -10.418   4.105  62.331  1.00  0.00    -0.191 OA 
HETATM    6  O   UNK     1     -11.319   2.455  63.609  1.00  0.00    -0.226 OA 
HETATM    7  H1  UNK     1      -9.695   5.948  63.826  1.00  0.00     0.000 HD 
ENDROOT
BRANCH   1   8
HETATM    8  C   UNK     1      -8.737   2.920  65.102  1.00  0.00    -0.113 C  
BRANCH   8   9
HETATM    9  O   UNK     1      -9.267   2.099  66.155  1.00  0.00    -0.085 OA 
BRANCH   9  10
HETATM   10  P   UNK     1      -8.483   2.409  67.665  1.00  0.00    -0.107 P  
HETATM   11  O   UNK     1      -9.632   3.372  67.981  1.00  0.00    -0.182 OA 
HETATM   12  O   UNK     1      -7.371   3.278  66.849  1.00  0.00    -0.068 OA 
BRANCH  10  13
HETATM   13  O   UNK     1      -7.700   2.720  69.176  1.00  0.00    -0.047 OA 
BRANCH  13  14
HETATM   14  C   UNK     1      -8.318   3.735  69.970  1.00  0.00    -0.055 C  
BRANCH  14  15
HETATM   15  C   UNK     1      -7.416   4.932  70.232  1.00  0.00    -0.058 C  
BRANCH  15  16
HETATM   16  O   UNK     1      -7.913   5.629  71.401  1.00  0.00    -0.108 OA 
BRANCH  16  17
HETATM   17  C   UNK     1      -7.582   5.082  72.600  1.00  0.00    -0.096 C  
HETATM   18  O   UNK     1      -6.688   4.264  72.781  1.00  0.00    -0.046 OA 
BRANCH  17  19
HETATM   19  C   UNK     1      -8.461   5.610  73.697  1.00  0.00    -0.114 C  
BRANCH  19  20
HETATM   20  C   UNK     1      -8.844   7.069  73.467  1.00  0.00    -0.171 C  
BRANCH  20  21
HETATM   21  C   UNK     1      -7.909   8.049  74.188  1.00  0.00    -0.270 C  
BRANCH  21  22
HETATM   22  C   UNK     1      -6.445   7.634  74.057  1.00  0.00    -0.088 C  
BRANCH  22  23
HETATM   23  C   UNK     1      -5.502   8.781  73.844  1.00  0.00    -0.107 C  
HETATM   24  C   UNK     1      -5.356   9.389  72.653  1.00  0.00    -0.050 C  
BRANCH  24  25
HETATM   25  C   UNK     1      -6.056   8.987  71.384  1.00  0.00    -0.065 C  
BRANCH  25  26
HETATM   26  C   UNK     1      -5.188   9.147  70.168  1.00  0.00    -0.028 C  
HETATM   27  C   UNK     1      -5.337  10.127  69.259  1.00  0.00    -0.038 C  
BRANCH  27  28
HETATM   28  C   UNK     1      -6.421  11.165  69.274  1.00  0.00    -0.088 C  
BRANCH  28  29
HETATM   29  C   UNK     1      -6.009  12.434  69.966  1.00  0.00    -0.149 C  
HETATM   30  C   UNK     1      -6.576  13.628  69.717  1.00  0.00    -0.009 C  
BRANCH  30  31
HETATM   31  C   UNK     1      -7.641  13.874  68.686  1.00  0.00    -0.130 C  
BRANCH  31  32
HETATM   32  C   UNK     1      -7.103  14.572  67.467  1.00  0.00    -0.199 C  
HETATM   33  C   UNK     1      -7.081  15.911  67.322  1.00  0.00    -0.242 C  
BRANCH  33  34
HETATM   34  C   UNK     1      -7.679  16.893  68.285  1.00  0.00    -0.205 C  
BRANCH  34  35
HETATM   35  C   UNK     1      -9.063  17.325  67.899  1.00  0.00    -0.239 C  
HETATM   36  C   UNK     1     -10.185  16.853  68.472  1.00  0.00    -0.310 C  
BRANCH  36  37
HETATM   37  C   UNK     1     -10.236  15.827  69.572  1.00  0.00    -0.271 C  
HETATM   38  C   UNK     1     -11.355  16.121  70.557  1.00  0.00    -0.392 C  
ENDBRANCH  36  37
ENDBRANCH  34  35
ENDBRANCH  33  34
ENDBRANCH  31  32
ENDBRANCH  30  31
ENDBRANCH  28  29
ENDBRANCH  27  28
ENDBRANCH  25  26
ENDBRANCH  24  25
ENDBRANCH  22  23
ENDBRANCH  21  22
ENDBRANCH  20  21
ENDBRANCH  19  20
ENDBRANCH  17  19
ENDBRANCH  16  17
ENDBRANCH  15  16
BRANCH  15  39
HETATM   39  C   UNK     1      -7.449   5.898  69.045  1.00  0.00    -0.085 C  
BRANCH  39  40
HETATM   40  O   UNK     1      -8.243   7.057  69.356  1.00  0.00    -0.128 OA 
BRANCH  40  41
HETATM   41  C   UNK     1      -9.395   7.174  68.643  1.00  0.00    -0.134 C  
HETATM   42  O   UNK     1     -10.385   6.469  68.778  1.00  0.00    -0.166 OA 
BRANCH  41  43
HETATM   43  C   UNK     1      -9.301   8.328  67.683  1.00  0.00    -0.158 C  
BRANCH  43  44
HETATM   44  C   UNK     1      -8.364   7.989  66.529  1.00  0.00    -0.121 C  
BRANCH  44  45
HETATM   45  C   UNK     1      -7.171   8.947  66.475  1.00  0.00    -0.085 C  
BRANCH  45  46
HETATM   46  C   UNK     1      -6.335   8.752  65.242  1.00  0.00    -0.060 C  
HETATM   47  C   UNK     1      -6.824   8.831  63.994  1.00  0.00    -0.083 C  
BRANCH  47  48
HETATM   48  C   UNK     1      -8.266   9.052  63.644  1.00  0.00    -0.177 C  
BRANCH  48  49
HETATM   49  C   UNK     1      -8.448  10.049  62.535  1.00  0.00    -0.179 C  
HETATM   50  C   UNK     1      -9.276  11.106  62.609  1.00  0.00    -0.357 C  
BRANCH  50  51
HETATM   51  C   UNK     1     -10.178  11.410  63.770  1.00  0.00    -0.433 C  
BRANCH  51  52
HETATM   52  C   UNK     1      -9.543  11.127  65.102  1.00  0.00    -0.273 C  
HETATM   53  C   UNK     1      -9.485  12.033  66.095  1.00  0.00    -0.241 C  
BRANCH  53  54
HETATM   54  C   UNK     1     -10.094  13.407  66.045  1.00  0.00    -0.308 C  
BRANCH  54  55
HETATM   55  C   UNK     1     -11.551  13.407  66.410  1.00  0.00    -0.381 C  
HETATM   56  C   UNK     1     -12.015  13.134  67.643  1.00  0.00    -0.363 C  
BRANCH  56  57
HETATM   57  C   UNK     1     -11.167  12.742  68.818  1.00  0.00    -0.327 C  
BRANCH  57  58
HETATM   58  C   UNK     1     -11.983  12.448  70.044  1.00  0.00    -0.372 C  
HETATM   59  C   UNK     1     -12.084  11.235  70.614  1.00  0.00    -0.480 C  
BRANCH  59  60
HETATM   60  C   UNK     1     -11.416   9.980  70.123  1.00  0.00    -0.344 C  
HETATM   61  C   UNK     1     -10.515   9.380  71.190  1.00  0.00    -0.392 C  
ENDBRANCH  59  60
ENDBRANCH  57  58
ENDBRANCH  56  57
ENDBRANCH  54  55
ENDBRANCH  53  54
ENDBRANCH  51  52
ENDBRANCH  50  51
ENDBRANCH  48  49
ENDBRANCH  47  48
ENDBRANCH  45  46
ENDBRANCH  44  45
ENDBRANCH  43  44
ENDBRANCH  41  43
ENDBRANCH  40  41
ENDBRANCH  39  40
ENDBRANCH  15  39
ENDBRANCH  14  15
ENDBRANCH  13  14
ENDBRANCH  10  13
ENDBRANCH   9  10
ENDBRANCH   8   9
ENDBRANCH   1   8
TORSDOF 38
ENDMDL
MODEL        3
REMARK 921   NORMALIZED FREE ENERGY PREDICTED BY IDOCK:    0.53 KCAL/MOL
REMARK 922        TOTAL FREE ENERGY PREDICTED BY IDOCK:   -3.78 KCAL/MOL
REMARK 923 INTER-LIGAND FREE ENERGY PREDICTED BY IDOCK:   -5.19 KCAL/MOL
REMARK 924 INTRA-LIGAND FREE ENERGY PREDICTED BY IDOCK:    1.41 KCAL/MOL
REMARK 927      BINDING AFFINITY PREDICTED BY RF-SCORE:    0.00 PKD
ROOT
HETATM    1  C   UNK     1      -8.759   3.212  64.991  1.00  0.00    -0.114 C  
HETATM    2  C   UNK     1      -9.784   2.718  63.974  1.00  0.00    -0.148 C  
HETATM    3  N   UNK     1      -7.520   3.656  64.282  1.00  0.00    -0.070 NA 
HETATM    4  H2  UNK     1      -7.045   2.867  63.844  1.00  0.00     0.000 HD 
HETATM    5  O   UNK     1      -9.284   2.707  62.714  1.00  0.00    -0.091 OA 
HETATM    6  O   UNK     1     -10.920   2.369  64.255  1.00  0.00     0.330 OA 
HETATM    7  H1  UNK     1      -7.703   4.397  63.606  1.00  0.00     0.000 HD 
ENDROOT
BRANCH   1   8
HETATM    8  C   UNK     1      -8.482   2.091  66.013  1.00  0.00    -0.102 C  
BRANCH   8   9
HETATM    9  O   UNK     1      -9.446   2.050  67.078  1.00  0.00    -0.016 OA 
BRANCH   9  10
HETATM   10  P   UNK     1      -8.688   2.130  68.631  1.00  0.00    -0.114 P  
HETATM   11  O   UNK     1      -8.784   3.654  68.519  1.00  0.00    -0.091 OA 
HETATM   12  O   UNK     1      -7.288   1.707  67.911  1.00  0.00    -0.046 OA 
BRANCH  10  13
HETATM   13  O   UNK     1      -7.930   2.210  70.183  1.00  0.00    -0.042 OA 
BRANCH  13  14
HETATM   14  C   UNK     1      -7.798   3.531  70.715  1.00  0.00    -0.050 C  
BRANCH  14  15
HETATM   15  C   UNK     1      -6.357   4.017  70.776  1.00  0.00    -0.022 C  
BRANCH  15  16
HETATM   16  O   UNK     1      -6.348   5.336  71.376  1.00  0.00    -0.031 OA 
BRANCH  16  17
HETATM   17  C   UNK     1      -6.362   5.367  72.734  1.00  0.00    -0.055 C  
HETATM   18  O   UNK     1      -5.373   5.293  73.454  1.00  0.00    -0.020 OA 
BRANCH  17  19
HETATM   19  C   UNK     1      -7.763   5.505  73.258  1.00  0.00    -0.100 C  
BRANCH  19  20
HETATM   20  C   UNK     1      -8.440   6.772  72.744  1.00  0.00    -0.124 C  
BRANCH  20  21
HETATM   21  C   UNK     1      -7.597   8.033  72.978  1.00  0.00    -0.173 C  
BRANCH  21  22
HETATM   22  C   UNK     1      -6.115   7.781  72.708  1.00  0.00    -0.053 C  
BRANCH  22  23
HETATM   23  C   UNK     1      -5.292   9.031  72.603  1.00  0.00    -0.072 C  
HETATM   24  C   UNK     1      -5.534   9.984  71.685  1.00  0.00    -0.012 C  
BRANCH  24  25
HETATM   25  C   UNK     1      -6.598   9.914  70.625  1.00  0.00    -0.104 C  
BRANCH  25  26
HETATM   26  C   UNK     1      -6.065  10.195  69.248  1.00  0.00    -0.037 C  
HETATM   27  C   UNK     1      -6.259  11.349  68.585  1.00  0.00    -0.048 C  
BRANCH  27  28
HETATM   28  C   UNK     1      -7.087  12.501  69.076  1.00  0.00    -0.037 C  
BRANCH  28  29
HETATM   29  C   UNK     1      -6.275  13.738  69.338  1.00  0.00    -0.107 C  
HETATM   30  C   UNK     1      -6.648  14.965  68.932  1.00  0.00    -0.090 C  
BRANCH  30  31
HETATM   31  C   UNK     1      -7.876  15.265  68.118  1.00  0.00    -0.122 C  
BRANCH  31  32
HETATM   32  C   UNK     1      -8.524  14.017  67.585  1.00  0.00    -0.193 C  
HETATM   33  C   UNK     1      -9.168  13.958  66.403  1.00  0.00    -0.174 C  
BRANCH  33  34
HETATM   34  C   UNK     1      -9.431  15.129  65.504  1.00  0.00    -0.106 C  
BRANCH  34  35
HETATM   35  C   UNK     1     -10.873  15.249  65.103  1.00  0.00    -0.441 C  
HETATM   36  C   UNK     1     -11.783  15.970  65.780  1.00  0.00     0.746 C  
BRANCH  36  37
HETATM   37  C   UNK     1     -11.513  16.759  67.033  1.00  0.00     0.709 C  
HETATM   38  C   UNK     1     -10.745  18.036  66.733  1.00  0.00    -0.185 C  
ENDBRANCH  36  37
ENDBRANCH  34  35
ENDBRANCH  33  34
ENDBRANCH  31  32
ENDBRANCH  30  31
ENDBRANCH  28  29
ENDBRANCH  27  28
ENDBRANCH  25  26
ENDBRANCH  24  25
ENDBRANCH  22  23
ENDBRANCH  21  22
ENDBRANCH  20  21
ENDBRANCH  19  20
ENDBRANCH  17  19
ENDBRANCH  16  17
ENDBRANCH  15  16
BRANCH  15  39
HETATM   39  C   UNK     1      -5.767   4.124  69.367  1.00  0.00    -0.017 C  
BRANCH  39  40
HETATM   40  O   UNK     1      -5.554   5.501  69.010  1.00  0.00    -0.007 OA 
BRANCH  40  41
HETATM   41  C   UNK     1      -6.687   6.217  68.779  1.00  0.00    -0.061 C  
HETATM   42  O   UNK     1      -7.781   5.991  69.277  1.00  0.00    -0.091 OA 
BRANCH  41  43
HETATM   43  C   UNK     1      -6.400   7.366  67.850  1.00  0.00    -0.048 C  
BRANCH  43  44
HETATM   44  C   UNK     1      -6.409   6.895  66.400  1.00  0.00    -0.050 C  
BRANCH  44  45
HETATM   45  C   UNK     1      -5.291   7.555  65.589  1.00  0.00    -0.029 C  
BRANCH  45  46
HETATM   46  C   UNK     1      -5.331   7.168  64.138  1.00  0.00    -0.029 C  
HETATM   47  C   UNK     1      -6.350   7.466  63.317  1.00  0.00    -0.054 C  
BRANCH  47  48
HETATM   48  C   UNK     1      -7.616   8.159  63.729  1.00  0.00    -0.128 C  
BRANCH  48  49
HETATM   49  C   UNK     1      -8.519   8.458  62.567  1.00  0.00    -0.125 C  
HETATM   50  C   UNK     1      -9.309   9.545  62.495  1.00  0.00    -0.001 C  
BRANCH  50  51
HETATM   51  C   UNK     1      -9.453  10.574  63.578  1.00  0.00    -0.352 C  
BRANCH  51  52
HETATM   52  C   UNK     1      -8.364  10.502  64.611  1.00  0.00    -0.114 C  
HETATM   53  C   UNK     1      -8.608  10.463  65.934  1.00  0.00    -0.165 C  
BRANCH  53  54
HETATM   54  C   UNK     1      -9.975  10.416  66.556  1.00  0.00    -0.271 C  
BRANCH  54  55
HETATM   55  C   UNK     1     -10.488   9.014  66.721  1.00  0.00    -0.270 C  
HETATM   56  C   UNK     1     -10.428   8.325  67.874  1.00  0.00    -0.259 C  
BRANCH  56  57
HETATM   57  C   UNK     1      -9.802   8.820  69.146  1.00  0.00    -0.181 C  
BRANCH  57  58
HETATM   58  C   UNK     1     -10.517  10.012  69.714  1.00  0.00    -0.291 C  
HETATM   59  C   UNK     1     -11.500   9.941  70.628  1.00  0.00    -0.411 C  
BRANCH  59  60
HETATM   60  C   UNK     1     -12.053   8.675  71.222  1.00  0.00    -0.333 C  
HETATM   61  C   UNK     1     -13.112   8.972  72.269  1.00  0.00    -0.508 C  
ENDBRANCH  59  60
ENDBRANCH  57  58
ENDBRANCH  56  57
ENDBRANCH  54  55
ENDBRANCH  53  54
ENDBRANCH  51  52
ENDBRANCH  50  51
ENDBRANCH  48  49
ENDBRANCH  47  48
ENDBRANCH  45  46
ENDBRANCH  44  45
ENDBRANCH  43  44
ENDBRANCH  41  43
ENDBRANCH  40  41
ENDBRANCH  39  40
ENDBRANCH  15  39
ENDBRANCH  14  15
ENDBRANCH  13  14
ENDBRANCH  10  13
ENDBRANCH   9  10
ENDBRANCH   8   9
ENDBRANCH   1   8
TORSDOF 38
ENDMDL
MODEL        4
REMARK 921   NORMALIZED FREE ENERGY PREDICTED BY IDOCK:    4.69 KCAL/MOL
REMARK 922        TOTAL FREE ENERGY PREDICTED BY IDOCK:    9.61 KCAL/MOL
REMARK 923 INTER-LIGAND FREE ENERGY PREDICTED BY IDOCK:   -0.98 KCAL/MOL
REMARK 924 INTRA-LIGAND FREE ENERGY PREDICTED BY IDOCK:   10.59 KCAL/MOL
REMARK 927      BINDING AFFINITY PREDICTED BY RF-SCORE:    0.00 PKD
ROOT
HETATM    1  C   UNK     1      -8.699   3.042  66.158  1.00  0.00    -0.132 C  
HETATM    2  C   UNK     1      -9.856   2.398  65.397  1.00  0.00     0.442 C  
HETATM    3  N   UNK     1      -7.451   2.962  65.339  1.00  0.00    -0.071 NA 
HETATM    4  H2  UNK     1      -7.144   1.995  65.231  1.00  0.00     0.000 HD 
HETATM    5  O   UNK     1      -9.445   1.832  64.235  1.00  0.00    -0.131 OA 
HETATM    6  O   UNK     1     -11.014   2.388  65.784  1.00  0.00     3.291 OA 
HETATM    7  H1  UNK     1      -7.550   3.421  64.433  1.00  0.00     0.000 HD 
ENDROOT
BRANCH   1   8
HETATM    8  C   UNK     1      -8.549   2.349  67.527  1.00  0.00    -0.104 C  
BRANCH   8   9
HETATM    9  O   UNK     1      -9.613   2.668  68.438  1.00  0.00    -0.185 OA 
BRANCH   9  10
HETATM   10  P   UNK     1      -9.035   2.843  70.060  1.00  0.00    -0.127 P  
HETATM   11  O   UNK     1      -8.667   4.284  69.696  1.00  0.00    -0.071 OA 
HETATM   12  O   UNK     1      -7.753   1.925  69.646  1.00  0.00    -0.043 OA 
BRANCH  10  13
HETATM   13  O   UNK     1      -8.458   3.018  71.681  1.00  0.00    -0.063 OA 
BRANCH  13  14
HETATM   14  C   UNK     1      -8.194   4.366  72.077  1.00  0.00    -0.100 C  
BRANCH  14  15
HETATM   15  C   UNK     1      -6.712   4.706  72.117  1.00  0.00    -0.050 C  
BRANCH  15  16
HETATM   16  O   UNK     1      -6.577   6.148  72.139  1.00  0.00    -0.056 OA 
BRANCH  16  17
HETATM   17  C   UNK     1      -6.843   6.749  73.328  1.00  0.00    -0.075 C  
HETATM   18  O   UNK     1      -6.009   7.028  74.182  1.00  0.00    -0.065 OA 
BRANCH  17  19
HETATM   19  C   UNK     1      -8.310   7.034  73.475  1.00  0.00    -0.139 C  
BRANCH  19  20
HETATM   20  C   UNK     1      -8.755   8.198  72.594  1.00  0.00    -0.277 C  
BRANCH  20  21
HETATM   21  C   UNK     1      -7.678   9.282  72.456  1.00  0.00     0.976 C  
BRANCH  21  22
HETATM   22  C   UNK     1      -6.278   8.725  72.706  1.00  0.00    -0.039 C  
BRANCH  22  23
HETATM   23  C   UNK     1      -5.174   9.704  72.436  1.00  0.00    -0.049 C  
HETATM   24  C   UNK     1      -5.312  10.738  71.586  1.00  0.00     0.092 C  
BRANCH  24  25
HETATM   25  C   UNK     1      -6.539  11.024  70.765  1.00  0.00     0.641 C  
BRANCH  25  26
HETATM   26  C   UNK     1      -6.332  10.760  69.301  1.00  0.00    -0.061 C  
HETATM   27  C   UNK     1      -6.662  11.623  68.324  1.00  0.00    -0.064 C  
BRANCH  27  28
HETATM   28  C   UNK     1      -7.346  12.944  68.530  1.00  0.00    -0.115 C  
BRANCH  28  29
HETATM   29  C   UNK     1      -6.441  13.988  69.124  1.00  0.00    -0.113 C  
HETATM   30  C   UNK     1      -6.560  15.301  68.862  1.00  0.00    -0.108 C  
BRANCH  30  31
HETATM   31  C   UNK     1      -7.554  15.901  67.908  1.00  0.00    -0.145 C  
BRANCH  31  32
HETATM   32  C   UNK     1      -8.496  16.853  68.592  1.00  0.00    -0.260 C  
HETATM   33  C   UNK     1      -8.354  18.193  68.563  1.00  0.00    -0.314 C  
BRANCH  33  34
HETATM   34  C   UNK     1      -7.197  18.925  67.951  1.00  0.00    -0.260 C  
BRANCH  34  35
HETATM   35  C   UNK     1      -7.509  20.359  67.638  1.00  0.00    -0.334 C  
HETATM   36  C   UNK     1      -6.852  21.087  66.717  1.00  0.00    -0.326 C  
BRANCH  36  37
HETATM   37  C   UNK     1      -5.711  20.593  65.868  1.00  0.00    -0.239 C  
HETATM   38  C   UNK     1      -6.211  19.910  64.606  1.00  0.00    -0.315 C  
ENDBRANCH  36  37
ENDBRANCH  34  35
ENDBRANCH  33  34
ENDBRANCH  31  32
ENDBRANCH  30  31
ENDBRANCH  28  29
ENDBRANCH  27  28
ENDBRANCH  25  26
ENDBRANCH  24  25
ENDBRANCH  22  23
ENDBRANCH  21  22
ENDBRANCH  20  21
ENDBRANCH  19  20
ENDBRANCH  17  19
ENDBRANCH  16  17
ENDBRANCH  15  16
BRANCH  15  39
HETATM   39  C   UNK     1      -6.006   4.175  70.867  1.00  0.00    -0.014 C  
BRANCH  39  40
HETATM   40  O   UNK     1      -5.711   5.249  69.957  1.00  0.00    -0.014 OA 
BRANCH  40  41
HETATM   41  C   UNK     1      -6.669   6.211  69.872  1.00  0.00    -0.056 C  
HETATM   42  O   UNK     1      -7.572   6.381  70.678  1.00  0.00    -0.097 OA 
BRANCH  41  43
HETATM   43  C   UNK     1      -6.438   7.074  68.662  1.00  0.00    -0.036 C  
BRANCH  43  44
HETATM   44  C   UNK     1      -6.446   6.228  67.393  1.00  0.00    -0.046 C  
BRANCH  44  45
HETATM   45  C   UNK     1      -5.207   6.493  66.534  1.00  0.00    -0.013 C  
BRANCH  45  46
HETATM   46  C   UNK     1      -5.291   5.833  65.187  1.00  0.00    -0.010 C  
HETATM   47  C   UNK     1      -6.233   6.124  64.275  1.00  0.00    -0.030 C  
BRANCH  47  48
HETATM   48  C   UNK     1      -7.367   7.084  64.481  1.00  0.00    -0.084 C  
BRANCH  48  49
HETATM   49  C   UNK     1      -8.325   7.108  63.325  1.00  0.00     0.191 C  
HETATM   50  C   UNK     1      -8.924   8.225  62.873  1.00  0.00     0.623 C  
BRANCH  50  51
HETATM   51  C   UNK     1      -8.775   9.586  63.488  1.00  0.00    -0.235 C  
BRANCH  51  52
HETATM   52  C   UNK     1      -7.821   9.611  64.647  1.00  0.00    -0.133 C  
HETATM   53  C   UNK     1      -8.178  10.000  65.885  1.00  0.00    -0.128 C  
BRANCH  53  54
HETATM   54  C   UNK     1      -9.569  10.393  66.296  1.00  0.00    -0.230 C  
BRANCH  54  55
HETATM   55  C   UNK     1     -10.495   9.215  66.403  1.00  0.00    -0.141 C  
HETATM   56  C   UNK     1     -10.700   8.524  67.538  1.00  0.00    -0.211 C  
BRANCH  56  57
HETATM   57  C   UNK     1     -10.007   8.783  68.845  1.00  0.00    -0.200 C  
BRANCH  57  58
HETATM   58  C   UNK     1     -10.511  10.022  69.528  1.00  0.00    -0.260 C  
HETATM   59  C   UNK     1     -11.535  10.045  70.398  1.00  0.00    -0.389 C  
BRANCH  59  60
HETATM   60  C   UNK     1     -12.348   8.854  70.823  1.00  0.00    -0.029 C  
HETATM   61  C   UNK     1     -12.246   8.622  72.321  1.00  0.00    -0.447 C  
ENDBRANCH  59  60
ENDBRANCH  57  58
ENDBRANCH  56  57
ENDBRANCH  54  55
ENDBRANCH  53  54
ENDBRANCH  51  52
ENDBRANCH  50  51
ENDBRANCH  48  49
ENDBRANCH  47  48
ENDBRANCH  45  46
ENDBRANCH  44  45
ENDBRANCH  43  44
ENDBRANCH  41  43
ENDBRANCH  40  41
ENDBRANCH  39  40
ENDBRANCH  15  39
ENDBRANCH  14  15
ENDBRANCH  13  14
ENDBRANCH  10  13
ENDBRANCH   9  10
ENDBRANCH   8   9
ENDBRANCH   1   8
TORSDOF 38
ENDMDL
MODEL        5
REMARK 921   NORMALIZED FREE ENERGY PREDICTED BY IDOCK:    5.33 KCAL/MOL
REMARK 922        TOTAL FREE ENERGY PREDICTED BY IDOCK:   11.68 KCAL/MOL
REMARK 923 INTER-LIGAND FREE ENERGY PREDICTED BY IDOCK:   -0.86 KCAL/MOL
REMARK 924 INTRA-LIGAND FREE ENERGY PREDICTED BY IDOCK:   12.54 KCAL/MOL
REMARK 927      BINDING AFFINITY PREDICTED BY RF-SCORE:    0.00 PKD
ROOT
HETATM    1  C   UNK     1      -8.738   3.051  66.189  1.00  0.00    -0.132 C  
HETATM    2  C   UNK     1      -9.871   2.361  65.433  1.00  0.00     0.442 C  
HETATM    3  N   UNK     1      -7.466   2.929  65.413  1.00  0.00    -0.071 NA 
HETATM    4  H2  UNK     1      -7.155   1.959  65.369  1.00  0.00     0.000 HD 
HETATM    5  O   UNK     1      -9.426   1.732  64.317  1.00  0.00    -0.131 OA 
HETATM    6  O   UNK     1     -11.040   2.369  65.786  1.00  0.00     3.823 OA 
HETATM    7  H1  UNK     1      -7.540   3.335  64.480  1.00  0.00     0.000 HD 
ENDROOT
BRANCH   1   8
HETATM    8  C   UNK     1      -8.627   2.437  67.599  1.00  0.00    -0.101 C  
BRANCH   8   9
HETATM    9  O   UNK     1      -9.756   2.740  68.435  1.00  0.00    -0.114 OA 
BRANCH   9  10
HETATM   10  P   UNK     1      -9.278   3.049  70.069  1.00  0.00    -0.130 P  
HETATM   11  O   UNK     1      -8.774   4.413  69.587  1.00  0.00    -0.074 OA 
HETATM   12  O   UNK     1      -8.047   2.003  69.851  1.00  0.00    -0.042 OA 
BRANCH  10  13
HETATM   13  O   UNK     1      -8.800   3.359  71.702  1.00  0.00    -0.086 OA 
BRANCH  13  14
HETATM   14  C   UNK     1      -8.513   4.730  71.989  1.00  0.00    -0.119 C  
BRANCH  14  15
HETATM   15  C   UNK     1      -7.024   5.033  72.066  1.00  0.00    -0.066 C  
BRANCH  15  16
HETATM   16  O   UNK     1      -6.845   6.466  71.946  1.00  0.00    -0.065 OA 
BRANCH  16  17
HETATM   17  C   UNK     1      -7.187   7.197  73.039  1.00  0.00    -0.073 C  
HETATM   18  O   UNK     1      -6.417   7.540  73.929  1.00  0.00    -0.075 OA 
BRANCH  17  19
HETATM   19  C   UNK     1      -8.649   7.541  73.025  1.00  0.00    -0.185 C  
BRANCH  19  20
HETATM   20  C   UNK     1      -8.948   8.715  72.097  1.00  0.00    -0.270 C  
BRANCH  20  21
HETATM   21  C   UNK     1      -7.785   9.711  72.005  1.00  0.00     1.527 C  
BRANCH  21  22
HETATM   22  C   UNK     1      -6.458   9.069  72.406  1.00  0.00     0.096 C  
BRANCH  22  23
HETATM   23  C   UNK     1      -5.267   9.965  72.226  1.00  0.00    -0.009 C  
HETATM   24  C   UNK     1      -5.260  10.997  71.364  1.00  0.00    -0.036 C  
BRANCH  24  25
HETATM   25  C   UNK     1      -6.390  11.362  70.442  1.00  0.00     0.046 C  
BRANCH  25  26
HETATM   26  C   UNK     1      -6.080  11.069  69.001  1.00  0.00    -0.043 C  
HETATM   27  C   UNK     1      -6.666  11.689  67.962  1.00  0.00    -0.064 C  
BRANCH  27  28
HETATM   28  C   UNK     1      -7.759  12.713  68.068  1.00  0.00    -0.139 C  
BRANCH  28  29
HETATM   29  C   UNK     1      -7.247  14.126  68.022  1.00  0.00    -0.146 C  
HETATM   30  C   UNK     1      -7.768  15.072  67.220  1.00  0.00    -0.233 C  
BRANCH  30  31
HETATM   31  C   UNK     1      -8.874  14.846  66.229  1.00  0.00    -0.108 C  
BRANCH  31  32
HETATM   32  C   UNK     1      -9.752  13.685  66.610  1.00  0.00    -0.287 C  
HETATM   33  C   UNK     1     -10.850  13.802  67.381  1.00  0.00    -0.285 C  
BRANCH  33  34
HETATM   34  C   UNK     1     -11.298  15.062  68.060  1.00  0.00    -0.339 C  
BRANCH  34  35
HETATM   35  C   UNK     1     -10.356  15.516  69.137  1.00  0.00    -0.237 C  
HETATM   36  C   UNK     1     -10.499  15.208  70.438  1.00  0.00    -0.107 C  
BRANCH  36  37
HETATM   37  C   UNK     1     -11.611  14.377  71.019  1.00  0.00    -0.167 C  
HETATM   38  C   UNK     1     -11.931  14.792  72.446  1.00  0.00    -0.306 C  
ENDBRANCH  36  37
ENDBRANCH  34  35
ENDBRANCH  33  34
ENDBRANCH  31  32
ENDBRANCH  30  31
ENDBRANCH  28  29
ENDBRANCH  27  28
ENDBRANCH  25  26
ENDBRANCH  24  25
ENDBRANCH  22  23
ENDBRANCH  21  22
ENDBRANCH  20  21
ENDBRANCH  19  20
ENDBRANCH  17  19
ENDBRANCH  16  17
ENDBRANCH  15  16
BRANCH  15  39
HETATM   39  C   UNK     1      -6.280   4.357  70.912  1.00  0.00    -0.018 C  
BRANCH  39  40
HETATM   40  O   UNK     1      -5.927   5.319  69.903  1.00  0.00    -0.016 OA 
BRANCH  40  41
HETATM   41  C   UNK     1      -6.834   6.315  69.717  1.00  0.00    -0.065 C  
HETATM   42  O   UNK     1      -7.779   6.557  70.453  1.00  0.00    -0.094 OA 
BRANCH  41  43
HETATM   43  C   UNK     1      -6.487   7.117  68.491  1.00  0.00    -0.040 C  
BRANCH  43  44
HETATM   44  C   UNK     1      -6.446   6.219  67.260  1.00  0.00    -0.049 C  
BRANCH  44  45
HETATM   45  C   UNK     1      -5.130   6.379  66.493  1.00  0.00    -0.012 C  
BRANCH  45  46
HETATM   46  C   UNK     1      -5.136   5.639  65.185  1.00  0.00    -0.009 C  
HETATM   47  C   UNK     1      -5.979   5.918  64.178  1.00  0.00    -0.025 C  
BRANCH  47  48
HETATM   48  C   UNK     1      -7.071   6.945  64.225  1.00  0.00    -0.058 C  
BRANCH  48  49
HETATM   49  C   UNK     1      -7.911   6.959  62.980  1.00  0.00    -0.108 C  
HETATM   50  C   UNK     1      -8.376   8.081  62.404  1.00  0.00    -0.122 C  
BRANCH  50  51
HETATM   51  C   UNK     1      -8.183   9.468  62.948  1.00  0.00    -0.158 C  
BRANCH  51  52
HETATM   52  C   UNK     1      -7.353   9.502  64.199  1.00  0.00    -0.115 C  
HETATM   53  C   UNK     1      -7.796  10.014  65.361  1.00  0.00    -0.136 C  
BRANCH  53  54
HETATM   54  C   UNK     1      -9.181  10.552  65.592  1.00  0.00    -0.221 C  
BRANCH  54  55
HETATM   55  C   UNK     1     -10.226   9.472  65.608  1.00  0.00    -0.014 C  
HETATM   56  C   UNK     1     -10.433   8.645  66.648  1.00  0.00    -0.239 C  
BRANCH  56  57
HETATM   57  C   UNK     1      -9.631   8.635  67.918  1.00  0.00    -0.173 C  
BRANCH  57  58
HETATM   58  C   UNK     1      -9.471  10.006  68.509  1.00  0.00    -0.150 C  
HETATM   59  C   UNK     1     -10.450  10.679  69.138  1.00  0.00    -0.245 C  
BRANCH  59  60
HETATM   60  C   UNK     1     -11.856  10.186  69.347  1.00  0.00    -0.028 C  
HETATM   61  C   UNK     1     -12.323  10.435  70.771  1.00  0.00    -0.463 C  
ENDBRANCH  59  60
ENDBRANCH  57  58
ENDBRANCH  56  57
ENDBRANCH  54  55
ENDBRANCH  53  54
ENDBRANCH  51  52
ENDBRANCH  50  51
ENDBRANCH  48  49
ENDBRANCH  47  48
ENDBRANCH  45  46
ENDBRANCH  44  45
ENDBRANCH  43  44
ENDBRANCH  41  43
ENDBRANCH  40  41
ENDBRANCH  39  40
ENDBRANCH  15  39
ENDBRANCH  14  15
ENDBRANCH  13  14
ENDBRANCH  10  13
ENDBRANCH   9  10
ENDBRANCH   8   9
ENDBRANCH   1   8
TORSDOF 38
ENDMDL
