MODEL        1
REMARK 921   NORMALIZED FREE ENERGY PREDICTED BY IDOCK:   -2.83 KCAL/MOL
REMARK 922        TOTAL FREE ENERGY PREDICTED BY IDOCK:  -11.42 KCAL/MOL
REMARK 923 INTER-LIGAND FREE ENERGY PREDICTED BY IDOCK:  -10.09 KCAL/MOL
REMARK 924 INTRA-LIGAND FREE ENERGY PREDICTED BY IDOCK:   -1.32 KCAL/MOL
REMARK 927      BINDING AFFINITY PREDICTED BY RF-SCORE:    0.00 PKD
ROOT
HETATM    1  C   UNL     1      -5.624   1.607  68.651  1.00  0.00    -0.018 C  
HETATM    2  C   UNL     1      -6.713   1.470  69.702  1.00  0.00    -0.029 C  
ENDROOT
BRANCH   2   3
HETATM    3  C   UNL     1      -7.149   2.835  70.225  1.00  0.00    -0.033 C  
BRANCH   3   4
HETATM    4  C   UNL     1      -6.764   3.014  71.691  1.00  0.00    -0.023 C  
BRANCH   4   5
HETATM    5  C   UNL     1      -7.424   4.258  72.278  1.00  0.00    -0.068 C  
BRANCH   5   6
HETATM    6  C   UNL     1      -8.849   4.418  71.757  1.00  0.00    -0.145 C  
BRANCH   6   7
HETATM    7  C   UNL     1      -8.847   4.882  70.305  1.00  0.00    -0.134 C  
BRANCH   7   8
HETATM    8  C   UNL     1      -8.727   6.400  70.223  1.00  0.00    -0.143 C  
BRANCH   8   9
HETATM    9  C   UNL     1      -7.294   6.843  70.493  1.00  0.00    -0.077 C  
BRANCH   9  10
HETATM   10  C   UNL     1      -6.582   7.196  69.192  1.00  0.00    -0.044 C  
BRANCH  10  11
HETATM   11  C   UNL     1      -6.281   8.689  69.132  1.00  0.00    -0.043 C  
BRANCH  11  12
HETATM   12  C   UNL     1      -7.260   9.471  70.000  1.00  0.00    -0.101 C  
BRANCH  12  13
HETATM   13  C   UNL     1      -7.228  10.953  69.645  1.00  0.00    -0.098 C  
BRANCH  13  14
HETATM   14  C   UNL     1      -5.820  11.377  69.250  1.00  0.00    -0.051 C  
BRANCH  14  15
HETATM   15  C   UNL     1      -5.328  12.526  70.123  1.00  0.00    -0.113 C  
BRANCH  15  16
HETATM   16  C   UNL     1      -5.806  13.852  69.553  1.00  0.00    -0.099 C  
BRANCH  16  17
HETATM   17  C   UNL     1      -7.124  13.704  68.802  1.00  0.00    -0.103 C  
BRANCH  17  18
HETATM   18  C   UNL     1      -7.175  14.716  67.688  1.00  0.00    -0.186 C  
HETATM   19  O   UNL     1      -7.799  14.587  66.644  1.00  0.00     0.198 OA 
BRANCH  18  20
HETATM   20  O   UNL     1      -6.357  15.754  67.985  1.00  0.00    -0.109 OA 
BRANCH  20  21
HETATM   21  C   UNL     1      -6.963  17.043  67.850  1.00  0.00    -0.159 C  
BRANCH  21  22
HETATM   22  C   UNL     1      -7.964  17.410  68.952  1.00  0.00    -0.187 C  
BRANCH  22  23
HETATM   23  C   UNL     1      -8.460  18.854  68.887  1.00  0.00    -0.234 C  
BRANCH  23  24
HETATM   24  O   UNL     1      -7.473  19.669  68.260  1.00  0.00    -0.297 OA 
BRANCH  24  25
HETATM   25  P   UNL     1      -6.158  19.933  69.158  1.00  0.00    -0.335 P  
HETATM   26  O   UNL     1      -6.572  20.303  70.562  1.00  0.00    -0.389 OA 
HETATM   27  O   UNL     1      -5.142  18.856  68.907  1.00  0.00    -0.188 OA 
BRANCH  25  28
HETATM   28  O   UNL     1      -5.588  21.277  68.441  1.00  0.00    -0.322 OA 
BRANCH  28  29
HETATM   29  C   UNL     1      -5.743  21.381  67.039  1.00  0.00    -0.330 C  
BRANCH  29  30
HETATM   30  C   UNL     1      -5.464  20.080  66.253  1.00  0.00    -0.169 C  
BRANCH  30  31
HETATM   31  N   UNL     1      -6.156  19.958  64.861  1.00  0.00    -0.242 N  
HETATM   32  C   UNL     1      -5.611  18.749  64.103  1.00  0.00    -0.150 C  
HETATM   33  C   UNL     1      -7.654  19.854  64.983  1.00  0.00     0.561 C  
HETATM   34  C   UNL     1      -5.778  21.189  64.051  1.00  0.00    -0.245 C  
ENDBRANCH  30  31
ENDBRANCH  29  30
ENDBRANCH  28  29
ENDBRANCH  25  28
ENDBRANCH  24  25
ENDBRANCH  23  24
ENDBRANCH  22  23
BRANCH  22  35
HETATM   35  O   UNL     1      -9.059  16.452  68.978  1.00  0.00    -0.257 OA 
BRANCH  35  36
HETATM   36  C   UNL     1     -10.220  16.772  68.349  1.00  0.00    -0.296 C  
HETATM   37  O   UNL     1     -10.321  17.313  67.258  1.00  0.00    -0.319 OA 
BRANCH  36  38
HETATM   38  C   UNL     1     -11.407  16.292  69.140  1.00  0.00    -0.291 C  
BRANCH  38  39
HETATM   39  C   UNL     1     -11.832  14.883  68.765  1.00  0.00    -0.328 C  
BRANCH  39  40
HETATM   40  C   UNL     1     -11.885  14.680  67.250  1.00  0.00    -0.375 C  
BRANCH  40  41
HETATM   41  C   UNL     1     -10.712  13.824  66.790  1.00  0.00    -0.276 C  
BRANCH  41  42
HETATM   42  C   UNL     1     -10.819  13.499  65.306  1.00  0.00    -0.316 C  
BRANCH  42  43
HETATM   43  C   UNL     1     -11.849  12.399  65.077  1.00  0.00    -0.440 C  
BRANCH  43  44
HETATM   44  C   UNL     1     -11.421  11.477  63.945  1.00  0.00    -0.358 C  
BRANCH  44  45
HETATM   45  C   UNL     1      -9.943  11.652  63.626  1.00  0.00    -0.406 C  
BRANCH  45  46
HETATM   46  C   UNL     1      -9.273  10.295  63.442  1.00  0.00    -0.321 C  
BRANCH  46  47
HETATM   47  C   UNL     1      -8.156  10.105  64.460  1.00  0.00    -0.160 C  
BRANCH  47  48
HETATM   48  C   UNL     1      -8.639  10.446  65.864  1.00  0.00    -0.165 C  
BRANCH  48  49
HETATM   49  C   UNL     1      -9.022   9.181  66.622  1.00  0.00    -0.164 C  
BRANCH  49  50
HETATM   50  C   UNL     1     -10.349   9.365  67.351  1.00  0.00    -0.325 C  
BRANCH  50  51
HETATM   51  C   UNL     1     -10.443  10.759  67.965  1.00  0.00    -0.225 C  
BRANCH  51  52
HETATM   52  C   UNL     1     -11.414  10.770  69.144  1.00  0.00    -0.368 C  
BRANCH  52  53
HETATM   53  C   UNL     1     -10.873   9.946  70.309  1.00  0.00    -0.367 C  
HETATM   54  C   UNL     1     -11.893   8.921  70.775  1.00  0.00    -0.230 C  
ENDBRANCH  52  53
ENDBRANCH  51  52
ENDBRANCH  50  51
ENDBRANCH  49  50
ENDBRANCH  48  49
ENDBRANCH  47  48
ENDBRANCH  46  47
ENDBRANCH  45  46
ENDBRANCH  44  45
ENDBRANCH  43  44
ENDBRANCH  42  43
ENDBRANCH  41  42
ENDBRANCH  40  41
ENDBRANCH  39  40
ENDBRANCH  38  39
ENDBRANCH  36  38
ENDBRANCH  35  36
ENDBRANCH  22  35
ENDBRANCH  21  22
ENDBRANCH  20  21
ENDBRANCH  18  20
ENDBRANCH  17  18
ENDBRANCH  16  17
ENDBRANCH  15  16
ENDBRANCH  14  15
ENDBRANCH  13  14
ENDBRANCH  12  13
ENDBRANCH  11  12
ENDBRANCH  10  11
ENDBRANCH   9  10
ENDBRANCH   8   9
ENDBRANCH   7   8
ENDBRANCH   6   7
ENDBRANCH   5   6
ENDBRANCH   4   5
ENDBRANCH   3   4
ENDBRANCH   2   3
TORSDOF 44
ENDMDL
MODEL        2
REMARK 921   NORMALIZED FREE ENERGY PREDICTED BY IDOCK:   -2.65 KCAL/MOL
REMARK 922        TOTAL FREE ENERGY PREDICTED BY IDOCK:  -10.77 KCAL/MOL
REMARK 923 INTER-LIGAND FREE ENERGY PREDICTED BY IDOCK:   -9.34 KCAL/MOL
REMARK 924 INTRA-LIGAND FREE ENERGY PREDICTED BY IDOCK:   -1.44 KCAL/MOL
REMARK 927      BINDING AFFINITY PREDICTED BY RF-SCORE:    0.00 PKD
ROOT
HETATM    1  C   UNL     1      -5.620   1.616  68.636  1.00  0.00    -0.018 C  
HETATM    2  C   UNL     1      -6.738   1.491  69.658  1.00  0.00    -0.029 C  
ENDROOT
BRANCH   2   3
HETATM    3  C   UNL     1      -7.112   2.854  70.234  1.00  0.00    -0.034 C  
BRANCH   3   4
HETATM    4  C   UNL     1      -6.722   2.957  71.707  1.00  0.00    -0.022 C  
BRANCH   4   5
HETATM    5  C   UNL     1      -7.377   4.171  72.358  1.00  0.00    -0.067 C  
BRANCH   5   6
HETATM    6  C   UNL     1      -8.803   4.360  71.850  1.00  0.00    -0.139 C  
BRANCH   6   7
HETATM    7  C   UNL     1      -8.805   4.850  70.407  1.00  0.00    -0.135 C  
BRANCH   7   8
HETATM    8  C   UNL     1      -8.699   6.370  70.351  1.00  0.00    -0.147 C  
BRANCH   8   9
HETATM    9  C   UNL     1      -7.278   6.824  70.666  1.00  0.00    -0.070 C  
BRANCH   9  10
HETATM   10  C   UNL     1      -6.538   7.208  69.391  1.00  0.00    -0.044 C  
BRANCH  10  11
HETATM   11  C   UNL     1      -6.277   8.710  69.353  1.00  0.00    -0.041 C  
BRANCH  11  12
HETATM   12  C   UNL     1      -7.328   9.459  70.164  1.00  0.00    -0.110 C  
BRANCH  12  13
HETATM   13  C   UNL     1      -7.330  10.941  69.803  1.00  0.00    -0.016 C  
BRANCH  13  14
HETATM   14  C   UNL     1      -5.929  11.398  69.421  1.00  0.00    -0.066 C  
BRANCH  14  15
HETATM   15  C   UNL     1      -5.511  12.619  70.234  1.00  0.00    -0.140 C  
BRANCH  15  16
HETATM   16  C   UNL     1      -6.052  13.884  69.585  1.00  0.00    -0.119 C  
BRANCH  16  17
HETATM   17  C   UNL     1      -7.321  13.612  68.786  1.00  0.00    -0.093 C  
BRANCH  17  18
HETATM   18  C   UNL     1      -7.383  14.561  67.618  1.00  0.00    -0.183 C  
HETATM   19  O   UNL     1      -8.023  14.379  66.592  1.00  0.00     0.160 OA 
BRANCH  18  20
HETATM   20  O   UNL     1      -6.552  15.608  67.844  1.00  0.00    -0.126 OA 
BRANCH  20  21
HETATM   21  C   UNL     1      -7.197  16.884  67.849  1.00  0.00    -0.149 C  
BRANCH  21  22
HETATM   22  C   UNL     1      -8.073  17.167  69.075  1.00  0.00    -0.119 C  
BRANCH  22  23
HETATM   23  C   UNL     1      -8.467  18.635  69.233  1.00  0.00     0.195 C  
BRANCH  23  24
HETATM   24  O   UNL     1      -7.480  19.462  68.623  1.00  0.00    -0.323 OA 
BRANCH  24  25
HETATM   25  P   UNL     1      -6.241  19.841  69.586  1.00  0.00    -0.353 P  
HETATM   26  O   UNL     1      -6.759  20.209  70.955  1.00  0.00    -0.246 OA 
HETATM   27  O   UNL     1      -5.136  18.838  69.417  1.00  0.00    -0.187 OA 
BRANCH  25  28
HETATM   28  O   UNL     1      -5.730  21.208  68.868  1.00  0.00    -0.340 OA 
BRANCH  28  29
HETATM   29  C   UNL     1      -5.874  21.298  67.464  1.00  0.00    -0.359 C  
BRANCH  29  30
HETATM   30  C   UNL     1      -5.181  20.173  66.663  1.00  0.00    -0.160 C  
BRANCH  30  31
HETATM   31  N   UNL     1      -5.817  19.821  65.284  1.00  0.00    -0.183 N  
HETATM   32  C   UNL     1      -5.125  18.601  64.677  1.00  0.00    -0.167 C  
HETATM   33  C   UNL     1      -7.299  19.567  65.395  1.00  0.00    -0.012 C  
HETATM   34  C   UNL     1      -5.552  20.987  64.344  1.00  0.00    -0.234 C  
ENDBRANCH  30  31
ENDBRANCH  29  30
ENDBRANCH  28  29
ENDBRANCH  25  28
ENDBRANCH  24  25
ENDBRANCH  23  24
ENDBRANCH  22  23
BRANCH  22  35
HETATM   35  O   UNL     1      -9.226  16.281  69.086  1.00  0.00    -0.251 OA 
BRANCH  35  36
HETATM   36  C   UNL     1     -10.379  16.705  68.504  1.00  0.00    -0.303 C  
HETATM   37  O   UNL     1     -10.468  17.344  67.467  1.00  0.00    -0.343 OA 
BRANCH  36  38
HETATM   38  C   UNL     1     -11.578  16.210  69.268  1.00  0.00    -0.270 C  
BRANCH  38  39
HETATM   39  C   UNL     1     -11.988  14.804  68.868  1.00  0.00    -0.298 C  
BRANCH  39  40
HETATM   40  C   UNL     1     -12.179  14.666  67.357  1.00  0.00    -0.087 C  
BRANCH  40  41
HETATM   41  C   UNL     1     -11.083  13.791  66.763  1.00  0.00    -0.316 C  
BRANCH  41  42
HETATM   42  C   UNL     1     -11.008  13.956  65.251  1.00  0.00    -0.331 C  
BRANCH  42  43
HETATM   43  C   UNL     1     -12.280  13.428  64.597  1.00  0.00    -0.456 C  
BRANCH  43  44
HETATM   44  C   UNL     1     -11.982  12.227  63.711  1.00  0.00    -0.609 C  
BRANCH  44  45
HETATM   45  C   UNL     1     -10.506  11.857  63.771  1.00  0.00    -0.468 C  
BRANCH  45  46
HETATM   46  C   UNL     1     -10.317  10.537  64.509  1.00  0.00    -0.275 C  
BRANCH  46  47
HETATM   47  C   UNL     1      -8.874  10.381  64.969  1.00  0.00    -0.209 C  
BRANCH  47  48
HETATM   48  C   UNL     1      -8.809   9.679  66.320  1.00  0.00    -0.172 C  
BRANCH  48  49
HETATM   49  C   UNL     1      -9.832   8.552  66.389  1.00  0.00    -0.327 C  
BRANCH  49  50
HETATM   50  C   UNL     1      -9.144   7.191  66.349  1.00  0.00    -0.189 C  
BRANCH  50  51
HETATM   51  C   UNL     1      -7.728   7.314  65.794  1.00  0.00    -0.099 C  
BRANCH  51  52
HETATM   52  C   UNL     1      -7.507   6.332  64.646  1.00  0.00    -0.087 C  
BRANCH  52  53
HETATM   53  C   UNL     1      -7.461   7.056  63.303  1.00  0.00    -0.092 C  
HETATM   54  C   UNL     1      -6.386   8.130  63.297  1.00  0.00    -0.080 C  
ENDBRANCH  52  53
ENDBRANCH  51  52
ENDBRANCH  50  51
ENDBRANCH  49  50
ENDBRANCH  48  49
ENDBRANCH  47  48
ENDBRANCH  46  47
ENDBRANCH  45  46
ENDBRANCH  44  45
ENDBRANCH  43  44
ENDBRANCH  42  43
ENDBRANCH  41  42
ENDBRANCH  40  41
ENDBRANCH  39  40
ENDBRANCH  38  39
ENDBRANCH  36  38
ENDBRANCH  35  36
ENDBRANCH  22  35
ENDBRANCH  21  22
ENDBRANCH  20  21
ENDBRANCH  18  20
ENDBRANCH  17  18
ENDBRANCH  16  17
ENDBRANCH  15  16
ENDBRANCH  14  15
ENDBRANCH  13  14
ENDBRANCH  12  13
ENDBRANCH  11  12
ENDBRANCH  10  11
ENDBRANCH   9  10
ENDBRANCH   8   9
ENDBRANCH   7   8
ENDBRANCH   6   7
ENDBRANCH   5   6
ENDBRANCH   4   5
ENDBRANCH   3   4
ENDBRANCH   2   3
TORSDOF 44
ENDMDL
MODEL        3
REMARK 921   NORMALIZED FREE ENERGY PREDICTED BY IDOCK:   -1.97 KCAL/MOL
REMARK 922        TOTAL FREE ENERGY PREDICTED BY IDOCK:   -8.37 KCAL/MOL
REMARK 923 INTER-LIGAND FREE ENERGY PREDICTED BY IDOCK:   -4.80 KCAL/MOL
REMARK 924 INTRA-LIGAND FREE ENERGY PREDICTED BY IDOCK:   -3.58 KCAL/MOL
REMARK 927      BINDING AFFINITY PREDICTED BY RF-SCORE:    0.00 PKD
ROOT
HETATM    1  C   UNL     1     -12.162  12.312  68.523  1.00  0.00     0.092 C  
HETATM    2  C   UNL     1     -11.453  10.989  68.763  1.00  0.00    -0.372 C  
ENDROOT
BRANCH   2   3
HETATM    3  C   UNL     1     -10.477  11.091  69.931  1.00  0.00     0.148 C  
BRANCH   3   4
HETATM    4  C   UNL     1     -10.218   9.722  70.556  1.00  0.00    -0.321 C  
BRANCH   4   5
HETATM    5  C   UNL     1     -10.520   8.605  69.561  1.00  0.00    -0.222 C  
BRANCH   5   6
HETATM    6  C   UNL     1     -10.121   7.246  70.127  1.00  0.00    -0.192 C  
BRANCH   6   7
HETATM    7  C   UNL     1     -10.368   6.140  69.107  1.00  0.00    -0.271 C  
BRANCH   7   8
HETATM    8  C   UNL     1     -11.249   6.642  67.968  1.00  0.00    -0.217 C  
BRANCH   8   9
HETATM    9  C   UNL     1     -10.672   6.232  66.618  1.00  0.00    -0.286 C  
BRANCH   9  10
HETATM   10  C   UNL     1      -9.268   6.798  66.436  1.00  0.00    -0.185 C  
BRANCH  10  11
HETATM   11  C   UNL     1      -8.796   6.611  64.999  1.00  0.00     0.277 C  
BRANCH  11  12
HETATM   12  C   UNL     1      -9.395   7.679  64.092  1.00  0.00     2.142 C  
BRANCH  12  13
HETATM   13  C   UNL     1      -8.888   9.063  64.483  1.00  0.00    -0.123 C  
BRANCH  13  14
HETATM   14  C   UNL     1      -9.109   9.310  65.970  1.00  0.00    -0.235 C  
BRANCH  14  15
HETATM   15  C   UNL     1      -8.377  10.566  66.431  1.00  0.00    -0.145 C  
BRANCH  15  16
HETATM   16  C   UNL     1      -6.982  10.204  66.917  1.00  0.00    -0.089 C  
BRANCH  16  17
HETATM   17  C   UNL     1      -6.453   8.946  66.238  1.00  0.00    -0.065 C  
BRANCH  17  18
HETATM   18  C   UNL     1      -5.996   7.970  67.290  1.00  0.00    -0.050 C  
HETATM   19  O   UNL     1      -5.159   7.094  67.126  1.00  0.00    -0.012 OA 
BRANCH  18  20
HETATM   20  O   UNL     1      -6.718   8.159  68.422  1.00  0.00    -0.060 OA 
BRANCH  20  21
HETATM   21  C   UNL     1      -6.834   6.997  69.248  1.00  0.00    -0.054 C  
BRANCH  21  22
HETATM   22  C   UNL     1      -6.295   7.156  70.675  1.00  0.00    -0.039 C  
BRANCH  22  23
HETATM   23  C   UNL     1      -5.382   6.017  71.126  1.00  0.00    -0.017 C  
BRANCH  23  24
HETATM   24  O   UNL     1      -6.121   5.105  71.934  1.00  0.00    -0.023 OA 
BRANCH  24  25
HETATM   25  P   UNL     1      -6.487   3.713  71.204  1.00  0.00    -0.023 P  
HETATM   26  O   UNL     1      -7.902   3.773  70.682  1.00  0.00    -0.053 OA 
HETATM   27  O   UNL     1      -5.351   3.284  70.321  1.00  0.00    -0.010 OA 
BRANCH  25  28
HETATM   28  O   UNL     1      -6.475   2.709  72.484  1.00  0.00    -0.013 OA 
BRANCH  28  29
HETATM   29  C   UNL     1      -7.203   3.107  73.629  1.00  0.00    -0.046 C  
BRANCH  29  30
HETATM   30  C   UNL     1      -8.695   2.705  73.627  1.00  0.00    -0.071 C  
BRANCH  30  31
HETATM   31  N   UNL     1      -9.721   3.877  73.541  1.00  0.00    -0.106 N  
HETATM   32  C   UNL     1     -10.148   4.101  72.092  1.00  0.00    -0.178 C  
HETATM   33  C   UNL     1     -10.933   3.629  74.401  1.00  0.00     0.138 C  
HETATM   34  C   UNL     1      -9.008   5.144  73.989  1.00  0.00    -0.116 C  
ENDBRANCH  30  31
ENDBRANCH  29  30
ENDBRANCH  28  29
ENDBRANCH  25  28
ENDBRANCH  24  25
ENDBRANCH  23  24
ENDBRANCH  22  23
BRANCH  22  35
HETATM   35  O   UNL     1      -5.671   8.460  70.836  1.00  0.00    -0.032 OA 
BRANCH  35  36
HETATM   36  C   UNL     1      -6.134   9.289  71.808  1.00  0.00    -0.021 C  
HETATM   37  O   UNL     1      -6.987   9.016  72.639  1.00  0.00    -0.322 OA 
BRANCH  36  38
HETATM   38  C   UNL     1      -5.393  10.599  71.792  1.00  0.00     0.117 C  
BRANCH  38  39
HETATM   39  C   UNL     1      -5.319  11.214  70.406  1.00  0.00    -0.104 C  
BRANCH  39  40
HETATM   40  C   UNL     1      -5.802  12.665  70.390  1.00  0.00    -0.155 C  
BRANCH  40  41
HETATM   41  C   UNL     1      -6.551  12.959  69.097  1.00  0.00    -0.104 C  
BRANCH  41  42
HETATM   42  C   UNL     1      -5.933  14.140  68.361  1.00  0.00    -0.103 C  
BRANCH  42  43
HETATM   43  C   UNL     1      -6.461  15.453  68.927  1.00  0.00    -0.108 C  
BRANCH  43  44
HETATM   44  C   UNL     1      -5.331  16.448  69.147  1.00  0.00    -0.120 C  
BRANCH  44  45
HETATM   45  C   UNL     1      -5.644  17.784  68.488  1.00  0.00    -0.163 C  
BRANCH  45  46
HETATM   46  C   UNL     1      -5.711  18.892  69.533  1.00  0.00    -0.245 C  
BRANCH  46  47
HETATM   47  C   UNL     1      -6.760  19.928  69.151  1.00  0.00    -0.359 C  
BRANCH  47  48
HETATM   48  C   UNL     1      -6.960  19.965  67.640  1.00  0.00    -0.282 C  
BRANCH  48  49
HETATM   49  C   UNL     1      -8.393  19.591  67.280  1.00  0.00    -0.327 C  
BRANCH  49  50
HETATM   50  C   UNL     1      -9.084  18.899  68.450  1.00  0.00    -0.383 C  
BRANCH  50  51
HETATM   51  C   UNL     1     -10.450  18.361  68.035  1.00  0.00    -0.390 C  
BRANCH  51  52
HETATM   52  C   UNL     1     -10.350  17.572  66.731  1.00  0.00    -0.314 C  
BRANCH  52  53
HETATM   53  C   UNL     1     -10.038  16.103  67.000  1.00  0.00    -0.270 C  
HETATM   54  C   UNL     1     -10.950  15.537  68.075  1.00  0.00    -0.311 C  
ENDBRANCH  52  53
ENDBRANCH  51  52
ENDBRANCH  50  51
ENDBRANCH  49  50
ENDBRANCH  48  49
ENDBRANCH  47  48
ENDBRANCH  46  47
ENDBRANCH  45  46
ENDBRANCH  44  45
ENDBRANCH  43  44
ENDBRANCH  42  43
ENDBRANCH  41  42
ENDBRANCH  40  41
ENDBRANCH  39  40
ENDBRANCH  38  39
ENDBRANCH  36  38
ENDBRANCH  35  36
ENDBRANCH  22  35
ENDBRANCH  21  22
ENDBRANCH  20  21
ENDBRANCH  18  20
ENDBRANCH  17  18
ENDBRANCH  16  17
ENDBRANCH  15  16
ENDBRANCH  14  15
ENDBRANCH  13  14
ENDBRANCH  12  13
ENDBRANCH  11  12
ENDBRANCH  10  11
ENDBRANCH   9  10
ENDBRANCH   8   9
ENDBRANCH   7   8
ENDBRANCH   6   7
ENDBRANCH   5   6
ENDBRANCH   4   5
ENDBRANCH   3   4
ENDBRANCH   2   3
TORSDOF 44
ENDMDL
MODEL        4
REMARK 921   NORMALIZED FREE ENERGY PREDICTED BY IDOCK:   -1.17 KCAL/MOL
REMARK 922        TOTAL FREE ENERGY PREDICTED BY IDOCK:   -5.51 KCAL/MOL
REMARK 923 INTER-LIGAND FREE ENERGY PREDICTED BY IDOCK:   -4.93 KCAL/MOL
REMARK 924 INTRA-LIGAND FREE ENERGY PREDICTED BY IDOCK:   -0.59 KCAL/MOL
REMARK 927      BINDING AFFINITY PREDICTED BY RF-SCORE:    0.00 PKD
ROOT
HETATM    1  C   UNL     1     -12.006  12.386  68.154  1.00  0.00    -0.272 C  
HETATM    2  C   UNL     1     -11.701  10.917  68.401  1.00  0.00    -0.290 C  
ENDROOT
BRANCH   2   3
HETATM    3  C   UNL     1     -10.881  10.731  69.674  1.00  0.00    -0.294 C  
BRANCH   3   4
HETATM    4  C   UNL     1     -11.030   9.315  70.225  1.00  0.00    -0.286 C  
BRANCH   4   5
HETATM    5  C   UNL     1     -10.967   8.286  69.101  1.00  0.00     0.066 C  
BRANCH   5   6
HETATM    6  C   UNL     1     -10.960   6.866  69.659  1.00  0.00    -0.298 C  
BRANCH   6   7
HETATM    7  C   UNL     1     -11.262   5.851  68.563  1.00  0.00    -0.009 C  
BRANCH   7   8
HETATM    8  C   UNL     1     -11.600   6.554  67.253  1.00  0.00     0.510 C  
BRANCH   8   9
HETATM    9  C   UNL     1     -10.674   6.088  66.135  1.00  0.00     0.195 C  
BRANCH   9  10
HETATM   10  C   UNL     1      -9.237   6.515  66.411  1.00  0.00    -0.178 C  
BRANCH  10  11
HETATM   11  C   UNL     1      -8.346   6.203  65.214  1.00  0.00    -0.144 C  
BRANCH  11  12
HETATM   12  C   UNL     1      -8.610   7.181  64.076  1.00  0.00     0.471 C  
BRANCH  12  13
HETATM   13  C   UNL     1      -8.199   8.594  64.474  1.00  0.00    -0.166 C  
BRANCH  13  14
HETATM   14  C   UNL     1      -8.692   8.916  65.879  1.00  0.00    -0.197 C  
BRANCH  14  15
HETATM   15  C   UNL     1      -7.947  10.113  66.460  1.00  0.00    -0.118 C  
BRANCH  15  16
HETATM   16  C   UNL     1      -6.513   9.722  66.786  1.00  0.00    -0.066 C  
BRANCH  16  17
HETATM   17  C   UNL     1      -6.077   8.478  66.023  1.00  0.00    -0.048 C  
BRANCH  17  18
HETATM   18  C   UNL     1      -5.908   7.337  66.991  1.00  0.00    -0.026 C  
HETATM   19  O   UNL     1      -5.125   6.406  66.858  1.00  0.00    -0.008 OA 
BRANCH  18  20
HETATM   20  O   UNL     1      -6.816   7.456  67.990  1.00  0.00    -0.065 OA 
BRANCH  20  21
HETATM   21  C   UNL     1      -7.027   6.259  68.744  1.00  0.00    -0.076 C  
BRANCH  21  22
HETATM   22  C   UNL     1      -6.652   6.349  70.228  1.00  0.00    -0.045 C  
BRANCH  22  23
HETATM   23  C   UNL     1      -5.819   5.170  70.732  1.00  0.00    -0.017 C  
BRANCH  23  24
HETATM   24  O   UNL     1      -6.678   4.200  71.326  1.00  0.00    -0.028 OA 
BRANCH  24  25
HETATM   25  P   UNL     1      -7.299   3.134  70.286  1.00  0.00    -0.040 P  
HETATM   26  O   UNL     1      -8.524   3.723  69.629  1.00  0.00    -0.059 OA 
HETATM   27  O   UNL     1      -6.200   2.516  69.468  1.00  0.00    -0.024 OA 
BRANCH  25  28
HETATM   28  O   UNL     1      -7.800   1.984  71.322  1.00  0.00    -0.039 OA 
BRANCH  28  29
HETATM   29  C   UNL     1      -8.681   2.379  72.355  1.00  0.00    -0.066 C  
BRANCH  29  30
HETATM   30  C   UNL     1     -10.168   2.037  72.111  1.00  0.00    -0.144 C  
BRANCH  30  31
HETATM   31  N   UNL     1     -11.167   2.490  73.219  1.00  0.00    -0.152 N  
HETATM   32  C   UNL     1     -11.514   3.967  73.048  1.00  0.00     0.085 C  
HETATM   33  C   UNL     1     -12.427   1.663  73.214  1.00  0.00     0.078 C  
HETATM   34  C   UNL     1     -10.457   2.360  74.558  1.00  0.00    -0.138 C  
ENDBRANCH  30  31
ENDBRANCH  29  30
ENDBRANCH  28  29
ENDBRANCH  25  28
ENDBRANCH  24  25
ENDBRANCH  23  24
ENDBRANCH  22  23
BRANCH  22  35
HETATM   35  O   UNL     1      -6.024   7.629  70.513  1.00  0.00    -0.030 OA 
BRANCH  35  36
HETATM   36  C   UNL     1      -6.491   8.366  71.555  1.00  0.00    -0.058 C  
HETATM   37  O   UNL     1      -7.456   8.094  72.253  1.00  0.00    -0.099 OA 
BRANCH  36  38
HETATM   38  C   UNL     1      -5.604   9.556  71.809  1.00  0.00    -0.060 C  
BRANCH  38  39
HETATM   39  C   UNL     1      -5.178  10.253  70.529  1.00  0.00    -0.053 C  
BRANCH  39  40
HETATM   40  C   UNL     1      -5.499  11.748  70.550  1.00  0.00    -0.151 C  
BRANCH  40  41
HETATM   41  C   UNL     1      -6.199  12.156  69.261  1.00  0.00    -0.097 C  
BRANCH  41  42
HETATM   42  C   UNL     1      -5.775  13.552  68.824  1.00  0.00    -0.082 C  
BRANCH  42  43
HETATM   43  C   UNL     1      -6.556  14.609  69.596  1.00  0.00    -0.155 C  
BRANCH  43  44
HETATM   44  C   UNL     1      -6.600  15.924  68.830  1.00  0.00    -0.126 C  
BRANCH  44  45
HETATM   45  C   UNL     1      -8.033  16.311  68.492  1.00  0.00    -0.184 C  
BRANCH  45  46
HETATM   46  C   UNL     1      -9.016  15.494  69.323  1.00  0.00    -0.267 C  
BRANCH  46  47
HETATM   47  C   UNL     1     -10.390  15.476  68.665  1.00  0.00    -0.219 C  
BRANCH  47  48
HETATM   48  C   UNL     1     -10.734  16.846  68.093  1.00  0.00    -0.375 C  
BRANCH  48  49
HETATM   49  C   UNL     1     -11.235  16.718  66.659  1.00  0.00     0.464 C  
BRANCH  49  50
HETATM   50  C   UNL     1     -10.519  17.707  65.744  1.00  0.00    -0.208 C  
BRANCH  50  51
HETATM   51  C   UNL     1      -9.204  18.169  66.365  1.00  0.00    -0.267 C  
BRANCH  51  52
HETATM   52  C   UNL     1      -9.278  19.640  66.765  1.00  0.00    -0.438 C  
BRANCH  52  53
HETATM   53  C   UNL     1     -10.321  19.861  67.856  1.00  0.00    -0.545 C  
HETATM   54  C   UNL     1      -9.665  20.009  69.219  1.00  0.00    -0.091 C  
ENDBRANCH  52  53
ENDBRANCH  51  52
ENDBRANCH  50  51
ENDBRANCH  49  50
ENDBRANCH  48  49
ENDBRANCH  47  48
ENDBRANCH  46  47
ENDBRANCH  45  46
ENDBRANCH  44  45
ENDBRANCH  43  44
ENDBRANCH  42  43
ENDBRANCH  41  42
ENDBRANCH  40  41
ENDBRANCH  39  40
ENDBRANCH  38  39
ENDBRANCH  36  38
ENDBRANCH  35  36
ENDBRANCH  22  35
ENDBRANCH  21  22
ENDBRANCH  20  21
ENDBRANCH  18  20
ENDBRANCH  17  18
ENDBRANCH  16  17
ENDBRANCH  15  16
ENDBRANCH  14  15
ENDBRANCH  13  14
ENDBRANCH  12  13
ENDBRANCH  11  12
ENDBRANCH  10  11
ENDBRANCH   9  10
ENDBRANCH   8   9
ENDBRANCH   7   8
ENDBRANCH   6   7
ENDBRANCH   5   6
ENDBRANCH   4   5
ENDBRANCH   3   4
ENDBRANCH   2   3
TORSDOF 44
ENDMDL
MODEL        5
REMARK 921   NORMALIZED FREE ENERGY PREDICTED BY IDOCK:   -0.64 KCAL/MOL
REMARK 922        TOTAL FREE ENERGY PREDICTED BY IDOCK:   -3.63 KCAL/MOL
REMARK 923 INTER-LIGAND FREE ENERGY PREDICTED BY IDOCK:   -5.43 KCAL/MOL
REMARK 924 INTRA-LIGAND FREE ENERGY PREDICTED BY IDOCK:    1.81 KCAL/MOL
REMARK 927      BINDING AFFINITY PREDICTED BY RF-SCORE:    0.00 PKD
ROOT
HETATM    1  C   UNL     1     -11.645  12.137  68.189  1.00  0.00    -0.397 C  
HETATM    2  C   UNL     1     -11.370  10.654  68.378  1.00  0.00    -0.348 C  
ENDROOT
BRANCH   2   3
HETATM    3  C   UNL     1     -10.471  10.410  69.587  1.00  0.00    -0.279 C  
BRANCH   3   4
HETATM    4  C   UNL     1     -10.646   8.994  70.129  1.00  0.00    -0.250 C  
BRANCH   4   5
HETATM    5  C   UNL     1     -10.582   7.969  69.001  1.00  0.00    -0.169 C  
BRANCH   5   6
HETATM    6  C   UNL     1     -10.511   6.549  69.556  1.00  0.00    -0.265 C  
BRANCH   6   7
HETATM    7  C   UNL     1     -10.858   5.528  68.478  1.00  0.00    -0.072 C  
BRANCH   7   8
HETATM    8  C   UNL     1     -11.349   6.223  67.213  1.00  0.00    -0.049 C  
BRANCH   8   9
HETATM    9  C   UNL     1     -10.469   5.861  66.022  1.00  0.00     0.175 C  
BRANCH   9  10
HETATM   10  C   UNL     1      -9.070   6.443  66.187  1.00  0.00    -0.150 C  
BRANCH  10  11
HETATM   11  C   UNL     1      -8.259   6.263  64.909  1.00  0.00    -0.119 C  
BRANCH  11  12
HETATM   12  C   UNL     1      -8.784   7.173  63.805  1.00  0.00     0.713 C  
BRANCH  12  13
HETATM   13  C   UNL     1      -8.698   8.636  64.227  1.00  0.00     0.022 C  
BRANCH  13  14
HETATM   14  C   UNL     1      -9.285   8.824  65.619  1.00  0.00    -0.244 C  
BRANCH  14  15
HETATM   15  C   UNL     1      -9.137  10.268  66.086  1.00  0.00    -0.181 C  
BRANCH  15  16
HETATM   16  C   UNL     1      -7.665  10.603  66.277  1.00  0.00    -0.143 C  
BRANCH  16  17
HETATM   17  C   UNL     1      -6.766   9.708  65.433  1.00  0.00    -0.090 C  
BRANCH  17  18
HETATM   18  C   UNL     1      -6.182   8.629  66.305  1.00  0.00    -0.060 C  
HETATM   19  O   UNL     1      -5.127   8.045  66.098  1.00  0.00    -0.024 OA 
BRANCH  18  20
HETATM   20  O   UNL     1      -7.047   8.345  67.310  1.00  0.00    -0.077 OA 
BRANCH  20  21
HETATM   21  C   UNL     1      -6.789   7.108  67.980  1.00  0.00    -0.070 C  
BRANCH  21  22
HETATM   22  C   UNL     1      -6.289   7.240  69.423  1.00  0.00    -0.035 C  
BRANCH  22  23
HETATM   23  C   UNL     1      -5.127   6.309  69.767  1.00  0.00    -0.012 C  
BRANCH  23  24
HETATM   24  O   UNL     1      -5.620   5.168  70.463  1.00  0.00    -0.014 OA 
BRANCH  24  25
HETATM   25  P   UNL     1      -6.478   4.150  69.551  1.00  0.00    -0.034 P  
HETATM   26  O   UNL     1      -7.894   4.659  69.421  1.00  0.00    -0.062 OA 
HETATM   27  O   UNL     1      -5.682   3.751  68.341  1.00  0.00    -0.020 OA 
BRANCH  25  28
HETATM   28  O   UNL     1      -6.509   2.850  70.527  1.00  0.00    -0.026 OA 
BRANCH  28  29
HETATM   29  C   UNL     1      -6.940   3.047  71.860  1.00  0.00    -0.026 C  
BRANCH  29  30
HETATM   30  C   UNL     1      -7.811   4.303  72.086  1.00  0.00    -0.082 C  
BRANCH  30  31
HETATM   31  N   UNL     1      -8.960   4.162  73.130  1.00  0.00    -0.107 N  
HETATM   32  C   UNL     1     -10.311   4.435  72.472  1.00  0.00    -0.188 C  
HETATM   33  C   UNL     1      -8.971   2.801  73.777  1.00  0.00    -0.075 C  
HETATM   34  C   UNL     1      -8.759   5.243  74.182  1.00  0.00    -0.116 C  
ENDBRANCH  30  31
ENDBRANCH  29  30
ENDBRANCH  28  29
ENDBRANCH  25  28
ENDBRANCH  24  25
ENDBRANCH  23  24
ENDBRANCH  22  23
BRANCH  22  35
HETATM   35  O   UNL     1      -5.991   8.631  69.728  1.00  0.00    -0.028 OA 
BRANCH  35  36
HETATM   36  C   UNL     1      -6.505   9.174  70.863  1.00  0.00    -0.074 C  
HETATM   37  O   UNL     1      -7.274   8.626  71.638  1.00  0.00    -0.091 OA 
BRANCH  36  38
HETATM   38  C   UNL     1      -5.935  10.546  71.105  1.00  0.00     0.111 C  
BRANCH  38  39
HETATM   39  C   UNL     1      -5.827  11.369  69.834  1.00  0.00    -0.109 C  
BRANCH  39  40
HETATM   40  C   UNL     1      -6.394  12.778  70.007  1.00  0.00     0.013 C  
BRANCH  40  41
HETATM   41  C   UNL     1      -7.323  13.120  68.849  1.00  0.00    -0.019 C  
BRANCH  41  42
HETATM   42  C   UNL     1      -7.208  14.590  68.469  1.00  0.00    -0.120 C  
BRANCH  42  43
HETATM   43  C   UNL     1      -8.062  15.446  69.397  1.00  0.00    -0.249 C  
BRANCH  43  44
HETATM   44  C   UNL     1      -8.383  16.790  68.760  1.00  0.00    -0.248 C  
BRANCH  44  45
HETATM   45  C   UNL     1      -9.884  16.960  68.570  1.00  0.00    -0.267 C  
BRANCH  45  46
HETATM   46  C   UNL     1     -10.645  15.923  69.388  1.00  0.00    -0.263 C  
BRANCH  46  47
HETATM   47  C   UNL     1     -12.141  16.011  69.108  1.00  0.00    -0.065 C  
BRANCH  47  48
HETATM   48  C   UNL     1     -12.889  14.879  69.802  1.00  0.00     0.057 C  
BRANCH  48  49
HETATM   49  C   UNL     1     -14.152  15.403  70.473  1.00  0.00     0.536 C  
BRANCH  49  50
HETATM   50  C   UNL     1     -14.167  15.043  71.956  1.00  0.00    -0.649 C  
BRANCH  50  51
HETATM   51  C   UNL     1     -12.753  14.779  72.466  1.00  0.00    -0.455 C  
BRANCH  51  52
HETATM   52  C   UNL     1     -12.317  13.352  72.146  1.00  0.00     0.284 C  
BRANCH  52  53
HETATM   53  C   UNL     1     -13.523  12.448  71.909  1.00  0.00    -0.366 C  
HETATM   54  C   UNL     1     -13.098  10.998  71.746  1.00  0.00    -0.554 C  
ENDBRANCH  52  53
ENDBRANCH  51  52
ENDBRANCH  50  51
ENDBRANCH  49  50
ENDBRANCH  48  49
ENDBRANCH  47  48
ENDBRANCH  46  47
ENDBRANCH  45  46
ENDBRANCH  44  45
ENDBRANCH  43  44
ENDBRANCH  42  43
ENDBRANCH  41  42
ENDBRANCH  40  41
ENDBRANCH  39  40
ENDBRANCH  38  39
ENDBRANCH  36  38
ENDBRANCH  35  36
ENDBRANCH  22  35
ENDBRANCH  21  22
ENDBRANCH  20  21
ENDBRANCH  18  20
ENDBRANCH  17  18
ENDBRANCH  16  17
ENDBRANCH  15  16
ENDBRANCH  14  15
ENDBRANCH  13  14
ENDBRANCH  12  13
ENDBRANCH  11  12
ENDBRANCH  10  11
ENDBRANCH   9  10
ENDBRANCH   8   9
ENDBRANCH   7   8
ENDBRANCH   6   7
ENDBRANCH   5   6
ENDBRANCH   4   5
ENDBRANCH   3   4
ENDBRANCH   2   3
TORSDOF 44
ENDMDL
MODEL        6
REMARK 921   NORMALIZED FREE ENERGY PREDICTED BY IDOCK:    1.24 KCAL/MOL
REMARK 922        TOTAL FREE ENERGY PREDICTED BY IDOCK:    3.11 KCAL/MOL
REMARK 923 INTER-LIGAND FREE ENERGY PREDICTED BY IDOCK:    2.22 KCAL/MOL
REMARK 924 INTRA-LIGAND FREE ENERGY PREDICTED BY IDOCK:    0.89 KCAL/MOL
REMARK 927      BINDING AFFINITY PREDICTED BY RF-SCORE:    0.00 PKD
ROOT
HETATM    1  C   UNL     1     -12.018  12.385  68.151  1.00  0.00    -0.272 C  
HETATM    2  C   UNL     1     -11.757  10.905  68.378  1.00  0.00    -0.290 C  
ENDROOT
BRANCH   2   3
HETATM    3  C   UNL     1     -10.914  10.681  69.630  1.00  0.00    -0.331 C  
BRANCH   3   4
HETATM    4  C   UNL     1     -11.126   9.279  70.196  1.00  0.00    -0.260 C  
BRANCH   4   5
HETATM    5  C   UNL     1     -10.974   8.225  69.103  1.00  0.00     0.066 C  
BRANCH   5   6
HETATM    6  C   UNL     1     -11.046   6.817  69.688  1.00  0.00    -0.343 C  
BRANCH   6   7
HETATM    7  C   UNL     1     -11.273   5.785  68.589  1.00  0.00     0.126 C  
BRANCH   7   8
HETATM    8  C   UNL     1     -11.445   6.465  67.235  1.00  0.00     0.175 C  
BRANCH   8   9
HETATM    9  C   UNL     1     -10.429   5.933  66.231  1.00  0.00    -0.082 C  
BRANCH   9  10
HETATM   10  C   UNL     1      -9.012   6.315  66.643  1.00  0.00    -0.139 C  
BRANCH  10  11
HETATM   11  C   UNL     1      -8.014   5.919  65.560  1.00  0.00    -0.117 C  
BRANCH  11  12
HETATM   12  C   UNL     1      -8.124   6.851  64.359  1.00  0.00    -0.052 C  
BRANCH  12  13
HETATM   13  C   UNL     1      -7.726   8.272  64.742  1.00  0.00    -0.114 C  
BRANCH  13  14
HETATM   14  C   UNL     1      -8.383   8.674  66.056  1.00  0.00    -0.135 C  
BRANCH  14  15
HETATM   15  C   UNL     1      -7.650   9.846  66.700  1.00  0.00    -0.103 C  
BRANCH  15  16
HETATM   16  C   UNL     1      -6.295   9.389  67.218  1.00  0.00    -0.062 C  
BRANCH  16  17
HETATM   17  C   UNL     1      -5.831   8.107  66.538  1.00  0.00    -0.044 C  
BRANCH  17  18
HETATM   18  C   UNL     1      -5.896   6.971  67.526  1.00  0.00    -0.024 C  
HETATM   19  O   UNL     1      -5.161   5.994  67.529  1.00  0.00    -0.004 OA 
BRANCH  18  20
HETATM   20  O   UNL     1      -6.948   7.159  68.359  1.00  0.00    -0.070 OA 
BRANCH  20  21
HETATM   21  C   UNL     1      -7.307   6.007  69.127  1.00  0.00    -0.084 C  
BRANCH  21  22
HETATM   22  C   UNL     1      -7.172   6.169  70.646  1.00  0.00    -0.077 C  
BRANCH  22  23
HETATM   23  C   UNL     1      -6.463   5.004  71.336  1.00  0.00    -0.031 C  
BRANCH  23  24
HETATM   24  O   UNL     1      -7.431   4.075  71.817  1.00  0.00    -0.057 OA 
BRANCH  24  25
HETATM   25  P   UNL     1      -7.894   2.973  70.733  1.00  0.00    -0.046 P  
HETATM   26  O   UNL     1      -8.968   3.555  69.847  1.00  0.00    -0.084 OA 
HETATM   27  O   UNL     1      -6.689   2.293  70.148  1.00  0.00    -0.032 OA 
BRANCH  25  28
HETATM   28  O   UNL     1      -8.599   1.885  71.716  1.00  0.00    -0.057 OA 
BRANCH  28  29
HETATM   29  C   UNL     1      -9.638   2.348  72.557  1.00  0.00    -0.103 C  
BRANCH  29  30
HETATM   30  C   UNL     1     -11.065   1.957  72.108  1.00  0.00     0.684 C  
BRANCH  30  31
HETATM   31  N   UNL     1     -12.232   2.481  72.999  1.00  0.00     0.547 N  
HETATM   32  C   UNL     1     -13.544   1.808  72.603  1.00  0.00     1.439 C  
HETATM   33  C   UNL     1     -11.965   2.259  74.466  1.00  0.00     1.480 C  
HETATM   34  C   UNL     1     -12.397   3.966  72.713  1.00  0.00     1.375 C  
ENDBRANCH  30  31
ENDBRANCH  29  30
ENDBRANCH  28  29
ENDBRANCH  25  28
ENDBRANCH  24  25
ENDBRANCH  23  24
ENDBRANCH  22  23
BRANCH  22  35
HETATM   35  O   UNL     1      -6.564   7.451  70.965  1.00  0.00    -0.043 OA 
BRANCH  35  36
HETATM   36  C   UNL     1      -7.173   8.252  71.879  1.00  0.00    -0.090 C  
HETATM   37  O   UNL     1      -8.236   8.027  72.437  1.00  0.00    -0.120 OA 
BRANCH  36  38
HETATM   38  C   UNL     1      -6.317   9.449  72.196  1.00  0.00     0.245 C  
BRANCH  38  39
HETATM   39  C   UNL     1      -5.683  10.060  70.959  1.00  0.00    -0.083 C  
BRANCH  39  40
HETATM   40  C   UNL     1      -5.854  11.579  70.912  1.00  0.00     0.054 C  
BRANCH  40  41
HETATM   41  C   UNL     1      -6.374  12.010  69.547  1.00  0.00    -0.123 C  
BRANCH  41  42
HETATM   42  C   UNL     1      -5.767  13.342  69.125  1.00  0.00    -0.076 C  
BRANCH  42  43
HETATM   43  C   UNL     1      -6.514  14.496  69.782  1.00  0.00    -0.154 C  
BRANCH  43  44
HETATM   44  C   UNL     1      -6.316  15.790  69.004  1.00  0.00    -0.126 C  
BRANCH  44  45
HETATM   45  C   UNL     1      -7.644  16.325  68.487  1.00  0.00    -0.179 C  
BRANCH  45  46
HETATM   46  C   UNL     1      -8.807  15.657  69.212  1.00  0.00    -0.264 C  
BRANCH  46  47
HETATM   47  C   UNL     1     -10.079  15.739  68.378  1.00  0.00    -0.222 C  
BRANCH  47  48
HETATM   48  C   UNL     1     -11.197  14.922  69.013  1.00  0.00    -0.278 C  
BRANCH  48  49
HETATM   49  C   UNL     1     -12.514  15.688  68.967  1.00  0.00     0.216 C  
BRANCH  49  50
HETATM   50  C   UNL     1     -13.115  15.819  70.363  1.00  0.00     0.148 C  
BRANCH  50  51
HETATM   51  C   UNL     1     -12.044  15.637  71.435  1.00  0.00    -0.476 C  
BRANCH  51  52
HETATM   52  C   UNL     1     -11.847  14.159  71.763  1.00  0.00     0.185 C  
BRANCH  52  53
HETATM   53  C   UNL     1     -12.923  13.660  72.723  1.00  0.00    -0.273 C  
HETATM   54  C   UNL     1     -12.903  14.445  74.024  1.00  0.00     0.996 C  
ENDBRANCH  52  53
ENDBRANCH  51  52
ENDBRANCH  50  51
ENDBRANCH  49  50
ENDBRANCH  48  49
ENDBRANCH  47  48
ENDBRANCH  46  47
ENDBRANCH  45  46
ENDBRANCH  44  45
ENDBRANCH  43  44
ENDBRANCH  42  43
ENDBRANCH  41  42
ENDBRANCH  40  41
ENDBRANCH  39  40
ENDBRANCH  38  39
ENDBRANCH  36  38
ENDBRANCH  35  36
ENDBRANCH  22  35
ENDBRANCH  21  22
ENDBRANCH  20  21
ENDBRANCH  18  20
ENDBRANCH  17  18
ENDBRANCH  16  17
ENDBRANCH  15  16
ENDBRANCH  14  15
ENDBRANCH  13  14
ENDBRANCH  12  13
ENDBRANCH  11  12
ENDBRANCH  10  11
ENDBRANCH   9  10
ENDBRANCH   8   9
ENDBRANCH   7   8
ENDBRANCH   6   7
ENDBRANCH   5   6
ENDBRANCH   4   5
ENDBRANCH   3   4
ENDBRANCH   2   3
TORSDOF 44
ENDMDL
MODEL        7
REMARK 921   NORMALIZED FREE ENERGY PREDICTED BY IDOCK:    1.60 KCAL/MOL
REMARK 922        TOTAL FREE ENERGY PREDICTED BY IDOCK:    4.38 KCAL/MOL
REMARK 923 INTER-LIGAND FREE ENERGY PREDICTED BY IDOCK:   -4.06 KCAL/MOL
REMARK 924 INTRA-LIGAND FREE ENERGY PREDICTED BY IDOCK:    8.44 KCAL/MOL
REMARK 927      BINDING AFFINITY PREDICTED BY RF-SCORE:    0.00 PKD
ROOT
HETATM    1  C   UNL     1      -5.125   2.011  68.394  1.00  0.00    -0.012 C  
HETATM    2  C   UNL     1      -6.313   2.287  69.301  1.00  0.00    -0.029 C  
ENDROOT
BRANCH   2   3
HETATM    3  C   UNL     1      -6.508   3.785  69.513  1.00  0.00    -0.033 C  
BRANCH   3   4
HETATM    4  C   UNL     1      -6.029   4.215  70.897  1.00  0.00    -0.014 C  
BRANCH   4   5
HETATM    5  C   UNL     1      -6.693   5.522  71.319  1.00  0.00    -0.052 C  
BRANCH   5   6
HETATM    6  C   UNL     1      -8.173   5.528  70.949  1.00  0.00    -0.118 C  
BRANCH   6   7
HETATM    7  C   UNL     1      -8.354   5.445  69.438  1.00  0.00    -0.096 C  
BRANCH   7   8
HETATM    8  C   UNL     1      -8.251   6.828  68.804  1.00  0.00    -0.121 C  
BRANCH   8   9
HETATM    9  C   UNL     1      -6.804   7.308  68.791  1.00  0.00    -0.073 C  
BRANCH   9  10
HETATM   10  C   UNL     1      -6.324   7.537  67.362  1.00  0.00    -0.053 C  
BRANCH  10  11
HETATM   11  C   UNL     1      -6.309   9.025  67.033  1.00  0.00    -0.060 C  
BRANCH  11  12
HETATM   12  C   UNL     1      -7.344   9.772  67.865  1.00  0.00    -0.085 C  
BRANCH  12  13
HETATM   13  C   UNL     1      -7.530  11.193  67.345  1.00  0.00    -0.109 C  
BRANCH  13  14
HETATM   14  C   UNL     1      -6.226  11.723  66.764  1.00  0.00    -0.094 C  
BRANCH  14  15
HETATM   15  C   UNL     1      -5.705  12.904  67.575  1.00  0.00    -0.100 C  
BRANCH  15  16
HETATM   16  C   UNL     1      -6.670  14.076  67.462  1.00  0.00    -0.128 C  
BRANCH  16  17
HETATM   17  C   UNL     1      -8.028  13.642  66.925  1.00  0.00     0.197 C  
BRANCH  17  18
HETATM   18  C   UNL     1      -8.738  14.838  66.350  1.00  0.00    -0.027 C  
HETATM   19  O   UNL     1      -9.766  14.801  65.687  1.00  0.00    -0.332 OA 
BRANCH  18  20
HETATM   20  O   UNL     1      -8.017  15.957  66.608  1.00  0.00    -0.247 OA 
BRANCH  20  21
HETATM   21  C   UNL     1      -8.683  16.911  67.440  1.00  0.00    -0.203 C  
BRANCH  21  22
HETATM   22  C   UNL     1      -8.893  16.473  68.894  1.00  0.00    -0.244 C  
BRANCH  22  23
HETATM   23  C   UNL     1      -9.423  17.578  69.807  1.00  0.00     0.892 C  
BRANCH  23  24
HETATM   24  O   UNL     1      -9.154  18.849  69.222  1.00  0.00    -0.106 OA 
BRANCH  24  25
HETATM   25  P   UNL     1      -7.584  19.191  69.063  1.00  0.00    -0.178 P  
HETATM   26  O   UNL     1      -6.915  19.132  70.415  1.00  0.00     0.356 OA 
HETATM   27  O   UNL     1      -7.017  18.454  67.883  1.00  0.00    -0.210 OA 
BRANCH  25  28
HETATM   28  O   UNL     1      -7.676  20.754  68.625  1.00  0.00     0.379 OA 
BRANCH  28  29
HETATM   29  C   UNL     1      -8.208  21.041  67.347  1.00  0.00     0.069 C  
BRANCH  29  30
HETATM   30  C   UNL     1      -8.579  19.803  66.500  1.00  0.00    -0.354 C  
BRANCH  30  31
HETATM   31  N   UNL     1     -10.091  19.629  66.165  1.00  0.00    -0.454 N  
HETATM   32  C   UNL     1     -10.458  20.450  64.930  1.00  0.00     1.068 C  
HETATM   33  C   UNL     1     -10.457  18.183  65.946  1.00  0.00    -0.283 C  
HETATM   34  C   UNL     1     -10.888  20.204  67.326  1.00  0.00     0.030 C  
ENDBRANCH  30  31
ENDBRANCH  29  30
ENDBRANCH  28  29
ENDBRANCH  25  28
ENDBRANCH  24  25
ENDBRANCH  23  24
ENDBRANCH  22  23
BRANCH  22  35
HETATM   35  O   UNL     1      -9.715  15.273  68.945  1.00  0.00    -0.200 OA 
BRANCH  35  36
HETATM   36  C   UNL     1     -11.066  15.405  68.871  1.00  0.00    -0.275 C  
HETATM   37  O   UNL     1     -11.670  16.340  68.370  1.00  0.00    -0.271 OA 
BRANCH  36  38
HETATM   38  C   UNL     1     -11.753  14.185  69.425  1.00  0.00    -0.361 C  
BRANCH  38  39
HETATM   39  C   UNL     1     -11.685  12.996  68.484  1.00  0.00    -0.377 C  
BRANCH  39  40
HETATM   40  C   UNL     1     -12.427  13.254  67.172  1.00  0.00     0.051 C  
BRANCH  40  41
HETATM   41  C   UNL     1     -11.434  13.518  66.047  1.00  0.00    -0.345 C  
BRANCH  41  42
HETATM   42  C   UNL     1     -12.151  13.938  64.771  1.00  0.00    -0.443 C  
BRANCH  42  43
HETATM   43  C   UNL     1     -13.142  12.863  64.341  1.00  0.00     0.062 C  
BRANCH  43  44
HETATM   44  C   UNL     1     -12.471  11.825  63.452  1.00  0.00    -0.490 C  
BRANCH  44  45
HETATM   45  C   UNL     1     -10.991  12.133  63.274  1.00  0.00    -0.398 C  
BRANCH  45  46
HETATM   46  C   UNL     1     -10.159  10.867  63.443  1.00  0.00    -0.398 C  
BRANCH  46  47
HETATM   47  C   UNL     1      -9.611  10.770  64.861  1.00  0.00    -0.307 C  
BRANCH  47  48
HETATM   48  C   UNL     1      -9.707   9.342  65.383  1.00  0.00    -0.170 C  
BRANCH  48  49
HETATM   49  C   UNL     1      -8.511   8.520  64.921  1.00  0.00    -0.166 C  
BRANCH  49  50
HETATM   50  C   UNL     1      -8.967   7.224  64.258  1.00  0.00     1.051 C  
BRANCH  50  51
HETATM   51  C   UNL     1      -8.672   6.022  65.151  1.00  0.00    -0.017 C  
BRANCH  51  52
HETATM   52  C   UNL     1      -7.564   5.159  64.553  1.00  0.00    -0.079 C  
BRANCH  52  53
HETATM   53  C   UNL     1      -7.721   3.698  64.967  1.00  0.00    -0.085 C  
HETATM   54  C   UNL     1      -6.381   2.982  64.968  1.00  0.00    -0.024 C  
ENDBRANCH  52  53
ENDBRANCH  51  52
ENDBRANCH  50  51
ENDBRANCH  49  50
ENDBRANCH  48  49
ENDBRANCH  47  48
ENDBRANCH  46  47
ENDBRANCH  45  46
ENDBRANCH  44  45
ENDBRANCH  43  44
ENDBRANCH  42  43
ENDBRANCH  41  42
ENDBRANCH  40  41
ENDBRANCH  39  40
ENDBRANCH  38  39
ENDBRANCH  36  38
ENDBRANCH  35  36
ENDBRANCH  22  35
ENDBRANCH  21  22
ENDBRANCH  20  21
ENDBRANCH  18  20
ENDBRANCH  17  18
ENDBRANCH  16  17
ENDBRANCH  15  16
ENDBRANCH  14  15
ENDBRANCH  13  14
ENDBRANCH  12  13
ENDBRANCH  11  12
ENDBRANCH  10  11
ENDBRANCH   9  10
ENDBRANCH   8   9
ENDBRANCH   7   8
ENDBRANCH   6   7
ENDBRANCH   5   6
ENDBRANCH   4   5
ENDBRANCH   3   4
ENDBRANCH   2   3
TORSDOF 44
ENDMDL
MODEL        8
REMARK 921   NORMALIZED FREE ENERGY PREDICTED BY IDOCK:    7.74 KCAL/MOL
REMARK 922        TOTAL FREE ENERGY PREDICTED BY IDOCK:   26.33 KCAL/MOL
REMARK 923 INTER-LIGAND FREE ENERGY PREDICTED BY IDOCK:   11.60 KCAL/MOL
REMARK 924 INTRA-LIGAND FREE ENERGY PREDICTED BY IDOCK:   14.73 KCAL/MOL
REMARK 927      BINDING AFFINITY PREDICTED BY RF-SCORE:    0.00 PKD
ROOT
HETATM    1  C   UNL     1      -9.858  13.174  69.499  1.00  0.00     1.086 C  
HETATM    2  C   UNL     1      -9.774  11.657  69.519  1.00  0.00     0.747 C  
ENDROOT
BRANCH   2   3
HETATM    3  C   UNL     1      -8.875  11.169  70.651  1.00  0.00     4.084 C  
BRANCH   3   4
HETATM    4  C   UNL     1      -9.248   9.752  71.081  1.00  0.00     0.623 C  
BRANCH   4   5
HETATM    5  C   UNL     1      -9.775   8.947  69.898  1.00  0.00    -0.185 C  
BRANCH   5   6
HETATM    6  C   UNL     1      -9.844   7.460  70.236  1.00  0.00    -0.187 C  
BRANCH   6   7
HETATM    7  C   UNL     1     -10.855   6.748  69.344  1.00  0.00    -0.312 C  
BRANCH   7   8
HETATM    8  C   UNL     1     -11.707   7.756  68.580  1.00  0.00     1.506 C  
BRANCH   8   9
HETATM    9  C   UNL     1     -11.484   7.624  67.078  1.00  0.00     1.331 C  
BRANCH   9  10
HETATM   10  C   UNL     1     -10.084   8.093  66.697  1.00  0.00    -0.344 C  
BRANCH  10  11
HETATM   11  C   UNL     1      -9.934   8.156  65.181  1.00  0.00     1.936 C  
BRANCH  11  12
HETATM   12  C   UNL     1     -10.836   9.235  64.594  1.00  0.00     4.760 C  
BRANCH  12  13
HETATM   13  C   UNL     1     -10.660  10.550  65.345  1.00  0.00    -0.143 C  
BRANCH  13  14
HETATM   14  C   UNL     1     -10.933  10.356  66.830  1.00  0.00    -0.167 C  
BRANCH  14  15
HETATM   15  C   UNL     1     -10.653  11.636  67.611  1.00  0.00    -0.237 C  
BRANCH  15  16
HETATM   16  C   UNL     1      -9.398  12.306  67.073  1.00  0.00    -0.205 C  
BRANCH  16  17
HETATM   17  C   UNL     1      -9.106  11.892  65.636  1.00  0.00     0.017 C  
BRANCH  17  18
HETATM   18  C   UNL     1      -8.090  10.781  65.637  1.00  0.00    -0.112 C  
HETATM   19  O   UNL     1      -7.303  10.540  64.733  1.00  0.00    -0.082 OA 
BRANCH  18  20
HETATM   20  O   UNL     1      -8.240  10.036  66.760  1.00  0.00    -0.120 OA 
BRANCH  20  21
HETATM   21  C   UNL     1      -7.497   8.814  66.762  1.00  0.00    -0.086 C  
BRANCH  21  22
HETATM   22  C   UNL     1      -6.318   8.771  67.741  1.00  0.00    -0.057 C  
BRANCH  22  23
HETATM   23  C   UNL     1      -5.128   7.949  67.247  1.00  0.00    -0.027 C  
BRANCH  23  24
HETATM   24  O   UNL     1      -5.179   6.645  67.819  1.00  0.00    -0.004 OA 
BRANCH  24  25
HETATM   25  P   UNL     1      -6.532   5.827  67.494  1.00  0.00    -0.050 P  
HETATM   26  O   UNL     1      -7.487   5.948  68.657  1.00  0.00    -0.082 OA 
HETATM   27  O   UNL     1      -6.979   6.114  66.089  1.00  0.00    -0.063 OA 
BRANCH  25  28
HETATM   28  O   UNL     1      -5.952   4.308  67.488  1.00  0.00    -0.022 OA 
BRANCH  28  29
HETATM   29  C   UNL     1      -5.669   3.715  68.740  1.00  0.00    -0.022 C  
BRANCH  29  30
HETATM   30  C   UNL     1      -6.752   2.745  69.264  1.00  0.00    -0.033 C  
BRANCH  30  31
HETATM   31  N   UNL     1      -7.252   2.998  70.719  1.00  0.00    -0.033 N  
HETATM   32  C   UNL     1      -8.557   3.792  70.700  1.00  0.00    -0.071 C  
HETATM   33  C   UNL     1      -7.447   1.711  71.479  1.00  0.00    -0.036 C  
HETATM   34  C   UNL     1      -6.219   3.870  71.415  1.00  0.00    -0.015 C  
ENDBRANCH  30  31
ENDBRANCH  29  30
ENDBRANCH  28  29
ENDBRANCH  25  28
ENDBRANCH  24  25
ENDBRANCH  23  24
ENDBRANCH  22  23
BRANCH  22  35
HETATM   35  O   UNL     1      -5.934  10.119  68.128  1.00  0.00    -0.042 OA 
BRANCH  35  36
HETATM   36  C   UNL     1      -6.030  10.474  69.437  1.00  0.00    -0.039 C  
HETATM   37  O   UNL     1      -6.521   9.800  70.330  1.00  0.00    -0.075 OA 
BRANCH  36  38
HETATM   38  C   UNL     1      -5.367  11.803  69.681  1.00  0.00    -0.066 C  
BRANCH  38  39
HETATM   39  C   UNL     1      -5.407  12.710  68.464  1.00  0.00    -0.058 C  
BRANCH  39  40
HETATM   40  C   UNL     1      -6.088  14.047  68.760  1.00  0.00    -0.086 C  
BRANCH  40  41
HETATM   41  C   UNL     1      -6.955  14.471  67.583  1.00  0.00    -0.204 C  
BRANCH  41  42
HETATM   42  C   UNL     1      -7.058  15.987  67.495  1.00  0.00    -0.199 C  
BRANCH  42  43
HETATM   43  C   UNL     1      -7.940  16.524  68.617  1.00  0.00    -0.232 C  
BRANCH  43  44
HETATM   44  C   UNL     1      -8.591  17.841  68.218  1.00  0.00    -0.277 C  
BRANCH  44  45
HETATM   45  C   UNL     1     -10.109  17.730  68.244  1.00  0.00    -0.371 C  
BRANCH  45  46
HETATM   46  C   UNL     1     -10.542  16.534  69.083  1.00  0.00    -0.319 C  
BRANCH  46  47
HETATM   47  C   UNL     1     -12.054  16.526  69.268  1.00  0.00     0.674 C  
BRANCH  47  48
HETATM   48  C   UNL     1     -12.471  15.462  70.277  1.00  0.00    -0.413 C  
BRANCH  48  49
HETATM   49  C   UNL     1     -13.810  15.819  70.910  1.00  0.00     0.443 C  
BRANCH  49  50
HETATM   50  C   UNL     1     -13.679  15.934  72.426  1.00  0.00    -0.409 C  
BRANCH  50  51
HETATM   51  C   UNL     1     -12.233  15.723  72.865  1.00  0.00    -0.586 C  
BRANCH  51  52
HETATM   52  C   UNL     1     -11.796  14.281  72.623  1.00  0.00     0.459 C  
BRANCH  52  53
HETATM   53  C   UNL     1     -12.955  13.312  72.836  1.00  0.00     0.306 C  
HETATM   54  C   UNL     1     -13.241  12.514  71.575  1.00  0.00    -0.298 C  
ENDBRANCH  52  53
ENDBRANCH  51  52
ENDBRANCH  50  51
ENDBRANCH  49  50
ENDBRANCH  48  49
ENDBRANCH  47  48
ENDBRANCH  46  47
ENDBRANCH  45  46
ENDBRANCH  44  45
ENDBRANCH  43  44
ENDBRANCH  42  43
ENDBRANCH  41  42
ENDBRANCH  40  41
ENDBRANCH  39  40
ENDBRANCH  38  39
ENDBRANCH  36  38
ENDBRANCH  35  36
ENDBRANCH  22  35
ENDBRANCH  21  22
ENDBRANCH  20  21
ENDBRANCH  18  20
ENDBRANCH  17  18
ENDBRANCH  16  17
ENDBRANCH  15  16
ENDBRANCH  14  15
ENDBRANCH  13  14
ENDBRANCH  12  13
ENDBRANCH  11  12
ENDBRANCH  10  11
ENDBRANCH   9  10
ENDBRANCH   8   9
ENDBRANCH   7   8
ENDBRANCH   6   7
ENDBRANCH   5   6
ENDBRANCH   4   5
ENDBRANCH   3   4
ENDBRANCH   2   3
TORSDOF 44
ENDMDL
MODEL        9
REMARK 921   NORMALIZED FREE ENERGY PREDICTED BY IDOCK:    9.10 KCAL/MOL
REMARK 922        TOTAL FREE ENERGY PREDICTED BY IDOCK:   31.19 KCAL/MOL
REMARK 923 INTER-LIGAND FREE ENERGY PREDICTED BY IDOCK:    9.79 KCAL/MOL
REMARK 924 INTRA-LIGAND FREE ENERGY PREDICTED BY IDOCK:   21.40 KCAL/MOL
REMARK 927      BINDING AFFINITY PREDICTED BY RF-SCORE:    0.00 PKD
ROOT
HETATM    1  C   UNL     1      -9.864  13.201  69.520  1.00  0.00     1.086 C  
HETATM    2  C   UNL     1      -9.837  11.688  69.661  1.00  0.00     0.916 C  
ENDROOT
BRANCH   2   3
HETATM    3  C   UNL     1      -8.928  11.258  70.809  1.00  0.00     5.272 C  
BRANCH   3   4
HETATM    4  C   UNL     1      -9.394   9.938  71.418  1.00  0.00     1.447 C  
BRANCH   4   5
HETATM    5  C   UNL     1      -9.844   8.967  70.331  1.00  0.00    -0.242 C  
BRANCH   5   6
HETATM    6  C   UNL     1      -9.995   7.555  70.889  1.00  0.00    -0.181 C  
BRANCH   6   7
HETATM    7  C   UNL     1     -11.000   6.753  70.069  1.00  0.00    -0.344 C  
BRANCH   7   8
HETATM    8  C   UNL     1     -11.829   7.674  69.180  1.00  0.00     1.224 C  
BRANCH   8   9
HETATM    9  C   UNL     1     -11.544   7.402  67.708  1.00  0.00     1.040 C  
BRANCH   9  10
HETATM   10  C   UNL     1     -10.125   7.823  67.345  1.00  0.00    -0.288 C  
BRANCH  10  11
HETATM   11  C   UNL     1      -9.933   7.816  65.833  1.00  0.00     0.491 C  
BRANCH  11  12
HETATM   12  C   UNL     1     -10.781   8.898  65.177  1.00  0.00     3.792 C  
BRANCH  12  13
HETATM   13  C   UNL     1     -10.608  10.230  65.900  1.00  0.00    -0.083 C  
BRANCH  13  14
HETATM   14  C   UNL     1     -10.960  10.085  67.374  1.00  0.00    -0.258 C  
BRANCH  14  15
HETATM   15  C   UNL     1     -10.646  11.366  68.140  1.00  0.00    -0.220 C  
BRANCH  15  16
HETATM   16  C   UNL     1      -9.473  12.084  67.491  1.00  0.00    -0.178 C  
BRANCH  16  17
HETATM   17  C   UNL     1      -9.328  11.716  66.019  1.00  0.00    -0.241 C  
BRANCH  17  18
HETATM   18  C   UNL     1      -8.311  10.613  65.883  1.00  0.00    -0.161 C  
HETATM   19  O   UNL     1      -7.614  10.411  64.899  1.00  0.00    -0.140 OA 
BRANCH  18  20
HETATM   20  O   UNL     1      -8.349   9.828  66.987  1.00  0.00    -0.117 OA 
BRANCH  20  21
HETATM   21  C   UNL     1      -7.601   8.614  66.875  1.00  0.00    -0.084 C  
BRANCH  21  22
HETATM   22  C   UNL     1      -6.326   8.554  67.725  1.00  0.00    -0.057 C  
BRANCH  22  23
HETATM   23  C   UNL     1      -5.197   7.737  67.097  1.00  0.00    -0.031 C  
BRANCH  23  24
HETATM   24  O   UNL     1      -5.197   6.422  67.648  1.00  0.00    -0.004 OA 
BRANCH  24  25
HETATM   25  P   UNL     1      -6.662   5.760  67.791  1.00  0.00    -0.062 P  
HETATM   26  O   UNL     1      -7.156   5.925  69.208  1.00  0.00    -0.062 OA 
HETATM   27  O   UNL     1      -7.518   6.151  66.620  1.00  0.00    -0.087 OA 
BRANCH  25  28
HETATM   28  O   UNL     1      -6.287   4.191  67.578  1.00  0.00    -0.035 OA 
BRANCH  28  29
HETATM   29  C   UNL     1      -6.952   3.498  66.540  1.00  0.00    -0.054 C  
BRANCH  29  30
HETATM   30  C   UNL     1      -6.139   3.340  65.235  1.00  0.00    -0.023 C  
BRANCH  30  31
HETATM   31  N   UNL     1      -6.683   4.105  63.991  1.00  0.00    -0.043 N  
HETATM   32  C   UNL     1      -8.204   4.222  64.065  1.00  0.00    -0.096 C  
HETATM   33  C   UNL     1      -6.069   5.475  63.858  1.00  0.00    -0.022 C  
HETATM   34  C   UNL     1      -6.368   3.266  62.762  1.00  0.00    -0.018 C  
ENDBRANCH  30  31
ENDBRANCH  29  30
ENDBRANCH  28  29
ENDBRANCH  25  28
ENDBRANCH  24  25
ENDBRANCH  23  24
ENDBRANCH  22  23
BRANCH  22  35
HETATM   35  O   UNL     1      -5.899   9.895  68.090  1.00  0.00    -0.043 OA 
BRANCH  35  36
HETATM   36  C   UNL     1      -5.877  10.237  69.405  1.00  0.00    -0.037 C  
HETATM   37  O   UNL     1      -6.299   9.561  70.331  1.00  0.00    -0.055 OA 
BRANCH  36  38
HETATM   38  C   UNL     1      -5.173  11.553  69.604  1.00  0.00    -0.058 C  
BRANCH  38  39
HETATM   39  C   UNL     1      -5.289  12.467  68.397  1.00  0.00    -0.056 C  
BRANCH  39  40
HETATM   40  C   UNL     1      -6.013  13.773  68.727  1.00  0.00    -0.085 C  
BRANCH  40  41
HETATM   41  C   UNL     1      -6.938  14.168  67.583  1.00  0.00    -0.200 C  
BRANCH  41  42
HETATM   42  C   UNL     1      -7.093  15.680  67.501  1.00  0.00    -0.214 C  
BRANCH  42  43
HETATM   43  C   UNL     1      -7.949  16.189  68.656  1.00  0.00    -0.201 C  
BRANCH  43  44
HETATM   44  C   UNL     1      -8.545  17.552  68.335  1.00  0.00    -0.275 C  
BRANCH  44  45
HETATM   45  C   UNL     1     -10.066  17.506  68.371  1.00  0.00    -0.358 C  
BRANCH  45  46
HETATM   46  C   UNL     1     -10.544  16.287  69.152  1.00  0.00    -0.292 C  
BRANCH  46  47
HETATM   47  C   UNL     1     -12.064  16.195  69.127  1.00  0.00     0.050 C  
BRANCH  47  48
HETATM   48  C   UNL     1     -12.557  15.113  70.080  1.00  0.00    -0.319 C  
BRANCH  48  49
HETATM   49  C   UNL     1     -13.904  15.500  70.680  1.00  0.00     0.226 C  
BRANCH  49  50
HETATM   50  C   UNL     1     -13.823  15.559  72.202  1.00  0.00    -0.621 C  
BRANCH  50  51
HETATM   51  C   UNL     1     -12.384  15.379  72.678  1.00  0.00    -0.492 C  
BRANCH  51  52
HETATM   52  C   UNL     1     -11.891  13.963  72.392  1.00  0.00     1.039 C  
BRANCH  52  53
HETATM   53  C   UNL     1     -13.021  12.947  72.534  1.00  0.00    -0.064 C  
HETATM   54  C   UNL     1     -13.055  11.997  71.349  1.00  0.00    -0.295 C  
ENDBRANCH  52  53
ENDBRANCH  51  52
ENDBRANCH  50  51
ENDBRANCH  49  50
ENDBRANCH  48  49
ENDBRANCH  47  48
ENDBRANCH  46  47
ENDBRANCH  45  46
ENDBRANCH  44  45
ENDBRANCH  43  44
ENDBRANCH  42  43
ENDBRANCH  41  42
ENDBRANCH  40  41
ENDBRANCH  39  40
ENDBRANCH  38  39
ENDBRANCH  36  38
ENDBRANCH  35  36
ENDBRANCH  22  35
ENDBRANCH  21  22
ENDBRANCH  20  21
ENDBRANCH  18  20
ENDBRANCH  17  18
ENDBRANCH  16  17
ENDBRANCH  15  16
ENDBRANCH  14  15
ENDBRANCH  13  14
ENDBRANCH  12  13
ENDBRANCH  11  12
ENDBRANCH  10  11
ENDBRANCH   9  10
ENDBRANCH   8   9
ENDBRANCH   7   8
ENDBRANCH   6   7
ENDBRANCH   5   6
ENDBRANCH   4   5
ENDBRANCH   3   4
ENDBRANCH   2   3
TORSDOF 44
ENDMDL
MODEL       10
REMARK 921   NORMALIZED FREE ENERGY PREDICTED BY IDOCK:   18.92 KCAL/MOL
REMARK 922        TOTAL FREE ENERGY PREDICTED BY IDOCK:   66.25 KCAL/MOL
REMARK 923 INTER-LIGAND FREE ENERGY PREDICTED BY IDOCK:   17.52 KCAL/MOL
REMARK 924 INTRA-LIGAND FREE ENERGY PREDICTED BY IDOCK:   48.73 KCAL/MOL
REMARK 927      BINDING AFFINITY PREDICTED BY RF-SCORE:    0.00 PKD
ROOT
HETATM    1  C   UNL     1      -5.180   2.090  68.325  1.00  0.00    -0.012 C  
HETATM    2  C   UNL     1      -6.403   2.359  69.187  1.00  0.00    -0.029 C  
ENDROOT
BRANCH   2   3
HETATM    3  C   UNL     1      -6.524   3.843  69.523  1.00  0.00    -0.033 C  
BRANCH   3   4
HETATM    4  C   UNL     1      -6.038   4.129  70.942  1.00  0.00    -0.014 C  
BRANCH   4   5
HETATM    5  C   UNL     1      -6.801   5.302  71.550  1.00  0.00    -0.053 C  
BRANCH   5   6
HETATM    6  C   UNL     1      -8.281   5.241  71.184  1.00  0.00    -0.118 C  
BRANCH   6   7
HETATM    7  C   UNL     1      -8.468   5.293  69.672  1.00  0.00    -0.098 C  
BRANCH   7   8
HETATM    8  C   UNL     1      -8.485   6.735  69.179  1.00  0.00    -0.128 C  
BRANCH   8   9
HETATM    9  C   UNL     1      -7.072   7.306  69.130  1.00  0.00    -0.080 C  
BRANCH   9  10
HETATM   10  C   UNL     1      -6.770   7.884  67.753  1.00  0.00    -0.068 C  
BRANCH  10  11
HETATM   11  C   UNL     1      -7.013   9.390  67.738  1.00  0.00    -0.080 C  
BRANCH  11  12
HETATM   12  C   UNL     1      -8.391   9.718  68.299  1.00  0.00    -0.106 C  
BRANCH  12  13
HETATM   13  C   UNL     1      -8.634  11.223  68.282  1.00  0.00    -0.153 C  
BRANCH  13  14
HETATM   14  C   UNL     1      -9.370  11.629  67.011  1.00  0.00    -0.186 C  
BRANCH  14  15
HETATM   15  C   UNL     1      -8.520  12.569  66.163  1.00  0.00     0.451 C  
BRANCH  15  16
HETATM   16  C   UNL     1      -8.319  13.887  66.894  1.00  0.00    -0.029 C  
BRANCH  16  17
HETATM   17  C   UNL     1      -8.827  13.823  68.329  1.00  0.00    -0.185 C  
BRANCH  17  18
HETATM   18  C   UNL     1      -9.094  15.220  68.823  1.00  0.00    -0.200 C  
HETATM   19  O   UNL     1      -9.578  15.506  69.909  1.00  0.00    -0.275 OA 
BRANCH  18  20
HETATM   20  O   UNL     1      -8.794  16.108  67.843  1.00  0.00    -0.180 OA 
BRANCH  20  21
HETATM   21  C   UNL     1      -7.568  16.817  68.044  1.00  0.00    -0.169 C  
BRANCH  21  22
HETATM   22  C   UNL     1      -6.395  15.962  68.537  1.00  0.00    -0.111 C  
BRANCH  22  23
HETATM   23  C   UNL     1      -5.131  16.761  68.851  1.00  0.00    -0.124 C  
BRANCH  23  24
HETATM   24  O   UNL     1      -5.167  18.004  68.155  1.00  0.00    -0.152 OA 
BRANCH  24  25
HETATM   25  P   UNL     1      -6.336  18.113  67.046  1.00  0.00    -0.183 P  
HETATM   26  O   UNL     1      -7.032  16.780  66.914  1.00  0.00    -0.179 OA 
HETATM   27  O   UNL     1      -7.116  19.381  67.248  1.00  0.00    -0.200 OA 
BRANCH  25  28
HETATM   28  O   UNL     1      -5.439  18.336  65.708  1.00  0.00    -0.153 OA 
BRANCH  28  29
HETATM   29  C   UNL     1      -5.989  19.141  64.683  1.00  0.00    -0.273 C  
BRANCH  29  30
HETATM   30  C   UNL     1      -7.514  19.371  64.780  1.00  0.00     1.394 C  
BRANCH  30  31
HETATM   31  N   UNL     1      -8.047  19.862  66.160  1.00  0.00    -0.342 N  
HETATM   32  C   UNL     1      -9.287  20.734  65.969  1.00  0.00     0.544 C  
HETATM   33  C   UNL     1      -8.365  18.714  67.083  1.00  0.00    -0.264 C  
HETATM   34  C   UNL     1      -6.978  20.752  66.776  1.00  0.00    -0.269 C  
ENDBRANCH  30  31
ENDBRANCH  29  30
ENDBRANCH  28  29
ENDBRANCH  25  28
ENDBRANCH  24  25
ENDBRANCH  23  24
ENDBRANCH  22  23
BRANCH  22  35
HETATM   35  O   UNL     1      -6.812  15.128  69.653  1.00  0.00    -0.163 OA 
BRANCH  35  36
HETATM   36  C   UNL     1      -7.035  15.716  70.858  1.00  0.00     1.446 C  
HETATM   37  O   UNL     1      -7.251  16.903  71.050  1.00  0.00     3.186 OA 
BRANCH  36  38
HETATM   38  C   UNL     1      -7.066  14.688  71.957  1.00  0.00     2.714 C  
BRANCH  38  39
HETATM   39  C   UNL     1      -8.340  13.864  71.953  1.00  0.00     9.060 C  
BRANCH  39  40
HETATM   40  C   UNL     1      -9.593  14.735  72.049  1.00  0.00     4.757 C  
BRANCH  40  41
HETATM   41  C   UNL     1     -10.399  14.646  70.761  1.00  0.00     0.868 C  
BRANCH  41  42
HETATM   42  C   UNL     1     -11.555  15.638  70.767  1.00  0.00    -0.412 C  
BRANCH  42  43
HETATM   43  C   UNL     1     -12.144  15.756  72.168  1.00  0.00    -0.570 C  
BRANCH  43  44
HETATM   44  C   UNL     1     -13.057  14.578  72.478  1.00  0.00    -0.518 C  
BRANCH  44  45
HETATM   45  C   UNL     1     -13.931  14.234  71.280  1.00  0.00    -0.257 C  
BRANCH  45  46
HETATM   46  C   UNL     1     -13.696  12.791  70.847  1.00  0.00     1.221 C  
BRANCH  46  47
HETATM   47  C   UNL     1     -12.288  12.619  70.292  1.00  0.00    -0.269 C  
BRANCH  47  48
HETATM   48  C   UNL     1     -11.687  11.292  70.742  1.00  0.00    -0.148 C  
BRANCH  48  49
HETATM   49  C   UNL     1     -12.215  10.147  69.886  1.00  0.00    -0.050 C  
BRANCH  49  50
HETATM   50  C   UNL     1     -12.443   8.899  70.732  1.00  0.00     0.031 C  
BRANCH  50  51
HETATM   51  C   UNL     1     -11.177   8.517  71.493  1.00  0.00    -0.345 C  
BRANCH  51  52
HETATM   52  C   UNL     1     -11.462   7.408  72.502  1.00  0.00    -0.346 C  
BRANCH  52  53
HETATM   53  C   UNL     1     -10.233   7.115  73.359  1.00  0.00    -0.367 C  
HETATM   54  C   UNL     1     -10.278   5.702  73.915  1.00  0.00    -0.259 C  
ENDBRANCH  52  53
ENDBRANCH  51  52
ENDBRANCH  50  51
ENDBRANCH  49  50
ENDBRANCH  48  49
ENDBRANCH  47  48
ENDBRANCH  46  47
ENDBRANCH  45  46
ENDBRANCH  44  45
ENDBRANCH  43  44
ENDBRANCH  42  43
ENDBRANCH  41  42
ENDBRANCH  40  41
ENDBRANCH  39  40
ENDBRANCH  38  39
ENDBRANCH  36  38
ENDBRANCH  35  36
ENDBRANCH  22  35
ENDBRANCH  21  22
ENDBRANCH  20  21
ENDBRANCH  18  20
ENDBRANCH  17  18
ENDBRANCH  16  17
ENDBRANCH  15  16
ENDBRANCH  14  15
ENDBRANCH  13  14
ENDBRANCH  12  13
ENDBRANCH  11  12
ENDBRANCH  10  11
ENDBRANCH   9  10
ENDBRANCH   8   9
ENDBRANCH   7   8
ENDBRANCH   6   7
ENDBRANCH   5   6
ENDBRANCH   4   5
ENDBRANCH   3   4
ENDBRANCH   2   3
TORSDOF 44
ENDMDL
