MODEL        1
REMARK 921   NORMALIZED FREE ENERGY PREDICTED BY IDOCK:   -3.58 KCAL/MOL
REMARK 922        TOTAL FREE ENERGY PREDICTED BY IDOCK:  -19.39 KCAL/MOL
REMARK 923 INTER-LIGAND FREE ENERGY PREDICTED BY IDOCK:  -12.15 KCAL/MOL
REMARK 924 INTRA-LIGAND FREE ENERGY PREDICTED BY IDOCK:   -7.24 KCAL/MOL
REMARK 927      BINDING AFFINITY PREDICTED BY RF-SCORE:    0.00 PKD
ROOT
HETATM    1  C   UNL     1     -11.030   5.847  69.890  1.00  0.00    -0.444 C  
HETATM    2  C   UNL     1     -12.139   6.744  70.414  1.00  0.00    -0.270 C  
ENDROOT
BRANCH   2   3
HETATM    3  C   UNL     1     -12.131   6.793  71.939  1.00  0.00    -0.375 C  
BRANCH   3   4
HETATM    4  C   UNL     1     -12.593   8.155  72.449  1.00  0.00    -0.268 C  
BRANCH   4   5
HETATM    5  C   UNL     1     -13.848   8.613  71.711  1.00  0.00    -0.472 C  
BRANCH   5   6
HETATM    6  C   UNL     1     -13.620   9.955  71.027  1.00  0.00    -0.168 C  
BRANCH   6   7
HETATM    7  C   UNL     1     -13.281  11.031  72.054  1.00  0.00    -0.447 C  
BRANCH   7   8
HETATM    8  C   UNL     1     -12.882  12.331  71.365  1.00  0.00    -0.373 C  
BRANCH   8   9
HETATM    9  C   UNL     1     -13.498  13.527  72.080  1.00  0.00    -0.631 C  
BRANCH   9  10
HETATM   10  C   UNL     1     -12.503  14.680  72.151  1.00  0.00    -0.394 C  
BRANCH  10  11
HETATM   11  C   UNL     1     -12.551  15.515  70.876  1.00  0.00    -0.512 C  
BRANCH  11  12
HETATM   12  C   UNL     1     -11.356  15.201  69.986  1.00  0.00    -0.304 C  
BRANCH  12  13
HETATM   13  C   UNL     1     -11.596  15.650  68.547  1.00  0.00    -0.378 C  
BRANCH  13  14
HETATM   14  C   UNL     1     -10.767  16.894  68.247  1.00  0.00    -0.377 C  
BRANCH  14  15
HETATM   15  C   UNL     1      -9.549  16.580  67.387  1.00  0.00    -0.238 C  
BRANCH  15  16
HETATM   16  C   UNL     1      -9.990  16.085  66.033  1.00  0.00    -0.339 C  
HETATM   17  O   UNL     1     -10.501  16.779  65.166  1.00  0.00    -0.658 OA 
BRANCH  16  18
HETATM   18  O   UNL     1      -9.730  14.752  65.906  1.00  0.00    -0.310 OA 
BRANCH  18  19
HETATM   19  C   UNL     1      -8.766  14.251  66.845  1.00  0.00    -0.179 C  
BRANCH  19  20
HETATM   20  C   UNL     1      -9.072  12.811  67.288  1.00  0.00    -0.200 C  
BRANCH  20  21
HETATM   21  O   UNL     1     -10.487  12.583  67.098  1.00  0.00    -0.222 OA 
BRANCH  21  22
HETATM   22  C   UNL     1     -11.046  11.694  67.960  1.00  0.00    -0.242 C  
HETATM   23  O   UNL     1     -12.147  11.166  67.812  1.00  0.00    -0.606 OA 
BRANCH  22  24
HETATM   24  C   UNL     1     -10.146  11.436  69.137  1.00  0.00    -0.044 C  
BRANCH  24  25
HETATM   25  C   UNL     1     -10.086   9.938  69.387  1.00  0.00    -0.227 C  
BRANCH  25  26
HETATM   26  C   UNL     1      -9.850   9.619  70.858  1.00  0.00    -0.168 C  
BRANCH  26  27
HETATM   27  C   UNL     1      -8.915   8.423  70.957  1.00  0.00    -0.199 C  
BRANCH  27  28
HETATM   28  C   UNL     1      -8.121   8.404  72.259  1.00  0.00    -0.186 C  
BRANCH  28  29
HETATM   29  C   UNL     1      -8.963   7.877  73.423  1.00  0.00    -0.339 C  
BRANCH  29  30
HETATM   30  C   UNL     1      -8.438   6.582  74.050  1.00  0.00    -0.133 C  
BRANCH  30  31
HETATM   31  C   UNL     1      -9.533   5.594  74.351  1.00  0.00    -0.149 C  
HETATM   32  C   UNL     1      -9.829   4.529  73.589  1.00  0.00    -0.163 C  
BRANCH  32  33
HETATM   33  C   UNL     1      -9.057   4.195  72.354  1.00  0.00    -0.143 C  
BRANCH  33  34
HETATM   34  C   UNL     1      -7.767   3.447  72.642  1.00  0.00    -0.066 C  
BRANCH  34  35
HETATM   35  C   UNL     1      -6.606   4.201  72.005  1.00  0.00    -0.022 C  
BRANCH  35  36
HETATM   36  C   UNL     1      -7.076   4.987  70.793  1.00  0.00    -0.056 C  
BRANCH  36  37
HETATM   37  C   UNL     1      -6.823   4.204  69.510  1.00  0.00    -0.045 C  
BRANCH  37  38
HETATM   38  C   UNL     1      -8.081   4.188  68.649  1.00  0.00    -0.074 C  
BRANCH  38  39
HETATM   39  C   UNL     1      -8.953   2.978  68.961  1.00  0.00    -0.182 C  
HETATM   40  C   UNL     1      -8.103   1.807  69.422  1.00  0.00    -0.060 C  
ENDBRANCH  38  39
ENDBRANCH  37  38
ENDBRANCH  36  37
ENDBRANCH  35  36
ENDBRANCH  34  35
ENDBRANCH  33  34
ENDBRANCH  32  33
ENDBRANCH  30  31
ENDBRANCH  29  30
ENDBRANCH  28  29
ENDBRANCH  27  28
ENDBRANCH  26  27
ENDBRANCH  25  26
ENDBRANCH  24  25
ENDBRANCH  22  24
ENDBRANCH  21  22
ENDBRANCH  20  21
BRANCH  20  41
HETATM   41  C   UNL     1      -8.285  11.776  66.477  1.00  0.00    -0.066 C  
BRANCH  41  42
HETATM   42  O   UNL     1      -8.990  11.339  65.318  1.00  0.00    -0.169 OA 
BRANCH  42  43
HETATM   43  P   UNL     1      -8.628   9.697  64.911  1.00  0.00    -0.200 P  
HETATM   44  O   UNL     1      -9.959   9.380  65.769  1.00  0.00    -0.309 OA 
HETATM   45  O   UNL     1      -9.035   9.961  63.464  1.00  0.00    -0.219 OA 
BRANCH  43  46
HETATM   46  O   UNL     1      -8.268   8.055  64.504  1.00  0.00    -0.148 OA 
BRANCH  46  47
HETATM   47  C   UNL     1      -8.269   7.092  65.592  1.00  0.00    -0.134 C  
BRANCH  47  48
HETATM   48  C   UNL     1      -7.034   7.043  66.569  1.00  0.00    -0.069 C  
HETATM   49  O   UNL     1      -5.847   7.616  66.014  1.00  0.00    -0.036 OA 
HETATM   50  H   UNL     1      -5.102   7.586  66.604  1.00  0.00     0.000 HD 
BRANCH  48  51
HETATM   51  C   UNL     1      -7.332   7.764  67.898  1.00  0.00    -0.102 C  
HETATM   52  H   UNL     1      -6.410   8.140  69.628  1.00  0.00     0.000 HD 
HETATM   53  O   UNL     1      -6.226   7.696  68.809  1.00  0.00    -0.034 OA 
ENDBRANCH  48  51
ENDBRANCH  47  48
ENDBRANCH  46  47
ENDBRANCH  43  46
ENDBRANCH  42  43
ENDBRANCH  41  42
ENDBRANCH  20  41
ENDBRANCH  19  20
ENDBRANCH  18  19
ENDBRANCH  16  18
ENDBRANCH  15  16
ENDBRANCH  14  15
ENDBRANCH  13  14
ENDBRANCH  12  13
ENDBRANCH  11  12
ENDBRANCH  10  11
ENDBRANCH   9  10
ENDBRANCH   8   9
ENDBRANCH   7   8
ENDBRANCH   6   7
ENDBRANCH   5   6
ENDBRANCH   4   5
ENDBRANCH   3   4
ENDBRANCH   2   3
TORSDOF 41
ENDMDL
MODEL        2
REMARK 921   NORMALIZED FREE ENERGY PREDICTED BY IDOCK:   -3.26 KCAL/MOL
REMARK 922        TOTAL FREE ENERGY PREDICTED BY IDOCK:  -18.33 KCAL/MOL
REMARK 923 INTER-LIGAND FREE ENERGY PREDICTED BY IDOCK:  -10.24 KCAL/MOL
REMARK 924 INTRA-LIGAND FREE ENERGY PREDICTED BY IDOCK:   -8.08 KCAL/MOL
REMARK 927      BINDING AFFINITY PREDICTED BY RF-SCORE:    0.00 PKD
ROOT
HETATM    1  C   UNL     1     -11.118  11.603  65.610  1.00  0.00    -0.308 C  
HETATM    2  C   UNL     1     -11.038  12.152  67.024  1.00  0.00    -0.347 C  
ENDROOT
BRANCH   2   3
HETATM    3  C   UNL     1     -11.352  11.069  68.052  1.00  0.00    -0.374 C  
BRANCH   3   4
HETATM    4  C   UNL     1     -10.207  10.905  69.048  1.00  0.00    -0.219 C  
BRANCH   4   5
HETATM    5  C   UNL     1     -10.156   9.476  69.583  1.00  0.00    -0.228 C  
BRANCH   5   6
HETATM    6  C   UNL     1     -10.459   9.443  71.077  1.00  0.00    -0.392 C  
BRANCH   6   7
HETATM    7  C   UNL     1     -11.908   9.036  71.323  1.00  0.00    -0.379 C  
BRANCH   7   8
HETATM    8  C   UNL     1     -11.982   7.650  71.954  1.00  0.00    -0.331 C  
BRANCH   8   9
HETATM    9  C   UNL     1     -10.925   7.499  73.040  1.00  0.00    -0.443 C  
BRANCH   9  10
HETATM   10  C   UNL     1     -10.177   6.181  72.883  1.00  0.00    -0.206 C  
BRANCH  10  11
HETATM   11  C   UNL     1      -8.715   6.335  73.291  1.00  0.00    -0.125 C  
BRANCH  11  12
HETATM   12  C   UNL     1      -7.833   5.397  72.478  1.00  0.00    -0.103 C  
BRANCH  12  13
HETATM   13  C   UNL     1      -6.896   6.171  71.555  1.00  0.00    -0.067 C  
BRANCH  13  14
HETATM   14  C   UNL     1      -6.976   7.661  71.865  1.00  0.00    -0.063 C  
BRANCH  14  15
HETATM   15  C   UNL     1      -6.808   8.519  70.617  1.00  0.00    -0.041 C  
BRANCH  15  16
HETATM   16  C   UNL     1      -6.462   9.933  71.008  1.00  0.00     0.026 C  
HETATM   17  O   UNL     1      -5.871  10.252  72.029  1.00  0.00    -0.287 OA 
BRANCH  16  18
HETATM   18  O   UNL     1      -6.894  10.809  70.056  1.00  0.00    -0.154 OA 
BRANCH  18  19
HETATM   19  C   UNL     1      -6.096  11.997  69.948  1.00  0.00    -0.150 C  
BRANCH  19  20
HETATM   20  C   UNL     1      -5.621  12.256  68.509  1.00  0.00    -0.054 C  
BRANCH  20  21
HETATM   21  O   UNL     1      -5.733  11.014  67.778  1.00  0.00    -0.042 OA 
BRANCH  21  22
HETATM   22  C   UNL     1      -6.002  11.149  66.454  1.00  0.00    -0.145 C  
HETATM   23  O   UNL     1      -5.170  11.412  65.588  1.00  0.00    -0.284 OA 
BRANCH  22  24
HETATM   24  C   UNL     1      -7.465  10.943  66.172  1.00  0.00    -0.107 C  
BRANCH  24  25
HETATM   25  C   UNL     1      -7.678   9.509  65.715  1.00  0.00    -0.100 C  
BRANCH  25  26
HETATM   26  C   UNL     1      -7.830   8.557  66.895  1.00  0.00    -0.092 C  
BRANCH  26  27
HETATM   27  C   UNL     1      -6.676   7.565  66.877  1.00  0.00    -0.066 C  
BRANCH  27  28
HETATM   28  C   UNL     1      -7.013   6.258  67.586  1.00  0.00    -0.075 C  
BRANCH  28  29
HETATM   29  C   UNL     1      -6.926   5.063  66.633  1.00  0.00    -0.067 C  
BRANCH  29  30
HETATM   30  C   UNL     1      -6.120   3.879  67.173  1.00  0.00    -0.025 C  
BRANCH  30  31
HETATM   31  C   UNL     1      -5.618   4.106  68.574  1.00  0.00    -0.013 C  
HETATM   32  C   UNL     1      -5.872   3.296  69.615  1.00  0.00    -0.022 C  
BRANCH  32  33
HETATM   33  C   UNL     1      -6.671   2.042  69.471  1.00  0.00    -0.033 C  
BRANCH  33  34
HETATM   34  C   UNL     1      -8.092   2.179  69.987  1.00  0.00    -0.057 C  
BRANCH  34  35
HETATM   35  C   UNL     1      -9.054   2.121  68.806  1.00  0.00    -0.193 C  
BRANCH  35  36
HETATM   36  C   UNL     1      -9.514   3.516  68.419  1.00  0.00    -0.209 C  
BRANCH  36  37
HETATM   37  C   UNL     1      -9.713   4.382  69.657  1.00  0.00    -0.289 C  
BRANCH  37  38
HETATM   38  C   UNL     1      -9.774   5.852  69.265  1.00  0.00    -0.182 C  
BRANCH  38  39
HETATM   39  C   UNL     1     -11.096   6.193  68.587  1.00  0.00    -0.378 C  
HETATM   40  C   UNL     1     -10.879   6.533  67.124  1.00  0.00    -0.472 C  
ENDBRANCH  38  39
ENDBRANCH  37  38
ENDBRANCH  36  37
ENDBRANCH  35  36
ENDBRANCH  34  35
ENDBRANCH  33  34
ENDBRANCH  32  33
ENDBRANCH  30  31
ENDBRANCH  29  30
ENDBRANCH  28  29
ENDBRANCH  27  28
ENDBRANCH  26  27
ENDBRANCH  25  26
ENDBRANCH  24  25
ENDBRANCH  22  24
ENDBRANCH  21  22
ENDBRANCH  20  21
BRANCH  20  41
HETATM   41  C   UNL     1      -6.461  13.327  67.805  1.00  0.00    -0.159 C  
BRANCH  41  42
HETATM   42  O   UNL     1      -7.640  13.662  68.532  1.00  0.00    -0.122 OA 
BRANCH  42  43
HETATM   43  P   UNL     1      -8.042  15.339  68.392  1.00  0.00    -0.154 P  
HETATM   44  O   UNL     1      -7.317  15.208  66.955  1.00  0.00    -0.167 OA 
HETATM   45  O   UNL     1      -9.515  14.977  68.228  1.00  0.00    -0.188 OA 
BRANCH  43  46
HETATM   46  O   UNL     1      -8.444  17.015  68.252  1.00  0.00    -0.217 OA 
BRANCH  46  47
HETATM   47  C   UNL     1      -9.805  17.396  68.590  1.00  0.00    -0.322 C  
BRANCH  47  48
HETATM   48  C   UNL     1     -10.553  18.441  67.680  1.00  0.00    -0.408 C  
HETATM   49  O   UNL     1     -10.432  19.789  68.142  1.00  0.00    -0.435 OA 
HETATM   50  H   UNL     1     -10.883  20.419  67.593  1.00  0.00     0.000 HD 
BRANCH  48  51
HETATM   51  C   UNL     1     -10.047  18.391  66.225  1.00  0.00    -0.392 C  
HETATM   52  H   UNL     1     -10.278  17.246  64.607  1.00  0.00     0.000 HD 
HETATM   53  O   UNL     1     -10.590  17.276  65.503  1.00  0.00    -0.580 OA 
ENDBRANCH  48  51
ENDBRANCH  47  48
ENDBRANCH  46  47
ENDBRANCH  43  46
ENDBRANCH  42  43
ENDBRANCH  41  42
ENDBRANCH  20  41
ENDBRANCH  19  20
ENDBRANCH  18  19
ENDBRANCH  16  18
ENDBRANCH  15  16
ENDBRANCH  14  15
ENDBRANCH  13  14
ENDBRANCH  12  13
ENDBRANCH  11  12
ENDBRANCH  10  11
ENDBRANCH   9  10
ENDBRANCH   8   9
ENDBRANCH   7   8
ENDBRANCH   6   7
ENDBRANCH   5   6
ENDBRANCH   4   5
ENDBRANCH   3   4
ENDBRANCH   2   3
TORSDOF 41
ENDMDL
MODEL        3
REMARK 921   NORMALIZED FREE ENERGY PREDICTED BY IDOCK:   -3.16 KCAL/MOL
REMARK 922        TOTAL FREE ENERGY PREDICTED BY IDOCK:  -17.98 KCAL/MOL
REMARK 923 INTER-LIGAND FREE ENERGY PREDICTED BY IDOCK:  -11.66 KCAL/MOL
REMARK 924 INTRA-LIGAND FREE ENERGY PREDICTED BY IDOCK:   -6.32 KCAL/MOL
REMARK 927      BINDING AFFINITY PREDICTED BY RF-SCORE:    0.00 PKD
ROOT
HETATM    1  C   UNL     1     -10.539   5.518  69.816  1.00  0.00    -0.388 C  
HETATM    2  C   UNL     1     -11.647   6.523  70.083  1.00  0.00    -0.466 C  
ENDROOT
BRANCH   2   3
HETATM    3  C   UNL     1     -12.086   6.482  71.543  1.00  0.00    -0.363 C  
BRANCH   3   4
HETATM    4  C   UNL     1     -12.398   7.882  72.065  1.00  0.00    -0.346 C  
BRANCH   4   5
HETATM    5  C   UNL     1     -13.809   8.307  71.667  1.00  0.00    -0.431 C  
BRANCH   5   6
HETATM    6  C   UNL     1     -13.811   9.714  71.083  1.00  0.00    -0.067 C  
BRANCH   6   7
HETATM    7  C   UNL     1     -13.216  10.709  72.075  1.00  0.00    -0.473 C  
BRANCH   7   8
HETATM    8  C   UNL     1     -12.912  12.038  71.394  1.00  0.00    -0.362 C  
BRANCH   8   9
HETATM    9  C   UNL     1     -13.657  13.175  72.081  1.00  0.00    -0.637 C  
BRANCH   9  10
HETATM   10  C   UNL     1     -12.806  14.439  72.101  1.00  0.00    -0.418 C  
BRANCH  10  11
HETATM   11  C   UNL     1     -12.984  15.232  70.810  1.00  0.00    -0.492 C  
BRANCH  11  12
HETATM   12  C   UNL     1     -12.140  14.632  69.694  1.00  0.00    -0.355 C  
BRANCH  12  13
HETATM   13  C   UNL     1     -11.506  15.717  68.827  1.00  0.00    -0.382 C  
BRANCH  13  14
HETATM   14  C   UNL     1     -10.319  16.337  69.557  1.00  0.00    -0.284 C  
BRANCH  14  15
HETATM   15  C   UNL     1      -9.019  15.594  69.277  1.00  0.00    -0.267 C  
BRANCH  15  16
HETATM   16  C   UNL     1      -8.557  15.879  67.871  1.00  0.00    -0.163 C  
HETATM   17  O   UNL     1      -8.223  16.979  67.454  1.00  0.00    -0.179 OA 
BRANCH  16  18
HETATM   18  O   UNL     1      -8.555  14.735  67.129  1.00  0.00    -0.200 OA 
BRANCH  18  19
HETATM   19  C   UNL     1      -7.650  13.728  67.607  1.00  0.00    -0.181 C  
BRANCH  19  20
HETATM   20  C   UNL     1      -8.272  12.322  67.585  1.00  0.00    -0.166 C  
BRANCH  20  21
HETATM   21  O   UNL     1      -9.574  12.426  66.969  1.00  0.00    -0.201 OA 
BRANCH  21  22
HETATM   22  C   UNL     1     -10.578  11.802  67.638  1.00  0.00    -0.205 C  
HETATM   23  O   UNL     1     -11.670  11.505  67.155  1.00  0.00    -0.567 OA 
BRANCH  22  24
HETATM   24  C   UNL     1     -10.190  11.520  69.063  1.00  0.00    -0.109 C  
BRANCH  24  25
HETATM   25  C   UNL     1     -10.448  10.052  69.359  1.00  0.00    -0.252 C  
BRANCH  25  26
HETATM   26  C   UNL     1      -9.765   9.606  70.646  1.00  0.00    -0.239 C  
BRANCH  26  27
HETATM   27  C   UNL     1      -8.613   8.677  70.294  1.00  0.00    -0.144 C  
BRANCH  27  28
HETATM   28  C   UNL     1      -7.253   9.257  70.669  1.00  0.00    -0.120 C  
BRANCH  28  29
HETATM   29  C   UNL     1      -6.709   8.628  71.953  1.00  0.00    -0.078 C  
BRANCH  29  30
HETATM   30  C   UNL     1      -5.693   7.504  71.727  1.00  0.00    -0.036 C  
BRANCH  30  31
HETATM   31  C   UNL     1      -5.604   6.556  72.893  1.00  0.00    -0.038 C  
HETATM   32  C   UNL     1      -5.871   5.242  72.829  1.00  0.00    -0.023 C  
BRANCH  32  33
HETATM   33  C   UNL     1      -6.263   4.571  71.552  1.00  0.00    -0.018 C  
BRANCH  33  34
HETATM   34  C   UNL     1      -7.608   3.873  71.635  1.00  0.00    -0.057 C  
BRANCH  34  35
HETATM   35  C   UNL     1      -7.591   2.905  72.812  1.00  0.00    -0.050 C  
BRANCH  35  36
HETATM   36  C   UNL     1      -8.870   3.023  73.624  1.00  0.00    -0.079 C  
BRANCH  36  37
HETATM   37  C   UNL     1      -9.669   4.249  73.196  1.00  0.00    -0.159 C  
BRANCH  37  38
HETATM   38  C   UNL     1     -10.196   4.985  74.421  1.00  0.00    -0.301 C  
BRANCH  38  39
HETATM   39  C   UNL     1     -10.031   6.493  74.279  1.00  0.00    -0.362 C  
HETATM   40  C   UNL     1      -8.590   6.901  74.525  1.00  0.00    -0.204 C  
ENDBRANCH  38  39
ENDBRANCH  37  38
ENDBRANCH  36  37
ENDBRANCH  35  36
ENDBRANCH  34  35
ENDBRANCH  33  34
ENDBRANCH  32  33
ENDBRANCH  30  31
ENDBRANCH  29  30
ENDBRANCH  28  29
ENDBRANCH  27  28
ENDBRANCH  26  27
ENDBRANCH  25  26
ENDBRANCH  24  25
ENDBRANCH  22  24
ENDBRANCH  21  22
ENDBRANCH  20  21
BRANCH  20  41
HETATM   41  C   UNL     1      -7.420  11.325  66.791  1.00  0.00    -0.146 C  
BRANCH  41  42
HETATM   42  O   UNL     1      -8.039  10.928  65.571  1.00  0.00    -0.129 OA 
BRANCH  42  43
HETATM   43  P   UNL     1      -8.300   9.220  65.493  1.00  0.00    -0.150 P  
HETATM   44  O   UNL     1      -7.839   9.261  67.041  1.00  0.00    -0.098 OA 
HETATM   45  O   UNL     1      -9.807   9.449  65.430  1.00  0.00    -0.270 OA 
BRANCH  43  46
HETATM   46  O   UNL     1      -8.561   7.512  65.418  1.00  0.00    -0.130 OA 
BRANCH  46  47
HETATM   47  C   UNL     1      -9.738   6.996  66.096  1.00  0.00     0.115 C  
BRANCH  47  48
HETATM   48  C   UNL     1      -9.812   5.459  66.432  1.00  0.00    -0.176 C  
HETATM   49  O   UNL     1     -11.128   4.913  66.316  1.00  0.00    -0.528 OA 
HETATM   50  H   UNL     1     -11.172   3.986  66.519  1.00  0.00     0.000 HD 
BRANCH  48  51
HETATM   51  C   UNL     1      -8.875   4.634  65.527  1.00  0.00    -0.134 C  
HETATM   52  H   UNL     1      -8.988   3.577  63.838  1.00  0.00     0.000 HD 
HETATM   53  O   UNL     1      -9.564   4.085  64.395  1.00  0.00    -0.154 OA 
ENDBRANCH  48  51
ENDBRANCH  47  48
ENDBRANCH  46  47
ENDBRANCH  43  46
ENDBRANCH  42  43
ENDBRANCH  41  42
ENDBRANCH  20  41
ENDBRANCH  19  20
ENDBRANCH  18  19
ENDBRANCH  16  18
ENDBRANCH  15  16
ENDBRANCH  14  15
ENDBRANCH  13  14
ENDBRANCH  12  13
ENDBRANCH  11  12
ENDBRANCH  10  11
ENDBRANCH   9  10
ENDBRANCH   8   9
ENDBRANCH   7   8
ENDBRANCH   6   7
ENDBRANCH   5   6
ENDBRANCH   4   5
ENDBRANCH   3   4
ENDBRANCH   2   3
TORSDOF 41
ENDMDL
MODEL        4
REMARK 921   NORMALIZED FREE ENERGY PREDICTED BY IDOCK:   -2.99 KCAL/MOL
REMARK 922        TOTAL FREE ENERGY PREDICTED BY IDOCK:  -17.40 KCAL/MOL
REMARK 923 INTER-LIGAND FREE ENERGY PREDICTED BY IDOCK:  -10.67 KCAL/MOL
REMARK 924 INTRA-LIGAND FREE ENERGY PREDICTED BY IDOCK:   -6.73 KCAL/MOL
REMARK 927      BINDING AFFINITY PREDICTED BY RF-SCORE:    0.00 PKD
ROOT
HETATM    1  C   UNL     1     -10.578   5.526  70.694  1.00  0.00    -0.329 C  
HETATM    2  C   UNL     1     -11.692   6.508  70.374  1.00  0.00    -0.439 C  
ENDROOT
BRANCH   2   3
HETATM    3  C   UNL     1     -12.541   6.797  71.608  1.00  0.00    -0.380 C  
BRANCH   3   4
HETATM    4  C   UNL     1     -12.274   8.200  72.145  1.00  0.00    -0.398 C  
BRANCH   4   5
HETATM    5  C   UNL     1     -13.539   9.051  72.091  1.00  0.00    -0.523 C  
BRANCH   5   6
HETATM    6  C   UNL     1     -13.374  10.213  71.118  1.00  0.00    -0.372 C  
BRANCH   6   7
HETATM    7  C   UNL     1     -11.989  10.837  71.256  1.00  0.00    -0.286 C  
BRANCH   7   8
HETATM    8  C   UNL     1     -11.799  11.963  70.247  1.00  0.00    -0.368 C  
BRANCH   8   9
HETATM    9  C   UNL     1     -12.808  13.078  70.493  1.00  0.00     0.009 C  
BRANCH   9  10
HETATM   10  C   UNL     1     -12.203  14.165  71.375  1.00  0.00    -0.383 C  
BRANCH  10  11
HETATM   11  C   UNL     1     -12.233  15.516  70.666  1.00  0.00    -0.445 C  
BRANCH  11  12
HETATM   12  C   UNL     1     -11.960  15.344  69.178  1.00  0.00    -0.324 C  
BRANCH  12  13
HETATM   13  C   UNL     1     -11.057  16.452  68.644  1.00  0.00    -0.352 C  
BRANCH  13  14
HETATM   14  C   UNL     1      -9.666  16.327  69.254  1.00  0.00    -0.238 C  
BRANCH  14  15
HETATM   15  C   UNL     1      -8.999  15.003  68.901  1.00  0.00    -0.202 C  
BRANCH  15  16
HETATM   16  C   UNL     1      -8.288  15.124  67.577  1.00  0.00    -0.172 C  
HETATM   17  O   UNL     1      -7.674  16.111  67.200  1.00  0.00    -0.155 OA 
BRANCH  16  18
HETATM   18  O   UNL     1      -8.419  13.970  66.861  1.00  0.00    -0.179 OA 
BRANCH  18  19
HETATM   19  C   UNL     1      -7.689  12.859  67.400  1.00  0.00    -0.159 C  
BRANCH  19  20
HETATM   20  C   UNL     1      -8.204  11.508  66.876  1.00  0.00    -0.167 C  
BRANCH  20  21
HETATM   21  O   UNL     1      -9.042  11.772  65.728  1.00  0.00    -0.187 OA 
BRANCH  21  22
HETATM   22  C   UNL     1     -10.223  11.103  65.715  1.00  0.00    -0.257 C  
HETATM   23  O   UNL     1     -10.873  10.839  64.704  1.00  0.00    -0.216 OA 
BRANCH  22  24
HETATM   24  C   UNL     1     -10.652  10.724  67.105  1.00  0.00    -0.306 C  
BRANCH  24  25
HETATM   25  C   UNL     1     -10.545   9.216  67.257  1.00  0.00    -0.303 C  
BRANCH  25  26
HETATM   26  C   UNL     1     -10.496   8.796  68.720  1.00  0.00    -0.214 C  
BRANCH  26  27
HETATM   27  C   UNL     1      -9.046   8.801  69.184  1.00  0.00    -0.141 C  
BRANCH  27  28
HETATM   28  C   UNL     1      -8.889   9.303  70.616  1.00  0.00    -0.287 C  
BRANCH  28  29
HETATM   29  C   UNL     1      -8.290   8.227  71.525  1.00  0.00    -0.174 C  
BRANCH  29  30
HETATM   30  C   UNL     1      -8.629   8.391  73.009  1.00  0.00    -0.217 C  
BRANCH  30  31
HETATM   31  C   UNL     1      -9.185   7.133  73.622  1.00  0.00    -0.237 C  
HETATM   32  C   UNL     1      -8.446   6.188  74.223  1.00  0.00    -0.116 C  
BRANCH  32  33
HETATM   33  C   UNL     1      -6.965   6.311  74.375  1.00  0.00    -0.086 C  
BRANCH  33  34
HETATM   34  C   UNL     1      -6.205   5.144  73.771  1.00  0.00    -0.052 C  
BRANCH  34  35
HETATM   35  C   UNL     1      -7.181   4.003  73.506  1.00  0.00    -0.069 C  
BRANCH  35  36
HETATM   36  C   UNL     1      -7.432   3.847  72.016  1.00  0.00    -0.061 C  
BRANCH  36  37
HETATM   37  C   UNL     1      -8.143   2.531  71.723  1.00  0.00    -0.056 C  
BRANCH  37  38
HETATM   38  C   UNL     1      -8.969   2.102  72.930  1.00  0.00    -0.080 C  
BRANCH  38  39
HETATM   39  C   UNL     1     -10.457   2.325  72.693  1.00  0.00    -0.214 C  
HETATM   40  C   UNL     1     -11.002   3.375  73.646  1.00  0.00    -0.329 C  
ENDBRANCH  38  39
ENDBRANCH  37  38
ENDBRANCH  36  37
ENDBRANCH  35  36
ENDBRANCH  34  35
ENDBRANCH  33  34
ENDBRANCH  32  33
ENDBRANCH  30  31
ENDBRANCH  29  30
ENDBRANCH  28  29
ENDBRANCH  27  28
ENDBRANCH  26  27
ENDBRANCH  25  26
ENDBRANCH  24  25
ENDBRANCH  22  24
ENDBRANCH  21  22
ENDBRANCH  20  21
BRANCH  20  41
HETATM   41  C   UNL     1      -7.061  10.576  66.457  1.00  0.00    -0.120 C  
BRANCH  41  42
HETATM   42  O   UNL     1      -7.068  10.296  65.060  1.00  0.00    -0.136 OA 
BRANCH  42  43
HETATM   43  P   UNL     1      -6.936   8.603  64.731  1.00  0.00    -0.074 P  
HETATM   44  O   UNL     1      -7.068   8.464  66.334  1.00  0.00    -0.069 OA 
HETATM   45  O   UNL     1      -8.337   8.607  64.126  1.00  0.00    -0.168 OA 
BRANCH  43  46
HETATM   46  O   UNL     1      -6.804   6.910  64.402  1.00  0.00    -0.044 OA 
BRANCH  46  47
HETATM   47  C   UNL     1      -8.004   6.235  63.937  1.00  0.00    -0.095 C  
BRANCH  47  48
HETATM   48  C   UNL     1      -8.653   5.122  64.843  1.00  0.00    -0.151 C  
HETATM   49  O   UNL     1      -7.750   4.068  65.186  1.00  0.00    -0.080 OA 
HETATM   50  H   UNL     1      -8.142   3.397  65.732  1.00  0.00     0.000 HD 
BRANCH  48  51
HETATM   51  C   UNL     1      -9.213   5.712  66.153  1.00  0.00    -0.159 C  
HETATM   52  H   UNL     1      -8.725   5.769  68.088  1.00  0.00     0.000 HD 
HETATM   53  O   UNL     1      -8.381   5.406  67.281  1.00  0.00    -0.108 OA 
ENDBRANCH  48  51
ENDBRANCH  47  48
ENDBRANCH  46  47
ENDBRANCH  43  46
ENDBRANCH  42  43
ENDBRANCH  41  42
ENDBRANCH  20  41
ENDBRANCH  19  20
ENDBRANCH  18  19
ENDBRANCH  16  18
ENDBRANCH  15  16
ENDBRANCH  14  15
ENDBRANCH  13  14
ENDBRANCH  12  13
ENDBRANCH  11  12
ENDBRANCH  10  11
ENDBRANCH   9  10
ENDBRANCH   8   9
ENDBRANCH   7   8
ENDBRANCH   6   7
ENDBRANCH   5   6
ENDBRANCH   4   5
ENDBRANCH   3   4
ENDBRANCH   2   3
TORSDOF 41
ENDMDL
MODEL        5
REMARK 921   NORMALIZED FREE ENERGY PREDICTED BY IDOCK:   -2.84 KCAL/MOL
REMARK 922        TOTAL FREE ENERGY PREDICTED BY IDOCK:  -16.88 KCAL/MOL
REMARK 923 INTER-LIGAND FREE ENERGY PREDICTED BY IDOCK:  -12.95 KCAL/MOL
REMARK 924 INTRA-LIGAND FREE ENERGY PREDICTED BY IDOCK:   -3.92 KCAL/MOL
REMARK 927      BINDING AFFINITY PREDICTED BY RF-SCORE:    0.00 PKD
ROOT
HETATM    1  C   UNL     1     -11.986  13.602  67.146  1.00  0.00    -0.434 C  
HETATM    2  C   UNL     1     -11.542  13.341  65.717  1.00  0.00    -0.368 C  
ENDROOT
BRANCH   2   3
HETATM    3  C   UNL     1     -11.048  11.908  65.548  1.00  0.00    -0.356 C  
BRANCH   3   4
HETATM    4  C   UNL     1     -11.007  11.509  64.075  1.00  0.00    -0.454 C  
BRANCH   4   5
HETATM    5  C   UNL     1      -9.566  11.349  63.597  1.00  0.00    -0.275 C  
BRANCH   5   6
HETATM    6  C   UNL     1      -9.239   9.884  63.332  1.00  0.00    -0.278 C  
BRANCH   6   7
HETATM    7  C   UNL     1      -8.088   9.762  62.338  1.00  0.00    -0.141 C  
BRANCH   7   8
HETATM    8  C   UNL     1      -7.063   8.741  62.819  1.00  0.00    -0.093 C  
BRANCH   8   9
HETATM    9  C   UNL     1      -7.472   8.166  64.168  1.00  0.00    -0.106 C  
BRANCH   9  10
HETATM   10  C   UNL     1      -6.300   7.443  64.821  1.00  0.00    -0.037 C  
BRANCH  10  11
HETATM   11  C   UNL     1      -6.739   6.753  66.109  1.00  0.00    -0.052 C  
BRANCH  11  12
HETATM   12  C   UNL     1      -7.946   7.461  66.709  1.00  0.00    -0.115 C  
BRANCH  12  13
HETATM   13  C   UNL     1      -9.155   6.533  66.790  1.00  0.00    -0.153 C  
BRANCH  13  14
HETATM   14  C   UNL     1      -8.983   5.557  67.949  1.00  0.00    -0.108 C  
BRANCH  14  15
HETATM   15  C   UNL     1     -10.267   5.384  68.752  1.00  0.00    -0.252 C  
BRANCH  15  16
HETATM   16  C   UNL     1      -9.949   4.832  70.117  1.00  0.00    -0.251 C  
HETATM   17  O   UNL     1     -10.097   3.666  70.454  1.00  0.00     0.003 OA 
BRANCH  16  18
HETATM   18  O   UNL     1      -9.462   5.817  70.926  1.00  0.00    -0.161 OA 
BRANCH  18  19
HETATM   19  C   UNL     1     -10.470   6.515  71.672  1.00  0.00    -0.213 C  
BRANCH  19  20
HETATM   20  C   UNL     1      -9.886   7.652  72.526  1.00  0.00    -0.196 C  
BRANCH  20  21
HETATM   21  O   UNL     1     -10.870   8.709  72.584  1.00  0.00    -0.244 OA 
BRANCH  21  22
HETATM   22  C   UNL     1     -11.296   9.165  71.378  1.00  0.00    -0.344 C  
HETATM   23  O   UNL     1     -10.619   9.182  70.352  1.00  0.00    -0.203 OA 
BRANCH  22  24
HETATM   24  C   UNL     1     -12.714   9.660  71.452  1.00  0.00    -0.466 C  
BRANCH  24  25
HETATM   25  C   UNL     1     -12.920  10.716  70.379  1.00  0.00    -0.210 C  
BRANCH  25  26
HETATM   26  C   UNL     1     -12.313  12.055  70.779  1.00  0.00    -0.403 C  
BRANCH  26  27
HETATM   27  C   UNL     1     -13.255  12.750  71.751  1.00  0.00    -0.471 C  
BRANCH  27  28
HETATM   28  C   UNL     1     -13.716  14.115  71.250  1.00  0.00    -0.278 C  
BRANCH  28  29
HETATM   29  C   UNL     1     -12.734  15.220  71.647  1.00  0.00    -0.455 C  
BRANCH  29  30
HETATM   30  C   UNL     1     -11.919  15.791  70.484  1.00  0.00    -0.401 C  
BRANCH  30  31
HETATM   31  C   UNL     1     -10.701  14.966  70.166  1.00  0.00    -0.116 C  
HETATM   32  C   UNL     1      -9.639  15.410  69.474  1.00  0.00    -0.259 C  
BRANCH  32  33
HETATM   33  C   UNL     1      -9.549  16.813  68.969  1.00  0.00    -0.230 C  
BRANCH  33  34
HETATM   34  C   UNL     1     -10.175  16.994  67.598  1.00  0.00    -0.317 C  
BRANCH  34  35
HETATM   35  C   UNL     1     -10.760  18.398  67.504  1.00  0.00    -0.399 C  
BRANCH  35  36
HETATM   36  C   UNL     1      -9.897  19.392  68.262  1.00  0.00    -0.500 C  
BRANCH  36  37
HETATM   37  C   UNL     1      -9.485  20.548  67.358  1.00  0.00    -0.551 C  
BRANCH  37  38
HETATM   38  C   UNL     1      -8.249  20.170  66.553  1.00  0.00    -0.315 C  
BRANCH  38  39
HETATM   39  C   UNL     1      -6.982  20.746  67.173  1.00  0.00    -0.406 C  
HETATM   40  C   UNL     1      -6.558  19.934  68.384  1.00  0.00    -0.321 C  
ENDBRANCH  38  39
ENDBRANCH  37  38
ENDBRANCH  36  37
ENDBRANCH  35  36
ENDBRANCH  34  35
ENDBRANCH  33  34
ENDBRANCH  32  33
ENDBRANCH  30  31
ENDBRANCH  29  30
ENDBRANCH  28  29
ENDBRANCH  27  28
ENDBRANCH  26  27
ENDBRANCH  25  26
ENDBRANCH  24  25
ENDBRANCH  22  24
ENDBRANCH  21  22
ENDBRANCH  20  21
BRANCH  20  41
HETATM   41  C   UNL     1      -9.557   7.196  73.952  1.00  0.00    -0.278 C  
BRANCH  41  42
HETATM   42  O   UNL     1      -8.179   7.358  74.274  1.00  0.00    -0.153 OA 
BRANCH  42  43
HETATM   43  P   UNL     1      -7.366   8.406  73.164  1.00  0.00     0.068 P  
HETATM   44  O   UNL     1      -6.971   9.220  74.502  1.00  0.00    -0.391 OA 
HETATM   45  O   UNL     1      -6.309   7.333  72.918  1.00  0.00    -0.055 OA 
BRANCH  43  46
HETATM   46  O   UNL     1      -6.551   9.454  72.055  1.00  0.00    -0.300 OA 
BRANCH  46  47
HETATM   47  C   UNL     1      -7.042   9.475  70.688  1.00  0.00    -0.123 C  
BRANCH  47  48
HETATM   48  C   UNL     1      -6.710  10.716  69.777  1.00  0.00    -0.130 C  
HETATM   49  O   UNL     1      -7.846  11.536  69.495  1.00  0.00    -0.349 OA 
HETATM   50  H   UNL     1      -7.645  12.285  68.945  1.00  0.00     0.000 HD 
BRANCH  48  51
HETATM   51  C   UNL     1      -5.624  11.610  70.409  1.00  0.00    -0.149 C  
HETATM   52  H   UNL     1      -5.332  13.544  70.801  1.00  0.00     0.000 HD 
HETATM   53  O   UNL     1      -6.000  12.994  70.412  1.00  0.00    -0.163 OA 
ENDBRANCH  48  51
ENDBRANCH  47  48
ENDBRANCH  46  47
ENDBRANCH  43  46
ENDBRANCH  42  43
ENDBRANCH  41  42
ENDBRANCH  20  41
ENDBRANCH  19  20
ENDBRANCH  18  19
ENDBRANCH  16  18
ENDBRANCH  15  16
ENDBRANCH  14  15
ENDBRANCH  13  14
ENDBRANCH  12  13
ENDBRANCH  11  12
ENDBRANCH  10  11
ENDBRANCH   9  10
ENDBRANCH   8   9
ENDBRANCH   7   8
ENDBRANCH   6   7
ENDBRANCH   5   6
ENDBRANCH   4   5
ENDBRANCH   3   4
ENDBRANCH   2   3
TORSDOF 41
ENDMDL
MODEL        6
REMARK 921   NORMALIZED FREE ENERGY PREDICTED BY IDOCK:   -2.22 KCAL/MOL
REMARK 922        TOTAL FREE ENERGY PREDICTED BY IDOCK:  -14.78 KCAL/MOL
REMARK 923 INTER-LIGAND FREE ENERGY PREDICTED BY IDOCK:   -8.62 KCAL/MOL
REMARK 924 INTRA-LIGAND FREE ENERGY PREDICTED BY IDOCK:   -6.16 KCAL/MOL
REMARK 927      BINDING AFFINITY PREDICTED BY RF-SCORE:    0.00 PKD
ROOT
HETATM    1  C   UNL     1     -10.989  10.214  66.258  1.00  0.00     0.182 C  
HETATM    2  C   UNL     1     -10.961  11.364  67.251  1.00  0.00    -0.336 C  
ENDROOT
BRANCH   2   3
HETATM    3  C   UNL     1     -11.869  11.082  68.444  1.00  0.00    -0.254 C  
BRANCH   3   4
HETATM    4  C   UNL     1     -11.070  11.024  69.744  1.00  0.00    -0.303 C  
BRANCH   4   5
HETATM    5  C   UNL     1     -11.133   9.627  70.356  1.00  0.00    -0.346 C  
BRANCH   5   6
HETATM    6  C   UNL     1     -11.971   9.628  71.630  1.00  0.00    -0.470 C  
BRANCH   6   7
HETATM    7  C   UNL     1     -13.323   8.967  71.384  1.00  0.00    -0.331 C  
BRANCH   7   8
HETATM    8  C   UNL     1     -13.239   7.462  71.605  1.00  0.00    -0.416 C  
BRANCH   8   9
HETATM    9  C   UNL     1     -12.051   7.116  72.493  1.00  0.00    -0.046 C  
BRANCH   9  10
HETATM   10  C   UNL     1     -11.341   5.869  71.979  1.00  0.00    -0.325 C  
BRANCH  10  11
HETATM   11  C   UNL     1      -9.893   5.833  72.460  1.00  0.00    -0.182 C  
BRANCH  11  12
HETATM   12  C   UNL     1      -9.069   4.884  71.600  1.00  0.00    -0.169 C  
BRANCH  12  13
HETATM   13  C   UNL     1      -8.151   5.647  70.648  1.00  0.00    -0.116 C  
BRANCH  13  14
HETATM   14  C   UNL     1      -7.816   7.014  71.235  1.00  0.00    -0.099 C  
BRANCH  14  15
HETATM   15  C   UNL     1      -8.135   8.149  70.269  1.00  0.00    -0.109 C  
BRANCH  15  16
HETATM   16  C   UNL     1      -7.361   9.384  70.654  1.00  0.00    -0.131 C  
HETATM   17  O   UNL     1      -6.653   9.485  71.645  1.00  0.00    -0.299 OA 
BRANCH  16  18
HETATM   18  O   UNL     1      -7.555  10.373  69.735  1.00  0.00    -0.155 OA 
BRANCH  18  19
HETATM   19  C   UNL     1      -6.649  11.479  69.864  1.00  0.00    -0.059 C  
BRANCH  19  20
HETATM   20  C   UNL     1      -5.970  11.840  68.533  1.00  0.00    -0.049 C  
BRANCH  20  21
HETATM   21  O   UNL     1      -5.939  10.649  67.716  1.00  0.00    -0.044 OA 
BRANCH  21  22
HETATM   22  C   UNL     1      -6.061  10.864  66.381  1.00  0.00    -0.131 C  
HETATM   23  O   UNL     1      -5.214  11.408  65.674  1.00  0.00    -0.284 OA 
BRANCH  22  24
HETATM   24  C   UNL     1      -7.379  10.358  65.865  1.00  0.00    -0.135 C  
BRANCH  24  25
HETATM   25  C   UNL     1      -7.263   8.863  65.612  1.00  0.00    -0.085 C  
BRANCH  25  26
HETATM   26  C   UNL     1      -7.715   8.049  66.818  1.00  0.00    -0.098 C  
BRANCH  26  27
HETATM   27  C   UNL     1      -6.531   7.251  67.343  1.00  0.00    -0.059 C  
BRANCH  27  28
HETATM   28  C   UNL     1      -6.777   5.746  67.318  1.00  0.00    -0.062 C  
BRANCH  28  29
HETATM   29  C   UNL     1      -5.659   5.006  66.581  1.00  0.00    -0.017 C  
BRANCH  29  30
HETATM   30  C   UNL     1      -5.474   3.548  67.010  1.00  0.00    -0.020 C  
BRANCH  30  31
HETATM   31  C   UNL     1      -6.569   3.065  67.923  1.00  0.00    -0.037 C  
HETATM   32  C   UNL     1      -7.554   2.230  67.555  1.00  0.00    -0.060 C  
BRANCH  32  33
HETATM   33  C   UNL     1      -7.641   1.660  66.177  1.00  0.00    -0.062 C  
BRANCH  33  34
HETATM   34  C   UNL     1      -8.917   2.047  65.452  1.00  0.00    -0.120 C  
BRANCH  34  35
HETATM   35  C   UNL     1      -8.566   2.972  64.293  1.00  0.00    -0.093 C  
BRANCH  35  36
HETATM   36  C   UNL     1      -8.936   4.408  64.621  1.00  0.00    -0.150 C  
BRANCH  36  37
HETATM   37  C   UNL     1     -10.372   4.493  65.125  1.00  0.00    -0.144 C  
BRANCH  37  38
HETATM   38  C   UNL     1     -10.387   4.775  66.623  1.00  0.00    -0.258 C  
BRANCH  38  39
HETATM   39  C   UNL     1     -10.762   6.223  66.913  1.00  0.00    -0.411 C  
HETATM   40  C   UNL     1     -10.985   6.433  68.400  1.00  0.00    -0.390 C  
ENDBRANCH  38  39
ENDBRANCH  37  38
ENDBRANCH  36  37
ENDBRANCH  35  36
ENDBRANCH  34  35
ENDBRANCH  33  34
ENDBRANCH  32  33
ENDBRANCH  30  31
ENDBRANCH  29  30
ENDBRANCH  28  29
ENDBRANCH  27  28
ENDBRANCH  26  27
ENDBRANCH  25  26
ENDBRANCH  24  25
ENDBRANCH  22  24
ENDBRANCH  21  22
ENDBRANCH  20  21
BRANCH  20  41
HETATM   41  C   UNL     1      -6.721  12.944  67.780  1.00  0.00    -0.141 C  
BRANCH  41  42
HETATM   42  O   UNL     1      -7.451  13.802  68.653  1.00  0.00    -0.113 OA 
BRANCH  42  43
HETATM   43  P   UNL     1      -7.718  15.365  67.962  1.00  0.00    -0.144 P  
HETATM   44  O   UNL     1      -7.106  15.890  69.362  1.00  0.00    -0.200 OA 
HETATM   45  O   UNL     1      -6.567  15.135  66.986  1.00  0.00    -0.233 OA 
BRANCH  43  46
HETATM   46  O   UNL     1      -7.983  16.928  67.272  1.00  0.00    -0.164 OA 
BRANCH  46  47
HETATM   47  C   UNL     1      -7.785  18.075  68.144  1.00  0.00    -0.272 C  
BRANCH  47  48
HETATM   48  C   UNL     1      -7.478  19.479  67.499  1.00  0.00    -0.244 C  
HETATM   49  O   UNL     1      -8.086  20.570  68.195  1.00  0.00    -0.054 OA 
HETATM   50  H   UNL     1      -7.901  21.417  67.805  1.00  0.00     0.000 HD 
BRANCH  48  51
HETATM   51  C   UNL     1      -5.963  19.749  67.424  1.00  0.00    -0.187 C  
HETATM   52  H   UNL     1      -4.349  19.509  68.573  1.00  0.00     0.000 HD 
HETATM   53  O   UNL     1      -5.282  19.342  68.619  1.00  0.00    -0.188 OA 
ENDBRANCH  48  51
ENDBRANCH  47  48
ENDBRANCH  46  47
ENDBRANCH  43  46
ENDBRANCH  42  43
ENDBRANCH  41  42
ENDBRANCH  20  41
ENDBRANCH  19  20
ENDBRANCH  18  19
ENDBRANCH  16  18
ENDBRANCH  15  16
ENDBRANCH  14  15
ENDBRANCH  13  14
ENDBRANCH  12  13
ENDBRANCH  11  12
ENDBRANCH  10  11
ENDBRANCH   9  10
ENDBRANCH   8   9
ENDBRANCH   7   8
ENDBRANCH   6   7
ENDBRANCH   5   6
ENDBRANCH   4   5
ENDBRANCH   3   4
ENDBRANCH   2   3
TORSDOF 41
ENDMDL
MODEL        7
REMARK 921   NORMALIZED FREE ENERGY PREDICTED BY IDOCK:   -2.10 KCAL/MOL
REMARK 922        TOTAL FREE ENERGY PREDICTED BY IDOCK:  -14.37 KCAL/MOL
REMARK 923 INTER-LIGAND FREE ENERGY PREDICTED BY IDOCK:   -9.16 KCAL/MOL
REMARK 924 INTRA-LIGAND FREE ENERGY PREDICTED BY IDOCK:   -5.21 KCAL/MOL
REMARK 927      BINDING AFFINITY PREDICTED BY RF-SCORE:    0.00 PKD
ROOT
HETATM    1  C   UNL     1     -12.055  13.902  64.227  1.00  0.00    -0.477 C  
HETATM    2  C   UNL     1     -11.649  15.330  64.549  1.00  0.00    -0.312 C  
ENDROOT
BRANCH   2   3
HETATM    3  C   UNL     1     -10.453  15.361  65.496  1.00  0.00    -0.402 C  
BRANCH   3   4
HETATM    4  C   UNL     1     -10.040  16.795  65.817  1.00  0.00    -0.276 C  
BRANCH   4   5
HETATM    5  C   UNL     1      -9.986  17.019  67.325  1.00  0.00    -0.275 C  
BRANCH   5   6
HETATM    6  C   UNL     1     -10.421  15.767  68.079  1.00  0.00    -0.270 C  
BRANCH   6   7
HETATM    7  C   UNL     1      -9.382  15.383  69.127  1.00  0.00    -0.246 C  
BRANCH   7   8
HETATM    8  C   UNL     1      -7.975  15.447  68.545  1.00  0.00    -0.140 C  
BRANCH   8   9
HETATM    9  C   UNL     1      -6.961  15.791  69.629  1.00  0.00    -0.157 C  
BRANCH   9  10
HETATM   10  C   UNL     1      -5.659  15.030  69.407  1.00  0.00    -0.092 C  
BRANCH  10  11
HETATM   11  C   UNL     1      -5.814  14.007  68.286  1.00  0.00    -0.116 C  
BRANCH  11  12
HETATM   12  C   UNL     1      -5.353  12.632  68.750  1.00  0.00    -0.058 C  
BRANCH  12  13
HETATM   13  C   UNL     1      -5.853  12.320  70.159  1.00  0.00    -0.161 C  
BRANCH  13  14
HETATM   14  C   UNL     1      -6.512  10.946  70.183  1.00  0.00    -0.145 C  
BRANCH  14  15
HETATM   15  C   UNL     1      -7.043  10.538  68.814  1.00  0.00    -0.073 C  
BRANCH  15  16
HETATM   16  C   UNL     1      -8.487  10.947  68.680  1.00  0.00    -0.152 C  
HETATM   17  O   UNL     1      -8.872  12.045  68.305  1.00  0.00    -0.179 OA 
BRANCH  16  18
HETATM   18  O   UNL     1      -9.308   9.915  69.028  1.00  0.00    -0.157 OA 
BRANCH  18  19
HETATM   19  C   UNL     1      -8.800   8.619  68.681  1.00  0.00    -0.142 C  
BRANCH  19  20
HETATM   20  C   UNL     1      -9.048   8.267  67.204  1.00  0.00    -0.139 C  
BRANCH  20  21
HETATM   21  O   UNL     1      -9.103   6.827  67.097  1.00  0.00    -0.122 OA 
BRANCH  21  22
HETATM   22  C   UNL     1     -10.301   6.273  67.415  1.00  0.00    -0.211 C  
HETATM   23  O   UNL     1     -11.353   6.469  66.809  1.00  0.00    -0.272 OA 
BRANCH  22  24
HETATM   24  C   UNL     1     -10.186   5.382  68.621  1.00  0.00    -0.246 C  
BRANCH  24  25
HETATM   25  C   UNL     1      -8.714   5.121  68.898  1.00  0.00    -0.096 C  
BRANCH  25  26
HETATM   26  C   UNL     1      -8.394   3.631  68.897  1.00  0.00    -0.089 C  
BRANCH  26  27
HETATM   27  C   UNL     1      -9.257   2.943  69.944  1.00  0.00    -0.216 C  
BRANCH  27  28
HETATM   28  C   UNL     1      -8.616   2.942  71.328  1.00  0.00    -0.103 C  
BRANCH  28  29
HETATM   29  C   UNL     1      -9.177   1.822  72.207  1.00  0.00    -0.122 C  
BRANCH  29  30
HETATM   30  C   UNL     1     -10.019   2.306  73.390  1.00  0.00    -0.163 C  
BRANCH  30  31
HETATM   31  C   UNL     1      -9.394   3.469  74.113  1.00  0.00    -0.108 C  
HETATM   32  C   UNL     1      -9.946   4.688  74.214  1.00  0.00    -0.216 C  
BRANCH  32  33
HETATM   33  C   UNL     1     -11.285   5.007  73.631  1.00  0.00    -0.254 C  
BRANCH  33  34
HETATM   34  C   UNL     1     -11.212   5.984  72.472  1.00  0.00    -0.333 C  
BRANCH  34  35
HETATM   35  C   UNL     1      -9.749   6.227  72.120  1.00  0.00    -0.164 C  
BRANCH  35  36
HETATM   36  C   UNL     1      -9.381   7.685  72.333  1.00  0.00    -0.211 C  
BRANCH  36  37
HETATM   37  C   UNL     1      -7.879   7.891  72.175  1.00  0.00    -0.129 C  
BRANCH  37  38
HETATM   38  C   UNL     1      -7.139   6.589  72.453  1.00  0.00    -0.077 C  
BRANCH  38  39
HETATM   39  C   UNL     1      -5.830   6.514  71.677  1.00  0.00    -0.036 C  
HETATM   40  C   UNL     1      -5.968   7.191  70.325  1.00  0.00    -0.024 C  
ENDBRANCH  38  39
ENDBRANCH  37  38
ENDBRANCH  36  37
ENDBRANCH  35  36
ENDBRANCH  34  35
ENDBRANCH  33  34
ENDBRANCH  32  33
ENDBRANCH  30  31
ENDBRANCH  29  30
ENDBRANCH  28  29
ENDBRANCH  27  28
ENDBRANCH  26  27
ENDBRANCH  25  26
ENDBRANCH  24  25
ENDBRANCH  22  24
ENDBRANCH  21  22
ENDBRANCH  20  21
BRANCH  20  41
HETATM   41  C   UNL     1     -10.363   8.858  66.682  1.00  0.00    -0.223 C  
BRANCH  41  42
HETATM   42  O   UNL     1     -10.166  10.053  65.932  1.00  0.00    -0.259 OA 
BRANCH  42  43
HETATM   43  P   UNL     1      -9.208   9.788  64.516  1.00  0.00    -0.153 P  
HETATM   44  O   UNL     1     -10.264  10.800  63.832  1.00  0.00    -0.339 OA 
HETATM   45  O   UNL     1      -8.074  10.608  65.124  1.00  0.00    -0.146 OA 
BRANCH  43  46
HETATM   46  O   UNL     1      -8.251   9.524  63.100  1.00  0.00    -0.139 OA 
BRANCH  46  47
HETATM   47  C   UNL     1      -7.346  10.591  62.710  1.00  0.00    -0.081 C  
BRANCH  47  48
HETATM   48  C   UNL     1      -5.793  10.356  62.830  1.00  0.00    -0.145 C  
HETATM   49  O   UNL     1      -5.187  11.090  63.897  1.00  0.00    -0.401 OA 
HETATM   50  H   UNL     1      -4.250  10.948  63.970  1.00  0.00     0.000 HD 
BRANCH  48  51
HETATM   51  C   UNL     1      -5.459   8.864  63.030  1.00  0.00    -0.069 C  
HETATM   52  H   UNL     1      -5.141   7.600  64.541  1.00  0.00     0.000 HD 
HETATM   53  O   UNL     1      -5.347   8.519  64.418  1.00  0.00    -0.043 OA 
ENDBRANCH  48  51
ENDBRANCH  47  48
ENDBRANCH  46  47
ENDBRANCH  43  46
ENDBRANCH  42  43
ENDBRANCH  41  42
ENDBRANCH  20  41
ENDBRANCH  19  20
ENDBRANCH  18  19
ENDBRANCH  16  18
ENDBRANCH  15  16
ENDBRANCH  14  15
ENDBRANCH  13  14
ENDBRANCH  12  13
ENDBRANCH  11  12
ENDBRANCH  10  11
ENDBRANCH   9  10
ENDBRANCH   8   9
ENDBRANCH   7   8
ENDBRANCH   6   7
ENDBRANCH   5   6
ENDBRANCH   4   5
ENDBRANCH   3   4
ENDBRANCH   2   3
TORSDOF 41
ENDMDL
MODEL        8
REMARK 921   NORMALIZED FREE ENERGY PREDICTED BY IDOCK:   -1.82 KCAL/MOL
REMARK 922        TOTAL FREE ENERGY PREDICTED BY IDOCK:  -13.43 KCAL/MOL
REMARK 923 INTER-LIGAND FREE ENERGY PREDICTED BY IDOCK:   -9.56 KCAL/MOL
REMARK 924 INTRA-LIGAND FREE ENERGY PREDICTED BY IDOCK:   -3.86 KCAL/MOL
REMARK 927      BINDING AFFINITY PREDICTED BY RF-SCORE:    0.00 PKD
ROOT
HETATM    1  C   UNL     1     -12.033  13.621  67.842  1.00  0.00    -0.382 C  
HETATM    2  C   UNL     1     -11.276  13.191  66.597  1.00  0.00    -0.335 C  
ENDROOT
BRANCH   2   3
HETATM    3  C   UNL     1     -10.622  11.827  66.797  1.00  0.00    -0.273 C  
BRANCH   3   4
HETATM    4  C   UNL     1     -10.485  11.082  65.471  1.00  0.00    -0.302 C  
BRANCH   4   5
HETATM    5  C   UNL     1      -9.030  10.704  65.209  1.00  0.00    -0.209 C  
BRANCH   5   6
HETATM    6  C   UNL     1      -8.914   9.247  64.777  1.00  0.00    -0.217 C  
BRANCH   6   7
HETATM    7  C   UNL     1      -8.283   9.146  63.392  1.00  0.00    -0.178 C  
BRANCH   7   8
HETATM    8  C   UNL     1      -7.581   7.805  63.213  1.00  0.00    -0.126 C  
BRANCH   8   9
HETATM    9  C   UNL     1      -7.773   6.931  64.445  1.00  0.00    -0.113 C  
BRANCH   9  10
HETATM   10  C   UNL     1      -7.355   5.495  64.154  1.00  0.00    -0.058 C  
BRANCH  10  11
HETATM   11  C   UNL     1      -7.835   4.557  65.258  1.00  0.00    -0.090 C  
BRANCH  11  12
HETATM   12  C   UNL     1      -7.899   5.290  66.591  1.00  0.00    -0.100 C  
BRANCH  12  13
HETATM   13  C   UNL     1      -9.162   4.927  67.368  1.00  0.00    -0.136 C  
BRANCH  13  14
HETATM   14  C   UNL     1      -8.938   3.637  68.149  1.00  0.00    -0.171 C  
BRANCH  14  15
HETATM   15  C   UNL     1      -9.610   3.669  69.517  1.00  0.00    -0.207 C  
BRANCH  15  16
HETATM   16  C   UNL     1      -8.564   3.662  70.603  1.00  0.00    -0.071 C  
HETATM   17  O   UNL     1      -8.131   2.658  71.151  1.00  0.00    -0.052 OA 
BRANCH  16  18
HETATM   18  O   UNL     1      -8.160   4.934  70.883  1.00  0.00    -0.090 OA 
BRANCH  18  19
HETATM   19  C   UNL     1      -8.843   5.535  71.992  1.00  0.00    -0.135 C  
BRANCH  19  20
HETATM   20  C   UNL     1      -8.292   6.929  72.335  1.00  0.00    -0.111 C  
BRANCH  20  21
HETATM   21  O   UNL     1      -9.415   7.834  72.438  1.00  0.00    -0.153 OA 
BRANCH  21  22
HETATM   22  C   UNL     1     -10.164   7.950  71.312  1.00  0.00    -0.187 C  
HETATM   23  O   UNL     1      -9.722   7.917  70.164  1.00  0.00    -0.178 OA 
BRANCH  22  24
HETATM   24  C   UNL     1     -11.619   8.137  71.641  1.00  0.00    -0.325 C  
BRANCH  24  25
HETATM   25  C   UNL     1     -12.259   8.994  70.562  1.00  0.00     0.098 C  
BRANCH  25  26
HETATM   26  C   UNL     1     -11.838  10.454  70.676  1.00  0.00    -0.445 C  
BRANCH  26  27
HETATM   27  C   UNL     1     -12.424  11.036  71.955  1.00  0.00    -0.041 C  
BRANCH  27  28
HETATM   28  C   UNL     1     -13.735  11.778  71.716  1.00  0.00     0.231 C  
BRANCH  28  29
HETATM   29  C   UNL     1     -13.719  13.167  72.357  1.00  0.00    -0.640 C  
BRANCH  29  30
HETATM   30  C   UNL     1     -13.251  14.289  71.427  1.00  0.00    -0.419 C  
BRANCH  30  31
HETATM   31  C   UNL     1     -12.496  15.370  72.152  1.00  0.00    -0.452 C  
HETATM   32  C   UNL     1     -11.679  16.256  71.560  1.00  0.00    -0.467 C  
BRANCH  32  33
HETATM   33  C   UNL     1     -11.461  16.275  70.082  1.00  0.00    -0.228 C  
BRANCH  33  34
HETATM   34  C   UNL     1     -10.096  15.749  69.675  1.00  0.00    -0.289 C  
BRANCH  34  35
HETATM   35  C   UNL     1      -9.741  16.307  68.301  1.00  0.00    -0.222 C  
BRANCH  35  36
HETATM   36  C   UNL     1      -9.555  17.813  68.365  1.00  0.00    -0.323 C  
BRANCH  36  37
HETATM   37  C   UNL     1      -8.327  18.239  67.570  1.00  0.00    -0.247 C  
BRANCH  37  38
HETATM   38  C   UNL     1      -7.128  18.390  68.498  1.00  0.00    -0.285 C  
BRANCH  38  39
HETATM   39  C   UNL     1      -6.315  17.103  68.570  1.00  0.00    -0.157 C  
HETATM   40  C   UNL     1      -6.173  16.636  70.008  1.00  0.00    -0.080 C  
ENDBRANCH  38  39
ENDBRANCH  37  38
ENDBRANCH  36  37
ENDBRANCH  35  36
ENDBRANCH  34  35
ENDBRANCH  33  34
ENDBRANCH  32  33
ENDBRANCH  30  31
ENDBRANCH  29  30
ENDBRANCH  28  29
ENDBRANCH  27  28
ENDBRANCH  26  27
ENDBRANCH  25  26
ENDBRANCH  24  25
ENDBRANCH  22  24
ENDBRANCH  21  22
ENDBRANCH  20  21
BRANCH  20  41
HETATM   41  C   UNL     1      -7.521   6.937  73.660  1.00  0.00    -0.080 C  
BRANCH  41  42
HETATM   42  O   UNL     1      -6.311   7.685  73.583  1.00  0.00    -0.070 OA 
BRANCH  42  43
HETATM   43  P   UNL     1      -6.347   8.861  72.315  1.00  0.00     0.128 P  
HETATM   44  O   UNL     1      -5.498   9.751  73.360  1.00  0.00    -0.312 OA 
HETATM   45  O   UNL     1      -5.375   8.014  71.497  1.00  0.00    -0.034 OA 
BRANCH  43  46
HETATM   46  O   UNL     1      -6.381  10.036  71.046  1.00  0.00    -0.253 OA 
BRANCH  46  47
HETATM   47  C   UNL     1      -6.842   9.585  69.744  1.00  0.00    -0.064 C  
BRANCH  47  48
HETATM   48  C   UNL     1      -7.722  10.554  68.869  1.00  0.00    -0.117 C  
HETATM   49  O   UNL     1      -8.931  10.963  69.514  1.00  0.00    -0.401 OA 
HETATM   50  H   UNL     1      -9.462  11.548  68.986  1.00  0.00     0.000 HD 
BRANCH  48  51
HETATM   51  C   UNL     1      -6.944  11.824  68.471  1.00  0.00    -0.083 C  
HETATM   52  H   UNL     1      -6.024  13.350  69.370  1.00  0.00     0.000 HD 
HETATM   53  O   UNL     1      -6.503  12.568  69.615  1.00  0.00    -0.118 OA 
ENDBRANCH  48  51
ENDBRANCH  47  48
ENDBRANCH  46  47
ENDBRANCH  43  46
ENDBRANCH  42  43
ENDBRANCH  41  42
ENDBRANCH  20  41
ENDBRANCH  19  20
ENDBRANCH  18  19
ENDBRANCH  16  18
ENDBRANCH  15  16
ENDBRANCH  14  15
ENDBRANCH  13  14
ENDBRANCH  12  13
ENDBRANCH  11  12
ENDBRANCH  10  11
ENDBRANCH   9  10
ENDBRANCH   8   9
ENDBRANCH   7   8
ENDBRANCH   6   7
ENDBRANCH   5   6
ENDBRANCH   4   5
ENDBRANCH   3   4
ENDBRANCH   2   3
TORSDOF 41
ENDMDL
MODEL        9
REMARK 921   NORMALIZED FREE ENERGY PREDICTED BY IDOCK:   -1.22 KCAL/MOL
REMARK 922        TOTAL FREE ENERGY PREDICTED BY IDOCK:  -11.39 KCAL/MOL
REMARK 923 INTER-LIGAND FREE ENERGY PREDICTED BY IDOCK:   -8.01 KCAL/MOL
REMARK 924 INTRA-LIGAND FREE ENERGY PREDICTED BY IDOCK:   -3.38 KCAL/MOL
REMARK 927      BINDING AFFINITY PREDICTED BY RF-SCORE:    0.00 PKD
ROOT
HETATM    1  C   UNL     1     -11.246   9.951  67.033  1.00  0.00     0.276 C  
HETATM    2  C   UNL     1     -10.655  10.784  68.158  1.00  0.00    -0.238 C  
ENDROOT
BRANCH   2   3
HETATM    3  C   UNL     1     -11.233  10.374  69.509  1.00  0.00    -0.325 C  
BRANCH   3   4
HETATM    4  C   UNL     1     -10.131  10.199  70.550  1.00  0.00     0.044 C  
BRANCH   4   5
HETATM    5  C   UNL     1     -10.338   8.914  71.347  1.00  0.00    -0.377 C  
BRANCH   5   6
HETATM    6  C   UNL     1     -11.788   8.777  71.795  1.00  0.00    -0.414 C  
BRANCH   6   7
HETATM    7  C   UNL     1     -12.459   7.600  71.095  1.00  0.00    -0.273 C  
BRANCH   7   8
HETATM    8  C   UNL     1     -11.897   6.277  71.601  1.00  0.00    -0.315 C  
BRANCH   8   9
HETATM    9  C   UNL     1     -10.795   6.519  72.624  1.00  0.00    -0.278 C  
BRANCH   9  10
HETATM   10  C   UNL     1      -9.631   5.562  72.396  1.00  0.00    -0.170 C  
BRANCH  10  11
HETATM   11  C   UNL     1      -8.489   5.857  73.364  1.00  0.00    -0.117 C  
BRANCH  11  12
HETATM   12  C   UNL     1      -7.218   5.143  72.924  1.00  0.00    -0.089 C  
BRANCH  12  13
HETATM   13  C   UNL     1      -6.363   6.028  72.020  1.00  0.00    -0.049 C  
BRANCH  13  14
HETATM   14  C   UNL     1      -6.450   7.478  72.482  1.00  0.00    -0.055 C  
BRANCH  14  15
HETATM   15  C   UNL     1      -7.000   8.396  71.397  1.00  0.00    -0.072 C  
BRANCH  15  16
HETATM   16  C   UNL     1      -6.241   9.697  71.391  1.00  0.00     0.036 C  
HETATM   17  O   UNL     1      -5.475  10.065  72.271  1.00  0.00    -0.275 OA 
BRANCH  16  18
HETATM   18  O   UNL     1      -6.520  10.407  70.260  1.00  0.00    -0.117 OA 
BRANCH  18  19
HETATM   19  C   UNL     1      -6.123  11.785  70.320  1.00  0.00    -0.116 C  
BRANCH  19  20
HETATM   20  C   UNL     1      -5.321  12.218  69.081  1.00  0.00    -0.063 C  
BRANCH  20  21
HETATM   21  O   UNL     1      -5.231  11.080  68.194  1.00  0.00    -0.040 OA 
BRANCH  21  22
HETATM   22  C   UNL     1      -5.880  11.223  67.010  1.00  0.00    -0.091 C  
HETATM   23  O   UNL     1      -5.405  11.747  66.004  1.00  0.00    -0.260 OA 
BRANCH  22  24
HETATM   24  C   UNL     1      -7.272  10.660  67.081  1.00  0.00    -0.097 C  
BRANCH  24  25
HETATM   25  C   UNL     1      -7.245   9.222  66.590  1.00  0.00    -0.082 C  
BRANCH  25  26
HETATM   26  C   UNL     1      -5.894   8.564  66.842  1.00  0.00    -0.049 C  
BRANCH  26  27
HETATM   27  C   UNL     1      -5.342   8.052  65.519  1.00  0.00    -0.029 C  
BRANCH  27  28
HETATM   28  C   UNL     1      -6.147   6.884  64.959  1.00  0.00    -0.036 C  
BRANCH  28  29
HETATM   29  C   UNL     1      -6.982   7.305  63.749  1.00  0.00    -0.058 C  
BRANCH  29  30
HETATM   30  C   UNL     1      -6.673   6.532  62.464  1.00  0.00    -0.038 C  
BRANCH  30  31
HETATM   31  C   UNL     1      -6.483   5.058  62.703  1.00  0.00    -0.026 C  
HETATM   32  C   UNL     1      -7.479   4.191  62.944  1.00  0.00    -0.050 C  
BRANCH  32  33
HETATM   33  C   UNL     1      -8.912   4.611  62.967  1.00  0.00    -0.123 C  
BRANCH  33  34
HETATM   34  C   UNL     1      -9.829   3.569  63.581  1.00  0.00    -0.162 C  
BRANCH  34  35
HETATM   35  C   UNL     1     -10.243   4.032  64.973  1.00  0.00    -0.192 C  
BRANCH  35  36
HETATM   36  C   UNL     1      -9.334   3.431  66.031  1.00  0.00    -0.148 C  
BRANCH  36  37
HETATM   37  C   UNL     1      -9.369   4.262  67.309  1.00  0.00    -0.186 C  
BRANCH  37  38
HETATM   38  C   UNL     1      -8.701   5.611  67.075  1.00  0.00    -0.108 C  
BRANCH  38  39
HETATM   39  C   UNL     1      -9.692   6.758  67.236  1.00  0.00    -0.175 C  
HETATM   40  C   UNL     1     -10.961   6.280  67.918  1.00  0.00    -0.421 C  
ENDBRANCH  38  39
ENDBRANCH  37  38
ENDBRANCH  36  37
ENDBRANCH  35  36
ENDBRANCH  34  35
ENDBRANCH  33  34
ENDBRANCH  32  33
ENDBRANCH  30  31
ENDBRANCH  29  30
ENDBRANCH  28  29
ENDBRANCH  27  28
ENDBRANCH  26  27
ENDBRANCH  25  26
ENDBRANCH  24  25
ENDBRANCH  22  24
ENDBRANCH  21  22
ENDBRANCH  20  21
BRANCH  20  41
HETATM   41  C   UNL     1      -5.987  13.381  68.337  1.00  0.00    -0.092 C  
BRANCH  41  42
HETATM   42  O   UNL     1      -7.286  13.678  68.840  1.00  0.00    -0.106 OA 
BRANCH  42  43
HETATM   43  P   UNL     1      -7.596  15.380  68.890  1.00  0.00    -0.198 P  
HETATM   44  O   UNL     1      -5.999  15.494  68.681  1.00  0.00    -0.094 OA 
HETATM   45  O   UNL     1      -8.261  15.303  67.519  1.00  0.00    -0.150 OA 
BRANCH  43  46
HETATM   46  O   UNL     1      -7.904  17.081  68.938  1.00  0.00    -0.249 OA 
BRANCH  46  47
HETATM   47  C   UNL     1      -8.581  17.660  67.790  1.00  0.00    -0.228 C  
BRANCH  47  48
HETATM   48  C   UNL     1     -10.065  18.162  67.953  1.00  0.00    -0.357 C  
HETATM   49  O   UNL     1     -10.795  17.462  68.964  1.00  0.00    -0.310 OA 
HETATM   50  H   UNL     1     -11.690  17.765  69.062  1.00  0.00     0.000 HD 
BRANCH  48  51
HETATM   51  C   UNL     1     -10.122  19.667  68.283  1.00  0.00    -0.449 C  
HETATM   52  H   UNL     1      -9.648  21.400  67.415  1.00  0.00     0.000 HD 
HETATM   53  O   UNL     1      -9.613  20.473  67.212  1.00  0.00    -0.424 OA 
ENDBRANCH  48  51
ENDBRANCH  47  48
ENDBRANCH  46  47
ENDBRANCH  43  46
ENDBRANCH  42  43
ENDBRANCH  41  42
ENDBRANCH  20  41
ENDBRANCH  19  20
ENDBRANCH  18  19
ENDBRANCH  16  18
ENDBRANCH  15  16
ENDBRANCH  14  15
ENDBRANCH  13  14
ENDBRANCH  12  13
ENDBRANCH  11  12
ENDBRANCH  10  11
ENDBRANCH   9  10
ENDBRANCH   8   9
ENDBRANCH   7   8
ENDBRANCH   6   7
ENDBRANCH   5   6
ENDBRANCH   4   5
ENDBRANCH   3   4
ENDBRANCH   2   3
TORSDOF 41
ENDMDL
MODEL       10
REMARK 921   NORMALIZED FREE ENERGY PREDICTED BY IDOCK:   -0.64 KCAL/MOL
REMARK 922        TOTAL FREE ENERGY PREDICTED BY IDOCK:   -9.41 KCAL/MOL
REMARK 923 INTER-LIGAND FREE ENERGY PREDICTED BY IDOCK:   -8.46 KCAL/MOL
REMARK 924 INTRA-LIGAND FREE ENERGY PREDICTED BY IDOCK:   -0.95 KCAL/MOL
REMARK 927      BINDING AFFINITY PREDICTED BY RF-SCORE:    0.00 PKD
ROOT
HETATM    1  C   UNL     1     -11.473  16.492  65.058  1.00  0.00     0.200 C  
HETATM    2  C   UNL     1     -10.812  17.690  65.717  1.00  0.00     0.026 C  
ENDROOT
BRANCH   2   3
HETATM    3  C   UNL     1      -9.309  17.474  65.868  1.00  0.00     0.028 C  
BRANCH   3   4
HETATM    4  C   UNL     1      -8.652  18.649  66.588  1.00  0.00    -0.304 C  
BRANCH   4   5
HETATM    5  C   UNL     1      -8.669  18.436  68.099  1.00  0.00    -0.318 C  
BRANCH   5   6
HETATM    6  C   UNL     1      -9.780  17.472  68.502  1.00  0.00    -0.319 C  
BRANCH   6   7
HETATM    7  C   UNL     1      -9.197  16.220  69.149  1.00  0.00    -0.235 C  
BRANCH   7   8
HETATM    8  C   UNL     1      -7.693  16.140  68.917  1.00  0.00    -0.207 C  
BRANCH   8   9
HETATM    9  C   UNL     1      -7.011  15.416  70.070  1.00  0.00    -0.018 C  
BRANCH   9  10
HETATM   10  C   UNL     1      -5.500  15.391  69.869  1.00  0.00    -0.114 C  
BRANCH  10  11
HETATM   11  C   UNL     1      -5.144  14.778  68.518  1.00  0.00    -0.103 C  
BRANCH  11  12
HETATM   12  C   UNL     1      -5.362  13.271  68.541  1.00  0.00    -0.075 C  
BRANCH  12  13
HETATM   13  C   UNL     1      -6.112  12.834  69.796  1.00  0.00    -0.131 C  
BRANCH  13  14
HETATM   14  C   UNL     1      -6.634  11.412  69.620  1.00  0.00    -0.128 C  
BRANCH  14  15
HETATM   15  C   UNL     1      -7.181  11.170  68.218  1.00  0.00    -0.083 C  
BRANCH  15  16
HETATM   16  C   UNL     1      -8.498  11.884  68.050  1.00  0.00    -0.162 C  
HETATM   17  O   UNL     1      -8.624  13.038  67.665  1.00  0.00    -0.165 OA 
BRANCH  16  18
HETATM   18  O   UNL     1      -9.532  11.059  68.380  1.00  0.00    -0.168 OA 
BRANCH  18  19
HETATM   19  C   UNL     1      -9.159   9.680  68.524  1.00  0.00    -0.131 C  
BRANCH  19  20
HETATM   20  C   UNL     1      -8.932   8.989  67.170  1.00  0.00    -0.130 C  
BRANCH  20  21
HETATM   21  O   UNL     1      -8.757   7.576  67.420  1.00  0.00    -0.124 OA 
BRANCH  21  22
HETATM   22  C   UNL     1      -9.860   6.934  67.884  1.00  0.00    -0.135 C  
HETATM   23  O   UNL     1     -11.017   7.326  67.740  1.00  0.00    -0.165 OA 
BRANCH  22  24
HETATM   24  C   UNL     1      -9.491   5.671  68.611  1.00  0.00    -0.152 C  
BRANCH  24  25
HETATM   25  C   UNL     1      -8.125   5.857  69.251  1.00  0.00    -0.106 C  
BRANCH  25  26
HETATM   26  C   UNL     1      -7.265   4.605  69.124  1.00  0.00    -0.052 C  
BRANCH  26  27
HETATM   27  C   UNL     1      -8.139   3.383  69.367  1.00  0.00    -0.064 C  
BRANCH  27  28
HETATM   28  C   UNL     1      -8.708   3.338  70.781  1.00  0.00    -0.128 C  
BRANCH  28  29
HETATM   29  C   UNL     1      -9.236   1.945  71.130  1.00  0.00    -0.171 C  
BRANCH  29  30
HETATM   30  C   UNL     1     -10.115   1.896  72.383  1.00  0.00    -0.220 C  
BRANCH  30  31
HETATM   31  C   UNL     1      -9.615   2.796  73.481  1.00  0.00    -0.126 C  
HETATM   32  C   UNL     1     -10.202   3.945  73.851  1.00  0.00    -0.214 C  
BRANCH  32  33
HETATM   33  C   UNL     1     -11.461   4.437  73.213  1.00  0.00    -0.282 C  
BRANCH  33  34
HETATM   34  C   UNL     1     -11.400   5.906  72.833  1.00  0.00    -0.266 C  
BRANCH  34  35
HETATM   35  C   UNL     1      -9.950   6.287  72.560  1.00  0.00    -0.184 C  
BRANCH  35  36
HETATM   36  C   UNL     1      -9.650   7.677  73.094  1.00  0.00    -0.314 C  
BRANCH  36  37
HETATM   37  C   UNL     1      -9.846   8.727  72.007  1.00  0.00    -0.376 C  
BRANCH  37  38
HETATM   38  C   UNL     1     -11.065   8.383  71.160  1.00  0.00    -0.301 C  
BRANCH  38  39
HETATM   39  C   UNL     1     -12.034   9.556  71.076  1.00  0.00    -0.407 C  
HETATM   40  C   UNL     1     -13.217   9.344  72.005  1.00  0.00    -0.529 C  
ENDBRANCH  38  39
ENDBRANCH  37  38
ENDBRANCH  36  37
ENDBRANCH  35  36
ENDBRANCH  34  35
ENDBRANCH  33  34
ENDBRANCH  32  33
ENDBRANCH  30  31
ENDBRANCH  29  30
ENDBRANCH  28  29
ENDBRANCH  27  28
ENDBRANCH  26  27
ENDBRANCH  25  26
ENDBRANCH  24  25
ENDBRANCH  22  24
ENDBRANCH  21  22
ENDBRANCH  20  21
BRANCH  20  41
HETATM   41  C   UNL     1     -10.114   9.185  66.214  1.00  0.00    -0.249 C  
BRANCH  41  42
HETATM   42  O   UNL     1      -9.875  10.208  65.252  1.00  0.00    -0.280 OA 
BRANCH  42  43
HETATM   43  P   UNL     1      -8.869   9.664  63.954  1.00  0.00    -0.169 P  
HETATM   44  O   UNL     1      -9.788  10.653  63.067  1.00  0.00    -0.325 OA 
HETATM   45  O   UNL     1      -7.700  10.466  64.519  1.00  0.00    -0.135 OA 
BRANCH  43  46
HETATM   46  O   UNL     1      -7.863   9.123  62.655  1.00  0.00    -0.115 OA 
BRANCH  46  47
HETATM   47  C   UNL     1      -6.557   8.594  63.011  1.00  0.00    -0.090 C  
BRANCH  47  48
HETATM   48  C   UNL     1      -6.476   7.319  63.933  1.00  0.00    -0.044 C  
HETATM   49  O   UNL     1      -6.442   7.627  65.329  1.00  0.00    -0.041 OA 
HETATM   50  H   UNL     1      -6.393   6.858  65.884  1.00  0.00     0.000 HD 
BRANCH  48  51
HETATM   51  C   UNL     1      -7.661   6.364  63.687  1.00  0.00    -0.091 C  
HETATM   52  H   UNL     1      -8.240   4.537  64.242  1.00  0.00     0.000 HD 
HETATM   53  O   UNL     1      -7.511   5.125  64.394  1.00  0.00    -0.061 OA 
ENDBRANCH  48  51
ENDBRANCH  47  48
ENDBRANCH  46  47
ENDBRANCH  43  46
ENDBRANCH  42  43
ENDBRANCH  41  42
ENDBRANCH  20  41
ENDBRANCH  19  20
ENDBRANCH  18  19
ENDBRANCH  16  18
ENDBRANCH  15  16
ENDBRANCH  14  15
ENDBRANCH  13  14
ENDBRANCH  12  13
ENDBRANCH  11  12
ENDBRANCH  10  11
ENDBRANCH   9  10
ENDBRANCH   8   9
ENDBRANCH   7   8
ENDBRANCH   6   7
ENDBRANCH   5   6
ENDBRANCH   4   5
ENDBRANCH   3   4
ENDBRANCH   2   3
TORSDOF 41
ENDMDL
MODEL       11
REMARK 921   NORMALIZED FREE ENERGY PREDICTED BY IDOCK:    0.09 KCAL/MOL
REMARK 922        TOTAL FREE ENERGY PREDICTED BY IDOCK:   -6.92 KCAL/MOL
REMARK 923 INTER-LIGAND FREE ENERGY PREDICTED BY IDOCK:   -6.33 KCAL/MOL
REMARK 924 INTRA-LIGAND FREE ENERGY PREDICTED BY IDOCK:   -0.59 KCAL/MOL
REMARK 927      BINDING AFFINITY PREDICTED BY RF-SCORE:    0.00 PKD
ROOT
HETATM    1  C   UNL     1     -11.457   6.148  71.982  1.00  0.00    -0.366 C  
HETATM    2  C   UNL     1     -12.114   7.284  71.216  1.00  0.00    -0.373 C  
ENDROOT
BRANCH   2   3
HETATM    3  C   UNL     1     -13.153   7.998  72.076  1.00  0.00    -0.289 C  
BRANCH   3   4
HETATM    4  C   UNL     1     -12.780   9.463  72.289  1.00  0.00    -0.416 C  
BRANCH   4   5
HETATM    5  C   UNL     1     -13.809  10.383  71.638  1.00  0.00     0.124 C  
BRANCH   5   6
HETATM    6  C   UNL     1     -13.137  11.371  70.692  1.00  0.00     0.097 C  
BRANCH   6   7
HETATM    7  C   UNL     1     -11.625  11.170  70.690  1.00  0.00    -0.188 C  
BRANCH   7   8
HETATM    8  C   UNL     1     -11.030  11.542  69.338  1.00  0.00    -0.233 C  
BRANCH   8   9
HETATM    9  C   UNL     1     -11.783  12.717  68.726  1.00  0.00    -0.364 C  
BRANCH   9  10
HETATM   10  C   UNL     1     -12.080  13.773  69.784  1.00  0.00    -0.400 C  
BRANCH  10  11
HETATM   11  C   UNL     1     -10.917  14.752  69.913  1.00  0.00    -0.229 C  
BRANCH  11  12
HETATM   12  C   UNL     1      -9.883  14.499  68.824  1.00  0.00    -0.220 C  
BRANCH  12  13
HETATM   13  C   UNL     1      -8.703  15.460  68.940  1.00  0.00    -0.208 C  
BRANCH  13  14
HETATM   14  C   UNL     1      -7.534  14.766  69.630  1.00  0.00    -0.081 C  
BRANCH  14  15
HETATM   15  C   UNL     1      -7.015  13.578  68.829  1.00  0.00    -0.102 C  
BRANCH  15  16
HETATM   16  C   UNL     1      -7.572  13.621  67.429  1.00  0.00    -0.130 C  
HETATM   17  O   UNL     1      -7.330  14.491  66.605  1.00  0.00     0.379 OA 
BRANCH  16  18
HETATM   18  O   UNL     1      -8.379  12.544  67.205  1.00  0.00    -0.171 OA 
BRANCH  18  19
HETATM   19  C   UNL     1      -7.712  11.279  67.313  1.00  0.00    -0.138 C  
BRANCH  19  20
HETATM   20  C   UNL     1      -7.536  10.590  65.950  1.00  0.00    -0.148 C  
BRANCH  20  21
HETATM   21  O   UNL     1      -8.337  11.309  64.986  1.00  0.00     0.136 OA 
BRANCH  21  22
HETATM   22  C   UNL     1      -9.497  10.699  64.633  1.00  0.00    -0.258 C  
HETATM   23  O   UNL     1      -9.772  10.306  63.501  1.00  0.00    -0.298 OA 
BRANCH  22  24
HETATM   24  C   UNL     1     -10.424  10.568  65.810  1.00  0.00    -0.214 C  
BRANCH  24  25
HETATM   25  C   UNL     1     -10.641   9.092  66.100  1.00  0.00     0.323 C  
BRANCH  25  26
HETATM   26  C   UNL     1     -10.520   8.784  67.587  1.00  0.00    -0.310 C  
BRANCH  26  27
HETATM   27  C   UNL     1      -9.588   7.594  67.768  1.00  0.00    -0.169 C  
BRANCH  27  28
HETATM   28  C   UNL     1      -8.387   7.917  68.652  1.00  0.00    -0.128 C  
BRANCH  28  29
HETATM   29  C   UNL     1      -8.659   7.572  70.118  1.00  0.00    -0.141 C  
BRANCH  29  30
HETATM   30  C   UNL     1      -7.571   8.035  71.090  1.00  0.00    -0.082 C  
BRANCH  30  31
HETATM   31  C   UNL     1      -8.125   8.468  72.421  1.00  0.00    -0.134 C  
HETATM   32  C   UNL     1      -8.118   7.713  73.531  1.00  0.00    -0.190 C  
BRANCH  32  33
HETATM   33  C   UNL     1      -7.514   6.347  73.561  1.00  0.00    -0.089 C  
BRANCH  33  34
HETATM   34  C   UNL     1      -7.858   5.517  72.337  1.00  0.00    -0.103 C  
BRANCH  34  35
HETATM   35  C   UNL     1      -8.365   4.153  72.791  1.00  0.00    -0.097 C  
BRANCH  35  36
HETATM   36  C   UNL     1      -9.138   3.469  71.676  1.00  0.00    -0.173 C  
BRANCH  36  37
HETATM   37  C   UNL     1      -8.185   2.855  70.657  1.00  0.00    -0.070 C  
BRANCH  37  38
HETATM   38  C   UNL     1      -7.211   1.911  71.351  1.00  0.00    -0.032 C  
BRANCH  38  39
HETATM   39  C   UNL     1      -5.793   2.088  70.823  1.00  0.00    -0.017 C  
HETATM   40  C   UNL     1      -5.577   3.504  70.321  1.00  0.00    -0.016 C  
ENDBRANCH  38  39
ENDBRANCH  37  38
ENDBRANCH  36  37
ENDBRANCH  35  36
ENDBRANCH  34  35
ENDBRANCH  33  34
ENDBRANCH  32  33
ENDBRANCH  30  31
ENDBRANCH  29  30
ENDBRANCH  28  29
ENDBRANCH  27  28
ENDBRANCH  26  27
ENDBRANCH  25  26
ENDBRANCH  24  25
ENDBRANCH  22  24
ENDBRANCH  21  22
ENDBRANCH  20  21
BRANCH  20  41
HETATM   41  C   UNL     1      -6.075  10.589  65.485  1.00  0.00    -0.127 C  
BRANCH  41  42
HETATM   42  O   UNL     1      -5.917  10.043  64.179  1.00  0.00    -0.112 OA 
BRANCH  42  43
HETATM   43  P   UNL     1      -5.678   8.331  64.209  1.00  0.00    -0.061 P  
HETATM   44  O   UNL     1      -6.642   8.399  65.502  1.00  0.00    -0.054 OA 
HETATM   45  O   UNL     1      -6.546   8.183  62.963  1.00  0.00    -0.083 OA 
BRANCH  43  46
HETATM   46  O   UNL     1      -5.440   6.618  64.239  1.00  0.00    -0.025 OA 
BRANCH  46  47
HETATM   47  C   UNL     1      -6.546   5.808  64.720  1.00  0.00    -0.042 C  
BRANCH  47  48
HETATM   48  C   UNL     1      -6.525   5.296  66.210  1.00  0.00    -0.044 C  
HETATM   49  O   UNL     1      -5.902   6.209  67.117  1.00  0.00    -0.016 OA 
HETATM   50  H   UNL     1      -5.890   5.900  68.015  1.00  0.00     0.000 HD 
BRANCH  48  51
HETATM   51  C   UNL     1      -7.947   5.006  66.731  1.00  0.00    -0.104 C  
HETATM   52  H   UNL     1      -9.816   5.003  66.032  1.00  0.00     0.000 HD 
HETATM   53  O   UNL     1      -8.941   5.182  65.712  1.00  0.00    -0.143 OA 
ENDBRANCH  48  51
ENDBRANCH  47  48
ENDBRANCH  46  47
ENDBRANCH  43  46
ENDBRANCH  42  43
ENDBRANCH  41  42
ENDBRANCH  20  41
ENDBRANCH  19  20
ENDBRANCH  18  19
ENDBRANCH  16  18
ENDBRANCH  15  16
ENDBRANCH  14  15
ENDBRANCH  13  14
ENDBRANCH  12  13
ENDBRANCH  11  12
ENDBRANCH  10  11
ENDBRANCH   9  10
ENDBRANCH   8   9
ENDBRANCH   7   8
ENDBRANCH   6   7
ENDBRANCH   5   6
ENDBRANCH   4   5
ENDBRANCH   3   4
ENDBRANCH   2   3
TORSDOF 41
ENDMDL
MODEL       12
REMARK 921   NORMALIZED FREE ENERGY PREDICTED BY IDOCK:    0.63 KCAL/MOL
REMARK 922        TOTAL FREE ENERGY PREDICTED BY IDOCK:   -5.10 KCAL/MOL
REMARK 923 INTER-LIGAND FREE ENERGY PREDICTED BY IDOCK:   -6.38 KCAL/MOL
REMARK 924 INTRA-LIGAND FREE ENERGY PREDICTED BY IDOCK:    1.29 KCAL/MOL
REMARK 927      BINDING AFFINITY PREDICTED BY RF-SCORE:    0.00 PKD
ROOT
HETATM    1  C   UNL     1     -13.003  13.712  67.653  1.00  0.00     1.929 C  
HETATM    2  C   UNL     1     -12.154  13.369  66.441  1.00  0.00    -0.464 C  
ENDROOT
BRANCH   2   3
HETATM    3  C   UNL     1     -11.835  11.878  66.397  1.00  0.00    -0.115 C  
BRANCH   3   4
HETATM    4  C   UNL     1     -11.468  11.434  64.984  1.00  0.00    -0.011 C  
BRANCH   4   5
HETATM    5  C   UNL     1      -9.971  11.597  64.736  1.00  0.00    -0.292 C  
BRANCH   5   6
HETATM    6  C   UNL     1      -9.329  10.261  64.379  1.00  0.00    -0.329 C  
BRANCH   6   7
HETATM    7  C   UNL     1      -9.192  10.119  62.866  1.00  0.00    -0.316 C  
BRANCH   7   8
HETATM    8  C   UNL     1      -8.426   8.851  62.508  1.00  0.00    -0.207 C  
BRANCH   8   9
HETATM    9  C   UNL     1      -7.947   8.140  63.768  1.00  0.00    -0.137 C  
BRANCH   9  10
HETATM   10  C   UNL     1      -7.719   6.659  63.494  1.00  0.00    -0.110 C  
BRANCH  10  11
HETATM   11  C   UNL     1      -7.532   5.890  64.799  1.00  0.00    -0.078 C  
BRANCH  11  12
HETATM   12  C   UNL     1      -6.796   6.745  65.822  1.00  0.00    -0.056 C  
BRANCH  12  13
HETATM   13  C   UNL     1      -7.734   7.230  66.924  1.00  0.00    -0.110 C  
BRANCH  13  14
HETATM   14  C   UNL     1      -7.783   6.205  68.052  1.00  0.00    -0.102 C  
BRANCH  14  15
HETATM   15  C   UNL     1      -8.149   6.838  69.389  1.00  0.00    -0.123 C  
BRANCH  15  16
HETATM   16  C   UNL     1      -6.925   7.455  70.017  1.00  0.00    -0.060 C  
HETATM   17  O   UNL     1      -6.177   6.885  70.798  1.00  0.00    -0.034 OA 
BRANCH  16  18
HETATM   18  O   UNL     1      -6.764   8.738  69.585  1.00  0.00    -0.039 OA 
BRANCH  18  19
HETATM   19  C   UNL     1      -6.991   9.730  70.597  1.00  0.00    -0.094 C  
BRANCH  19  20
HETATM   20  C   UNL     1      -6.749  11.159  70.084  1.00  0.00     0.034 C  
BRANCH  20  21
HETATM   21  O   UNL     1      -8.024  11.705  69.680  1.00  0.00     0.449 OA 
BRANCH  21  22
HETATM   22  C   UNL     1      -8.612  11.077  68.630  1.00  0.00    -0.157 C  
HETATM   23  O   UNL     1      -8.278  11.207  67.453  1.00  0.00    -0.126 OA 
BRANCH  22  24
HETATM   24  C   UNL     1      -9.742  10.195  69.084  1.00  0.00    -0.225 C  
BRANCH  24  25
HETATM   25  C   UNL     1     -11.058  10.859  68.717  1.00  0.00    -0.310 C  
BRANCH  25  26
HETATM   26  C   UNL     1     -11.501  11.861  69.776  1.00  0.00    -0.303 C  
BRANCH  26  27
HETATM   27  C   UNL     1     -11.947  11.100  71.016  1.00  0.00    -0.268 C  
BRANCH  27  28
HETATM   28  C   UNL     1     -13.439  11.250  71.293  1.00  0.00     0.217 C  
BRANCH  28  29
HETATM   29  C   UNL     1     -13.705  12.286  72.389  1.00  0.00    -0.089 C  
BRANCH  29  30
HETATM   30  C   UNL     1     -13.473  13.737  71.959  1.00  0.00    -0.559 C  
BRANCH  30  31
HETATM   31  C   UNL     1     -12.519  14.467  72.866  1.00  0.00    -0.337 C  
HETATM   32  C   UNL     1     -11.666  15.422  72.464  1.00  0.00    -0.564 C  
BRANCH  32  33
HETATM   33  C   UNL     1     -11.602  15.888  71.046  1.00  0.00    -0.465 C  
BRANCH  33  34
HETATM   34  C   UNL     1     -10.984  14.864  70.110  1.00  0.00    -0.211 C  
BRANCH  34  35
HETATM   35  C   UNL     1     -10.356  15.591  68.928  1.00  0.00    -0.221 C  
BRANCH  35  36
HETATM   36  C   UNL     1     -10.813  17.040  68.883  1.00  0.00    -0.228 C  
BRANCH  36  37
HETATM   37  C   UNL     1     -10.604  17.629  67.494  1.00  0.00    -0.345 C  
BRANCH  37  38
HETATM   38  C   UNL     1     -11.087  19.074  67.459  1.00  0.00    -0.188 C  
BRANCH  38  39
HETATM   39  C   UNL     1      -9.993  20.015  66.969  1.00  0.00    -0.582 C  
HETATM   40  C   UNL     1      -8.995  20.302  68.077  1.00  0.00    -0.202 C  
ENDBRANCH  38  39
ENDBRANCH  37  38
ENDBRANCH  36  37
ENDBRANCH  35  36
ENDBRANCH  34  35
ENDBRANCH  33  34
ENDBRANCH  32  33
ENDBRANCH  30  31
ENDBRANCH  29  30
ENDBRANCH  28  29
ENDBRANCH  27  28
ENDBRANCH  26  27
ENDBRANCH  25  26
ENDBRANCH  24  25
ENDBRANCH  22  24
ENDBRANCH  21  22
ENDBRANCH  20  21
BRANCH  20  41
HETATM   41  C   UNL     1      -6.135  12.064  71.158  1.00  0.00     0.876 C  
BRANCH  41  42
HETATM   42  O   UNL     1      -5.592  13.265  70.616  1.00  0.00    -0.152 OA 
BRANCH  42  43
HETATM   43  P   UNL     1      -6.104  13.538  68.986  1.00  0.00    -0.099 P  
HETATM   44  O   UNL     1      -5.283  14.919  69.150  1.00  0.00    -0.093 OA 
HETATM   45  O   UNL     1      -5.143  12.457  68.499  1.00  0.00    -0.051 OA 
BRANCH  43  46
HETATM   46  O   UNL     1      -6.614  13.811  67.357  1.00  0.00    -0.257 OA 
BRANCH  46  47
HETATM   47  C   UNL     1      -7.732  14.718  67.160  1.00  0.00    -0.116 C  
BRANCH  47  48
HETATM   48  C   UNL     1      -7.571  16.229  67.576  1.00  0.00    -0.146 C  
HETATM   49  O   UNL     1      -6.770  16.416  68.745  1.00  0.00    -0.142 OA 
HETATM   50  H   UNL     1      -6.673  17.328  68.995  1.00  0.00     0.000 HD 
BRANCH  48  51
HETATM   51  C   UNL     1      -6.954  17.068  66.439  1.00  0.00    -0.232 C  
HETATM   52  H   UNL     1      -7.553  18.393  65.073  1.00  0.00     0.000 HD 
HETATM   53  O   UNL     1      -7.933  17.877  65.773  1.00  0.00    -0.540 OA 
ENDBRANCH  48  51
ENDBRANCH  47  48
ENDBRANCH  46  47
ENDBRANCH  43  46
ENDBRANCH  42  43
ENDBRANCH  41  42
ENDBRANCH  20  41
ENDBRANCH  19  20
ENDBRANCH  18  19
ENDBRANCH  16  18
ENDBRANCH  15  16
ENDBRANCH  14  15
ENDBRANCH  13  14
ENDBRANCH  12  13
ENDBRANCH  11  12
ENDBRANCH  10  11
ENDBRANCH   9  10
ENDBRANCH   8   9
ENDBRANCH   7   8
ENDBRANCH   6   7
ENDBRANCH   5   6
ENDBRANCH   4   5
ENDBRANCH   3   4
ENDBRANCH   2   3
TORSDOF 41
ENDMDL
MODEL       13
REMARK 921   NORMALIZED FREE ENERGY PREDICTED BY IDOCK:    0.97 KCAL/MOL
REMARK 922        TOTAL FREE ENERGY PREDICTED BY IDOCK:   -3.94 KCAL/MOL
REMARK 923 INTER-LIGAND FREE ENERGY PREDICTED BY IDOCK:   -3.95 KCAL/MOL
REMARK 924 INTRA-LIGAND FREE ENERGY PREDICTED BY IDOCK:    0.01 KCAL/MOL
REMARK 927      BINDING AFFINITY PREDICTED BY RF-SCORE:    0.00 PKD
ROOT
HETATM    1  C   UNL     1     -11.583   9.859  66.984  1.00  0.00     1.506 C  
HETATM    2  C   UNL     1     -10.702  10.564  68.001  1.00  0.00    -0.287 C  
ENDROOT
BRANCH   2   3
HETATM    3  C   UNL     1     -11.453  10.802  69.308  1.00  0.00    -0.369 C  
BRANCH   3   4
HETATM    4  C   UNL     1     -10.563  10.518  70.515  1.00  0.00     0.156 C  
BRANCH   4   5
HETATM    5  C   UNL     1     -11.284   9.627  71.522  1.00  0.00    -0.377 C  
BRANCH   5   6
HETATM    6  C   UNL     1     -12.786   9.888  71.505  1.00  0.00    -0.515 C  
BRANCH   6   7
HETATM    7  C   UNL     1     -13.499   8.864  70.628  1.00  0.00     0.540 C  
BRANCH   7   8
HETATM    8  C   UNL     1     -13.139   7.445  71.050  1.00  0.00    -0.184 C  
BRANCH   8   9
HETATM    9  C   UNL     1     -12.113   7.464  72.175  1.00  0.00    -0.289 C  
BRANCH   9  10
HETATM   10  C   UNL     1     -11.079   6.362  71.977  1.00  0.00    -0.306 C  
BRANCH  10  11
HETATM   11  C   UNL     1     -10.147   6.271  73.182  1.00  0.00    -0.203 C  
BRANCH  11  12
HETATM   12  C   UNL     1      -9.033   5.266  72.921  1.00  0.00    -0.120 C  
BRANCH  12  13
HETATM   13  C   UNL     1      -7.780   5.949  72.381  1.00  0.00    -0.102 C  
BRANCH  13  14
HETATM   14  C   UNL     1      -7.493   7.215  73.181  1.00  0.00    -0.079 C  
BRANCH  14  15
HETATM   15  C   UNL     1      -7.973   8.471  72.463  1.00  0.00    -0.105 C  
BRANCH  15  16
HETATM   16  C   UNL     1      -6.843   9.462  72.351  1.00  0.00     0.686 C  
HETATM   17  O   UNL     1      -5.977   9.635  73.196  1.00  0.00    -0.292 OA 
BRANCH  16  18
HETATM   18  O   UNL     1      -6.916  10.134  71.166  1.00  0.00    -0.279 OA 
BRANCH  18  19
HETATM   19  C   UNL     1      -6.102  11.315  71.112  1.00  0.00     0.557 C  
BRANCH  19  20
HETATM   20  C   UNL     1      -5.167  11.327  69.892  1.00  0.00    -0.058 C  
BRANCH  20  21
HETATM   21  O   UNL     1      -5.440  10.140  69.115  1.00  0.00    -0.039 OA 
BRANCH  21  22
HETATM   22  C   UNL     1      -6.298  10.318  68.077  1.00  0.00    -0.056 C  
HETATM   23  O   UNL     1      -5.989  10.769  66.976  1.00  0.00    -0.054 OA 
BRANCH  22  24
HETATM   24  C   UNL     1      -7.693   9.897  68.446  1.00  0.00    -0.084 C  
BRANCH  24  25
HETATM   25  C   UNL     1      -7.815   8.393  68.263  1.00  0.00    -0.110 C  
BRANCH  25  26
HETATM   26  C   UNL     1      -6.565   7.662  68.736  1.00  0.00    -0.049 C  
BRANCH  26  27
HETATM   27  C   UNL     1      -5.826   7.116  67.523  1.00  0.00    -0.025 C  
BRANCH  27  28
HETATM   28  C   UNL     1      -6.628   6.056  66.775  1.00  0.00    -0.056 C  
BRANCH  28  29
HETATM   29  C   UNL     1      -5.977   4.675  66.888  1.00  0.00    -0.027 C  
BRANCH  29  30
HETATM   30  C   UNL     1      -6.720   3.697  67.802  1.00  0.00    -0.042 C  
BRANCH  30  31
HETATM   31  C   UNL     1      -8.209   3.706  67.578  1.00  0.00    -0.090 C  
HETATM   32  C   UNL     1      -8.837   3.027  66.606  1.00  0.00    -0.155 C  
BRANCH  32  33
HETATM   33  C   UNL     1      -8.103   2.147  65.647  1.00  0.00    -0.084 C  
BRANCH  33  34
HETATM   34  C   UNL     1      -9.007   1.518  64.603  1.00  0.00    -0.110 C  
BRANCH  34  35
HETATM   35  C   UNL     1      -8.980   2.377  63.344  1.00  0.00    -0.092 C  
BRANCH  35  36
HETATM   36  C   UNL     1      -9.621   3.730  63.602  1.00  0.00    -0.152 C  
BRANCH  36  37
HETATM   37  C   UNL     1      -9.072   4.779  62.643  1.00  0.00    -0.087 C  
BRANCH  37  38
HETATM   38  C   UNL     1      -7.870   5.479  63.264  1.00  0.00    -0.095 C  
BRANCH  38  39
HETATM   39  C   UNL     1      -7.405   6.652  62.409  1.00  0.00    -0.055 C  
HETATM   40  C   UNL     1      -6.920   7.795  63.282  1.00  0.00    -0.073 C  
ENDBRANCH  38  39
ENDBRANCH  37  38
ENDBRANCH  36  37
ENDBRANCH  35  36
ENDBRANCH  34  35
ENDBRANCH  33  34
ENDBRANCH  32  33
ENDBRANCH  30  31
ENDBRANCH  29  30
ENDBRANCH  28  29
ENDBRANCH  27  28
ENDBRANCH  26  27
ENDBRANCH  25  26
ENDBRANCH  24  25
ENDBRANCH  22  24
ENDBRANCH  21  22
ENDBRANCH  20  21
BRANCH  20  41
HETATM   41  C   UNL     1      -5.381  12.563  69.010  1.00  0.00    -0.067 C  
BRANCH  41  42
HETATM   42  O   UNL     1      -6.636  13.193  69.248  1.00  0.00    -0.106 OA 
BRANCH  42  43
HETATM   43  P   UNL     1      -6.471  14.888  69.551  1.00  0.00    -0.166 P  
HETATM   44  O   UNL     1      -5.899  14.394  70.978  1.00  0.00    -0.183 OA 
HETATM   45  O   UNL     1      -5.313  14.957  68.560  1.00  0.00    -0.090 OA 
BRANCH  43  46
HETATM   46  O   UNL     1      -6.305  16.583  69.855  1.00  0.00    -0.206 OA 
BRANCH  46  47
HETATM   47  C   UNL     1      -6.066  17.437  68.704  1.00  0.00    -0.172 C  
BRANCH  47  48
HETATM   48  C   UNL     1      -7.201  18.426  68.240  1.00  0.00    -0.263 C  
HETATM   49  O   UNL     1      -7.489  19.451  69.193  1.00  0.00    -0.358 OA 
HETATM   50  H   UNL     1      -8.173  20.047  68.913  1.00  0.00     0.000 HD 
BRANCH  48  51
HETATM   51  C   UNL     1      -6.848  19.107  66.902  1.00  0.00    -0.198 C  
HETATM   52  H   UNL     1      -7.243  18.869  64.961  1.00  0.00     0.000 HD 
HETATM   53  O   UNL     1      -7.461  18.449  65.784  1.00  0.00    -0.484 OA 
ENDBRANCH  48  51
ENDBRANCH  47  48
ENDBRANCH  46  47
ENDBRANCH  43  46
ENDBRANCH  42  43
ENDBRANCH  41  42
ENDBRANCH  20  41
ENDBRANCH  19  20
ENDBRANCH  18  19
ENDBRANCH  16  18
ENDBRANCH  15  16
ENDBRANCH  14  15
ENDBRANCH  13  14
ENDBRANCH  12  13
ENDBRANCH  11  12
ENDBRANCH  10  11
ENDBRANCH   9  10
ENDBRANCH   8   9
ENDBRANCH   7   8
ENDBRANCH   6   7
ENDBRANCH   5   6
ENDBRANCH   4   5
ENDBRANCH   3   4
ENDBRANCH   2   3
TORSDOF 41
ENDMDL
MODEL       14
REMARK 921   NORMALIZED FREE ENERGY PREDICTED BY IDOCK:    1.03 KCAL/MOL
REMARK 922        TOTAL FREE ENERGY PREDICTED BY IDOCK:   -3.74 KCAL/MOL
REMARK 923 INTER-LIGAND FREE ENERGY PREDICTED BY IDOCK:   -5.44 KCAL/MOL
REMARK 924 INTRA-LIGAND FREE ENERGY PREDICTED BY IDOCK:    1.70 KCAL/MOL
REMARK 927      BINDING AFFINITY PREDICTED BY RF-SCORE:    0.00 PKD
ROOT
HETATM    1  C   UNL     1     -11.690  16.272  66.112  1.00  0.00     1.076 C  
HETATM    2  C   UNL     1     -10.979  17.544  66.544  1.00  0.00     0.239 C  
ENDROOT
BRANCH   2   3
HETATM    3  C   UNL     1      -9.485  17.467  66.246  1.00  0.00    -0.247 C  
BRANCH   3   4
HETATM    4  C   UNL     1      -8.722  18.576  66.965  1.00  0.00    -0.278 C  
BRANCH   4   5
HETATM    5  C   UNL     1      -8.590  18.265  68.454  1.00  0.00    -0.315 C  
BRANCH   5   6
HETATM    6  C   UNL     1      -9.704  17.334  68.917  1.00  0.00    -0.251 C  
BRANCH   6   7
HETATM    7  C   UNL     1      -9.124  16.033  69.465  1.00  0.00    -0.100 C  
BRANCH   7   8
HETATM    8  C   UNL     1      -7.665  15.876  69.054  1.00  0.00    -0.209 C  
BRANCH   8   9
HETATM    9  C   UNL     1      -6.879  15.149  70.138  1.00  0.00    -0.046 C  
BRANCH   9  10
HETATM   10  C   UNL     1      -5.389  15.156  69.816  1.00  0.00    -0.098 C  
BRANCH  10  11
HETATM   11  C   UNL     1      -5.138  14.631  68.406  1.00  0.00    -0.108 C  
BRANCH  11  12
HETATM   12  C   UNL     1      -5.417  13.136  68.335  1.00  0.00    -0.079 C  
BRANCH  12  13
HETATM   13  C   UNL     1      -5.917  12.596  69.673  1.00  0.00    -0.122 C  
BRANCH  13  14
HETATM   14  C   UNL     1      -6.500  11.200  69.484  1.00  0.00    -0.117 C  
BRANCH  14  15
HETATM   15  C   UNL     1      -7.292  11.077  68.188  1.00  0.00    -0.086 C  
BRANCH  15  16
HETATM   16  C   UNL     1      -8.407  12.092  68.170  1.00  0.00    -0.170 C  
HETATM   17  O   UNL     1      -8.317  13.223  67.712  1.00  0.00    -0.145 OA 
BRANCH  16  18
HETATM   18  O   UNL     1      -9.536  11.570  68.729  1.00  0.00    -0.175 OA 
BRANCH  18  19
HETATM   19  C   UNL     1      -9.434  10.177  69.062  1.00  0.00    -0.190 C  
BRANCH  19  20
HETATM   20  C   UNL     1      -9.491   9.271  67.821  1.00  0.00    -0.140 C  
BRANCH  20  21
HETATM   21  O   UNL     1      -9.424   7.900  68.272  1.00  0.00    -0.143 OA 
BRANCH  21  22
HETATM   22  C   UNL     1     -10.148   7.627  69.388  1.00  0.00    -0.196 C  
HETATM   23  O   UNL     1     -10.908   8.416  69.946  1.00  0.00    -0.240 OA 
BRANCH  22  24
HETATM   24  C   UNL     1      -9.898   6.225  69.870  1.00  0.00    -0.198 C  
BRANCH  24  25
HETATM   25  C   UNL     1      -8.512   5.793  69.421  1.00  0.00    -0.112 C  
BRANCH  25  26
HETATM   26  C   UNL     1      -8.499   4.350  68.932  1.00  0.00    -0.095 C  
BRANCH  26  27
HETATM   27  C   UNL     1      -9.539   3.558  69.711  1.00  0.00    -0.206 C  
BRANCH  27  28
HETATM   28  C   UNL     1      -9.215   3.465  71.199  1.00  0.00    -0.194 C  
BRANCH  28  29
HETATM   29  C   UNL     1     -10.082   2.415  71.898  1.00  0.00    -0.174 C  
BRANCH  29  30
HETATM   30  C   UNL     1      -9.525   1.922  73.235  1.00  0.00    -0.095 C  
BRANCH  30  31
HETATM   31  C   UNL     1      -8.049   2.179  73.383  1.00  0.00    -0.050 C  
HETATM   32  C   UNL     1      -7.520   3.283  73.933  1.00  0.00    -0.060 C  
BRANCH  32  33
HETATM   33  C   UNL     1      -8.367   4.377  74.496  1.00  0.00    -0.090 C  
BRANCH  33  34
HETATM   34  C   UNL     1      -7.957   5.757  74.016  1.00  0.00    -0.105 C  
BRANCH  34  35
HETATM   35  C   UNL     1      -6.691   5.631  73.175  1.00  0.00    -0.074 C  
BRANCH  35  36
HETATM   36  C   UNL     1      -5.790   6.838  73.377  1.00  0.00    -0.054 C  
BRANCH  36  37
HETATM   37  C   UNL     1      -5.156   7.264  72.058  1.00  0.00    -0.035 C  
BRANCH  37  38
HETATM   38  C   UNL     1      -6.004   6.780  70.888  1.00  0.00    -0.028 C  
BRANCH  38  39
HETATM   39  C   UNL     1      -6.270   7.903  69.892  1.00  0.00    -0.026 C  
HETATM   40  C   UNL     1      -5.307   7.821  68.721  1.00  0.00    -0.026 C  
ENDBRANCH  38  39
ENDBRANCH  37  38
ENDBRANCH  36  37
ENDBRANCH  35  36
ENDBRANCH  34  35
ENDBRANCH  33  34
ENDBRANCH  32  33
ENDBRANCH  30  31
ENDBRANCH  29  30
ENDBRANCH  28  29
ENDBRANCH  27  28
ENDBRANCH  26  27
ENDBRANCH  25  26
ENDBRANCH  24  25
ENDBRANCH  22  24
ENDBRANCH  21  22
ENDBRANCH  20  21
BRANCH  20  41
HETATM   41  C   UNL     1     -10.781   9.471  67.017  1.00  0.00    -0.149 C  
BRANCH  41  42
HETATM   42  O   UNL     1     -10.661  10.499  66.038  1.00  0.00    -0.139 OA 
BRANCH  42  43
HETATM   43  P   UNL     1      -9.778   9.978  64.645  1.00  0.00    -0.061 P  
HETATM   44  O   UNL     1     -10.833  10.907  63.850  1.00  0.00    -0.283 OA 
HETATM   45  O   UNL     1      -8.593  10.841  65.069  1.00  0.00    -0.174 OA 
BRANCH  43  46
HETATM   46  O   UNL     1      -8.894   9.458  63.252  1.00  0.00    -0.227 OA 
BRANCH  46  47
HETATM   47  C   UNL     1      -7.761   8.578  63.482  1.00  0.00    -0.142 C  
BRANCH  47  48
HETATM   48  C   UNL     1      -7.957   7.301  64.383  1.00  0.00    -0.106 C  
HETATM   49  O   UNL     1      -8.398   6.153  63.654  1.00  0.00    -0.297 OA 
HETATM   50  H   UNL     1      -8.516   5.382  64.198  1.00  0.00     0.000 HD 
BRANCH  48  51
HETATM   51  C   UNL     1      -6.659   6.924  65.124  1.00  0.00    -0.046 C  
HETATM   52  H   UNL     1      -5.781   7.301  66.876  1.00  0.00     0.000 HD 
HETATM   53  O   UNL     1      -6.581   7.534  66.420  1.00  0.00    -0.051 OA 
ENDBRANCH  48  51
ENDBRANCH  47  48
ENDBRANCH  46  47
ENDBRANCH  43  46
ENDBRANCH  42  43
ENDBRANCH  41  42
ENDBRANCH  20  41
ENDBRANCH  19  20
ENDBRANCH  18  19
ENDBRANCH  16  18
ENDBRANCH  15  16
ENDBRANCH  14  15
ENDBRANCH  13  14
ENDBRANCH  12  13
ENDBRANCH  11  12
ENDBRANCH  10  11
ENDBRANCH   9  10
ENDBRANCH   8   9
ENDBRANCH   7   8
ENDBRANCH   6   7
ENDBRANCH   5   6
ENDBRANCH   4   5
ENDBRANCH   3   4
ENDBRANCH   2   3
TORSDOF 41
ENDMDL
MODEL       15
REMARK 921   NORMALIZED FREE ENERGY PREDICTED BY IDOCK:    1.72 KCAL/MOL
REMARK 922        TOTAL FREE ENERGY PREDICTED BY IDOCK:   -1.41 KCAL/MOL
REMARK 923 INTER-LIGAND FREE ENERGY PREDICTED BY IDOCK:   -6.84 KCAL/MOL
REMARK 924 INTRA-LIGAND FREE ENERGY PREDICTED BY IDOCK:    5.43 KCAL/MOL
REMARK 927      BINDING AFFINITY PREDICTED BY RF-SCORE:    0.00 PKD
ROOT
HETATM    1  C   UNL     1     -10.375   2.070  70.889  1.00  0.00     0.703 C  
HETATM    2  C   UNL     1     -10.350   3.002  72.088  1.00  0.00    -0.063 C  
ENDROOT
BRANCH   2   3
HETATM    3  C   UNL     1     -10.135   4.450  71.655  1.00  0.00    -0.230 C  
BRANCH   3   4
HETATM    4  C   UNL     1      -8.690   4.884  71.882  1.00  0.00    -0.136 C  
BRANCH   4   5
HETATM    5  C   UNL     1      -8.565   6.404  71.818  1.00  0.00    -0.128 C  
BRANCH   5   6
HETATM    6  C   UNL     1      -9.939   7.063  71.780  1.00  0.00    -0.187 C  
BRANCH   6   7
HETATM    7  C   UNL     1     -10.921   6.213  70.980  1.00  0.00    -0.354 C  
BRANCH   7   8
HETATM    8  C   UNL     1     -11.532   7.019  69.840  1.00  0.00    -0.223 C  
BRANCH   8   9
HETATM    9  C   UNL     1     -10.539   7.165  68.694  1.00  0.00    -0.217 C  
BRANCH   9  10
HETATM   10  C   UNL     1     -11.146   7.982  67.559  1.00  0.00     0.265 C  
BRANCH  10  11
HETATM   11  C   UNL     1     -10.053   8.567  66.669  1.00  0.00    -0.364 C  
BRANCH  11  12
HETATM   12  C   UNL     1      -8.858   9.003  67.506  1.00  0.00    -0.128 C  
BRANCH  12  13
HETATM   13  C   UNL     1      -7.660   9.354  66.629  1.00  0.00    -0.094 C  
BRANCH  13  14
HETATM   14  C   UNL     1      -6.442   9.634  67.503  1.00  0.00    -0.069 C  
BRANCH  14  15
HETATM   15  C   UNL     1      -6.023  11.098  67.455  1.00  0.00    -0.057 C  
BRANCH  15  16
HETATM   16  C   UNL     1      -6.130  11.708  68.829  1.00  0.00    -0.050 C  
HETATM   17  O   UNL     1      -5.180  12.018  69.534  1.00  0.00    -0.064 OA 
BRANCH  16  18
HETATM   18  O   UNL     1      -7.439  11.875  69.175  1.00  0.00    -0.054 OA 
BRANCH  18  19
HETATM   19  C   UNL     1      -8.257  12.415  68.126  1.00  0.00    -0.173 C  
BRANCH  19  20
HETATM   20  C   UNL     1      -9.069  13.637  68.586  1.00  0.00    -0.035 C  
BRANCH  20  21
HETATM   21  O   UNL     1     -10.284  13.154  69.201  1.00  0.00     0.023 OA 
BRANCH  21  22
HETATM   22  C   UNL     1     -11.183  14.117  69.530  1.00  0.00    -0.221 C  
HETATM   23  O   UNL     1     -10.927  15.316  69.633  1.00  0.00    -0.251 OA 
BRANCH  22  24
HETATM   24  C   UNL     1     -12.548  13.531  69.765  1.00  0.00    -0.016 C  
BRANCH  24  25
HETATM   25  C   UNL     1     -12.459  12.019  69.641  1.00  0.00     0.063 C  
BRANCH  25  26
HETATM   26  C   UNL     1     -11.822  11.596  68.324  1.00  0.00    -0.335 C  
BRANCH  26  27
HETATM   27  C   UNL     1     -12.457  12.391  67.193  1.00  0.00     0.901 C  
BRANCH  27  28
HETATM   28  C   UNL     1     -11.427  12.962  66.224  1.00  0.00    -0.395 C  
BRANCH  28  29
HETATM   29  C   UNL     1     -10.815  11.868  65.346  1.00  0.00    -0.343 C  
BRANCH  29  30
HETATM   30  C   UNL     1     -11.493  11.695  63.984  1.00  0.00    -0.404 C  
BRANCH  30  31
HETATM   31  C   UNL     1     -12.211  12.937  63.529  1.00  0.00    -0.595 C  
HETATM   32  C   UNL     1     -11.881  14.186  63.896  1.00  0.00    -0.211 C  
BRANCH  32  33
HETATM   33  C   UNL     1     -10.719  14.471  64.791  1.00  0.00    -0.414 C  
BRANCH  33  34
HETATM   34  C   UNL     1     -10.522  15.953  65.056  1.00  0.00    -0.295 C  
BRANCH  34  35
HETATM   35  C   UNL     1     -11.116  16.295  66.417  1.00  0.00     0.131 C  
BRANCH  35  36
HETATM   36  C   UNL     1     -10.354  17.440  67.064  1.00  0.00    -0.318 C  
BRANCH  36  37
HETATM   37  C   UNL     1     -10.681  18.761  66.378  1.00  0.00    -0.324 C  
BRANCH  37  38
HETATM   38  C   UNL     1      -9.555  19.762  66.605  1.00  0.00    -0.499 C  
BRANCH  38  39
HETATM   39  C   UNL     1      -8.196  19.073  66.636  1.00  0.00    -0.301 C  
HETATM   40  C   UNL     1      -7.504  19.187  65.290  1.00  0.00     0.413 C  
ENDBRANCH  38  39
ENDBRANCH  37  38
ENDBRANCH  36  37
ENDBRANCH  35  36
ENDBRANCH  34  35
ENDBRANCH  33  34
ENDBRANCH  32  33
ENDBRANCH  30  31
ENDBRANCH  29  30
ENDBRANCH  28  29
ENDBRANCH  27  28
ENDBRANCH  26  27
ENDBRANCH  25  26
ENDBRANCH  24  25
ENDBRANCH  22  24
ENDBRANCH  21  22
ENDBRANCH  20  21
BRANCH  20  41
HETATM   41  C   UNL     1      -8.302  14.494  69.600  1.00  0.00     0.373 C  
BRANCH  41  42
HETATM   42  O   UNL     1      -8.453  15.890  69.361  1.00  0.00    -0.255 OA 
BRANCH  42  43
HETATM   43  P   UNL     1      -6.956  16.649  68.941  1.00  0.00    -0.218 P  
HETATM   44  O   UNL     1      -6.316  15.489  69.865  1.00  0.00    -0.155 OA 
HETATM   45  O   UNL     1      -7.083  16.120  67.515  1.00  0.00    -0.133 OA 
BRANCH  43  46
HETATM   46  O   UNL     1      -5.459  17.406  68.521  1.00  0.00    -0.146 OA 
BRANCH  46  47
HETATM   47  C   UNL     1      -5.154  18.668  69.175  1.00  0.00    -0.187 C  
BRANCH  47  48
HETATM   48  C   UNL     1      -5.863  19.012  70.538  1.00  0.00    -0.126 C  
HETATM   49  O   UNL     1      -5.130  18.579  71.687  1.00  0.00    -0.528 OA 
HETATM   50  H   UNL     1      -5.558  18.787  72.509  1.00  0.00     0.000 HD 
BRANCH  48  51
HETATM   51  C   UNL     1      -6.117  20.526  70.681  1.00  0.00    -0.067 C  
HETATM   52  H   UNL     1      -5.759  22.198  69.652  1.00  0.00     0.000 HD 
HETATM   53  O   UNL     1      -5.603  21.266  69.564  1.00  0.00    -0.354 OA 
ENDBRANCH  48  51
ENDBRANCH  47  48
ENDBRANCH  46  47
ENDBRANCH  43  46
ENDBRANCH  42  43
ENDBRANCH  41  42
ENDBRANCH  20  41
ENDBRANCH  19  20
ENDBRANCH  18  19
ENDBRANCH  16  18
ENDBRANCH  15  16
ENDBRANCH  14  15
ENDBRANCH  13  14
ENDBRANCH  12  13
ENDBRANCH  11  12
ENDBRANCH  10  11
ENDBRANCH   9  10
ENDBRANCH   8   9
ENDBRANCH   7   8
ENDBRANCH   6   7
ENDBRANCH   5   6
ENDBRANCH   4   5
ENDBRANCH   3   4
ENDBRANCH   2   3
TORSDOF 41
ENDMDL
MODEL       16
REMARK 921   NORMALIZED FREE ENERGY PREDICTED BY IDOCK:    2.03 KCAL/MOL
REMARK 922        TOTAL FREE ENERGY PREDICTED BY IDOCK:   -0.35 KCAL/MOL
REMARK 923 INTER-LIGAND FREE ENERGY PREDICTED BY IDOCK:   -3.19 KCAL/MOL
REMARK 924 INTRA-LIGAND FREE ENERGY PREDICTED BY IDOCK:    2.83 KCAL/MOL
REMARK 927      BINDING AFFINITY PREDICTED BY RF-SCORE:    0.00 PKD
ROOT
HETATM    1  C   UNL     1     -11.931  16.355  66.162  1.00  0.00     1.815 C  
HETATM    2  C   UNL     1     -11.432  17.659  66.758  1.00  0.00     1.269 C  
ENDROOT
BRANCH   2   3
HETATM    3  C   UNL     1      -9.939  17.846  66.501  1.00  0.00    -0.357 C  
BRANCH   3   4
HETATM    4  C   UNL     1      -9.367  18.969  67.362  1.00  0.00    -0.345 C  
BRANCH   4   5
HETATM    5  C   UNL     1      -9.257  18.530  68.820  1.00  0.00    -0.292 C  
BRANCH   5   6
HETATM    6  C   UNL     1     -10.180  17.351  69.106  1.00  0.00    -0.273 C  
BRANCH   6   7
HETATM    7  C   UNL     1      -9.369  16.094  69.404  1.00  0.00    -0.186 C  
BRANCH   7   8
HETATM    8  C   UNL     1      -7.938  16.240  68.900  1.00  0.00    -0.230 C  
BRANCH   8   9
HETATM    9  C   UNL     1      -6.968  15.516  69.825  1.00  0.00    -0.132 C  
BRANCH   9  10
HETATM   10  C   UNL     1      -5.527  15.876  69.479  1.00  0.00    -0.116 C  
BRANCH  10  11
HETATM   11  C   UNL     1      -5.280  15.737  67.980  1.00  0.00    -0.129 C  
BRANCH  11  12
HETATM   12  C   UNL     1      -5.162  14.269  67.592  1.00  0.00     0.100 C  
BRANCH  12  13
HETATM   13  C   UNL     1      -5.341  13.355  68.802  1.00  0.00    -0.071 C  
BRANCH  13  14
HETATM   14  C   UNL     1      -5.547  11.917  68.340  1.00  0.00    -0.049 C  
BRANCH  14  15
HETATM   15  C   UNL     1      -6.431  11.831  67.101  1.00  0.00    -0.146 C  
BRANCH  15  16
HETATM   16  C   UNL     1      -7.688  12.636  67.311  1.00  0.00    -0.140 C  
HETATM   17  O   UNL     1      -7.833  13.805  66.982  1.00  0.00    -0.071 OA 
BRANCH  16  18
HETATM   18  O   UNL     1      -8.646  11.875  67.912  1.00  0.00    -0.147 OA 
BRANCH  18  19
HETATM   19  C   UNL     1      -8.169  10.615  68.406  1.00  0.00    -0.125 C  
BRANCH  19  20
HETATM   20  C   UNL     1      -7.948   9.590  67.282  1.00  0.00    -0.106 C  
BRANCH  20  21
HETATM   21  O   UNL     1      -7.349   8.413  67.869  1.00  0.00    -0.092 OA 
BRANCH  21  22
HETATM   22  C   UNL     1      -8.124   7.765  68.776  1.00  0.00    -0.126 C  
HETATM   23  O   UNL     1      -9.259   8.108  69.106  1.00  0.00    -0.151 OA 
BRANCH  22  24
HETATM   24  C   UNL     1      -7.416   6.567  69.343  1.00  0.00    -0.094 C  
BRANCH  24  25
HETATM   25  C   UNL     1      -6.470   7.030  70.438  1.00  0.00    -0.043 C  
BRANCH  25  26
HETATM   26  C   UNL     1      -5.180   6.219  70.453  1.00  0.00    -0.014 C  
BRANCH  26  27
HETATM   27  C   UNL     1      -5.490   4.797  70.007  1.00  0.00    -0.008 C  
BRANCH  27  28
HETATM   28  C   UNL     1      -6.032   3.931  71.140  1.00  0.00    -0.014 C  
BRANCH  28  29
HETATM   29  C   UNL     1      -5.578   2.476  71.001  1.00  0.00    -0.012 C  
BRANCH  29  30
HETATM   30  C   UNL     1      -6.054   1.554  72.127  1.00  0.00    -0.009 C  
BRANCH  30  31
HETATM   31  C   UNL     1      -6.750   2.297  73.234  1.00  0.00    -0.022 C  
HETATM   32  C   UNL     1      -8.078   2.476  73.314  1.00  0.00    -0.059 C  
BRANCH  32  33
HETATM   33  C   UNL     1      -9.020   1.911  72.301  1.00  0.00    -0.102 C  
BRANCH  33  34
HETATM   34  C   UNL     1      -9.700   2.977  71.460  1.00  0.00    -0.223 C  
BRANCH  34  35
HETATM   35  C   UNL     1      -9.754   4.275  72.257  1.00  0.00    -0.210 C  
BRANCH  35  36
HETATM   36  C   UNL     1     -11.176   4.576  72.697  1.00  0.00    -0.036 C  
BRANCH  36  37
HETATM   37  C   UNL     1     -11.475   6.066  72.576  1.00  0.00    -0.336 C  
BRANCH  37  38
HETATM   38  C   UNL     1     -10.218   6.820  72.160  1.00  0.00    -0.213 C  
BRANCH  38  39
HETATM   39  C   UNL     1      -9.908   7.959  73.124  1.00  0.00    -0.357 C  
HETATM   40  C   UNL     1      -8.548   8.563  72.824  1.00  0.00    -0.168 C  
ENDBRANCH  38  39
ENDBRANCH  37  38
ENDBRANCH  36  37
ENDBRANCH  35  36
ENDBRANCH  34  35
ENDBRANCH  33  34
ENDBRANCH  32  33
ENDBRANCH  30  31
ENDBRANCH  29  30
ENDBRANCH  28  29
ENDBRANCH  27  28
ENDBRANCH  26  27
ENDBRANCH  25  26
ENDBRANCH  24  25
ENDBRANCH  22  24
ENDBRANCH  21  22
ENDBRANCH  20  21
BRANCH  20  41
HETATM   41  C   UNL     1      -9.259   9.193  66.593  1.00  0.00    -0.164 C  
BRANCH  41  42
HETATM   42  O   UNL     1      -9.370   9.730  65.278  1.00  0.00    -0.217 OA 
BRANCH  42  43
HETATM   43  P   UNL     1      -8.267   8.987  64.172  1.00  0.00    -0.155 P  
HETATM   44  O   UNL     1      -8.601  10.274  63.255  1.00  0.00    -0.167 OA 
HETATM   45  O   UNL     1      -7.101   9.337  65.094  1.00  0.00    -0.087 OA 
BRANCH  43  46
HETATM   46  O   UNL     1      -7.163   8.246  63.066  1.00  0.00    -0.092 OA 
BRANCH  46  47
HETATM   47  C   UNL     1      -7.341   6.827  62.809  1.00  0.00    -0.068 C  
BRANCH  47  48
HETATM   48  C   UNL     1      -7.600   5.859  64.025  1.00  0.00    -0.085 C  
HETATM   49  O   UNL     1      -8.109   4.581  63.636  1.00  0.00    -0.088 OA 
HETATM   50  H   UNL     1      -8.265   3.997  64.369  1.00  0.00     0.000 HD 
BRANCH  48  51
HETATM   51  C   UNL     1      -6.319   5.628  64.850  1.00  0.00    -0.037 C  
HETATM   52  H   UNL     1      -4.440   5.030  64.546  1.00  0.00     0.000 HD 
HETATM   53  O   UNL     1      -5.229   5.172  64.037  1.00  0.00    -0.009 OA 
ENDBRANCH  48  51
ENDBRANCH  47  48
ENDBRANCH  46  47
ENDBRANCH  43  46
ENDBRANCH  42  43
ENDBRANCH  41  42
ENDBRANCH  20  41
ENDBRANCH  19  20
ENDBRANCH  18  19
ENDBRANCH  16  18
ENDBRANCH  15  16
ENDBRANCH  14  15
ENDBRANCH  13  14
ENDBRANCH  12  13
ENDBRANCH  11  12
ENDBRANCH  10  11
ENDBRANCH   9  10
ENDBRANCH   8   9
ENDBRANCH   7   8
ENDBRANCH   6   7
ENDBRANCH   5   6
ENDBRANCH   4   5
ENDBRANCH   3   4
ENDBRANCH   2   3
TORSDOF 41
ENDMDL
MODEL       17
REMARK 921   NORMALIZED FREE ENERGY PREDICTED BY IDOCK:    2.17 KCAL/MOL
REMARK 922        TOTAL FREE ENERGY PREDICTED BY IDOCK:    0.15 KCAL/MOL
REMARK 923 INTER-LIGAND FREE ENERGY PREDICTED BY IDOCK:   -2.70 KCAL/MOL
REMARK 924 INTRA-LIGAND FREE ENERGY PREDICTED BY IDOCK:    2.85 KCAL/MOL
REMARK 927      BINDING AFFINITY PREDICTED BY RF-SCORE:    0.00 PKD
ROOT
HETATM    1  C   UNL     1     -11.120   9.398  67.189  1.00  0.00     0.218 C  
HETATM    2  C   UNL     1     -10.256  10.022  68.271  1.00  0.00    -0.200 C  
ENDROOT
BRANCH   2   3
HETATM    3  C   UNL     1     -11.107  10.521  69.435  1.00  0.00    -0.310 C  
BRANCH   3   4
HETATM    4  C   UNL     1     -10.566  10.015  70.770  1.00  0.00    -0.209 C  
BRANCH   4   5
HETATM    5  C   UNL     1     -11.678   9.378  71.598  1.00  0.00    -0.468 C  
BRANCH   5   6
HETATM    6  C   UNL     1     -13.024  10.026  71.296  1.00  0.00    -0.495 C  
BRANCH   6   7
HETATM    7  C   UNL     1     -13.725   9.302  70.151  1.00  0.00     1.447 C  
BRANCH   7   8
HETATM    8  C   UNL     1     -13.756   7.799  70.400  1.00  0.00     1.357 C  
BRANCH   8   9
HETATM    9  C   UNL     1     -13.077   7.460  71.721  1.00  0.00    -0.363 C  
BRANCH   9  10
HETATM   10  C   UNL     1     -12.160   6.253  71.559  1.00  0.00    -0.185 C  
BRANCH  10  11
HETATM   11  C   UNL     1     -11.611   5.804  72.910  1.00  0.00    -0.210 C  
BRANCH  11  12
HETATM   12  C   UNL     1     -10.777   4.540  72.754  1.00  0.00    -0.258 C  
BRANCH  12  13
HETATM   13  C   UNL     1      -9.311   4.868  72.480  1.00  0.00    -0.155 C  
BRANCH  13  14
HETATM   14  C   UNL     1      -8.815   5.904  73.483  1.00  0.00    -0.125 C  
BRANCH  14  15
HETATM   15  C   UNL     1      -9.088   7.330  73.020  1.00  0.00    -0.180 C  
BRANCH  15  16
HETATM   16  C   UNL     1      -7.872   8.188  73.255  1.00  0.00    -0.166 C  
HETATM   17  O   UNL     1      -7.217   8.206  74.287  1.00  0.00    -0.147 OA 
BRANCH  16  18
HETATM   18  O   UNL     1      -7.598   8.938  72.149  1.00  0.00    -0.335 OA 
BRANCH  18  19
HETATM   19  C   UNL     1      -6.581   9.931  72.352  1.00  0.00     1.331 C  
BRANCH  19  20
HETATM   20  C   UNL     1      -5.387   9.750  71.401  1.00  0.00    -0.072 C  
BRANCH  20  21
HETATM   21  O   UNL     1      -5.668   8.616  70.551  1.00  0.00    -0.027 OA 
BRANCH  21  22
HETATM   22  C   UNL     1      -6.539   8.860  69.538  1.00  0.00    -0.044 C  
HETATM   23  O   UNL     1      -6.245   9.390  68.467  1.00  0.00    -0.048 OA 
BRANCH  22  24
HETATM   24  C   UNL     1      -7.927   8.404  69.891  1.00  0.00    -0.107 C  
BRANCH  24  25
HETATM   25  C   UNL     1      -8.023   6.905  69.660  1.00  0.00    -0.125 C  
BRANCH  25  26
HETATM   26  C   UNL     1      -6.673   6.219  69.823  1.00  0.00    -0.056 C  
BRANCH  26  27
HETATM   27  C   UNL     1      -6.120   5.887  68.445  1.00  0.00    -0.021 C  
BRANCH  27  28
HETATM   28  C   UNL     1      -6.916   4.793  67.741  1.00  0.00    -0.061 C  
BRANCH  28  29
HETATM   29  C   UNL     1      -7.789   4.011  68.725  1.00  0.00    -0.067 C  
BRANCH  29  30
HETATM   30  C   UNL     1      -9.293   4.255  68.569  1.00  0.00    -0.209 C  
BRANCH  30  31
HETATM   31  C   UNL     1      -9.621   5.148  67.403  1.00  0.00    -0.154 C  
HETATM   32  C   UNL     1      -9.600   4.762  66.118  1.00  0.00    -0.185 C  
BRANCH  32  33
HETATM   33  C   UNL     1      -9.271   3.362  65.713  1.00  0.00    -0.155 C  
BRANCH  33  34
HETATM   34  C   UNL     1      -9.489   3.104  64.233  1.00  0.00    -0.142 C  
BRANCH  34  35
HETATM   35  C   UNL     1      -8.424   2.131  63.739  1.00  0.00    -0.082 C  
BRANCH  35  36
HETATM   36  C   UNL     1      -7.910   2.547  62.371  1.00  0.00    -0.058 C  
BRANCH  36  37
HETATM   37  C   UNL     1      -6.648   3.392  62.503  1.00  0.00    -0.022 C  
BRANCH  37  38
HETATM   38  C   UNL     1      -5.589   2.632  63.291  1.00  0.00    -0.009 C  
BRANCH  38  39
HETATM   39  C   UNL     1      -5.497   3.132  64.727  1.00  0.00    -0.009 C  
HETATM   40  C   UNL     1      -5.483   1.969  65.703  1.00  0.00    -0.009 C  
ENDBRANCH  38  39
ENDBRANCH  37  38
ENDBRANCH  36  37
ENDBRANCH  35  36
ENDBRANCH  34  35
ENDBRANCH  33  34
ENDBRANCH  32  33
ENDBRANCH  30  31
ENDBRANCH  29  30
ENDBRANCH  28  29
ENDBRANCH  27  28
ENDBRANCH  26  27
ENDBRANCH  25  26
ENDBRANCH  24  25
ENDBRANCH  22  24
ENDBRANCH  21  22
ENDBRANCH  20  21
BRANCH  20  41
HETATM   41  C   UNL     1      -5.152  10.986  70.525  1.00  0.00    -0.083 C  
BRANCH  41  42
HETATM   42  O   UNL     1      -6.252  11.891  70.551  1.00  0.00    -0.250 OA 
BRANCH  42  43
HETATM   43  P   UNL     1      -6.011  13.245  69.501  1.00  0.00    -0.118 P  
HETATM   44  O   UNL     1      -6.851  12.351  68.451  1.00  0.00    -0.068 OA 
HETATM   45  O   UNL     1      -6.992  14.068  70.332  1.00  0.00     0.197 OA 
BRANCH  43  46
HETATM   46  O   UNL     1      -5.772  14.599  68.452  1.00  0.00    -0.091 OA 
BRANCH  46  47
HETATM   47  C   UNL     1      -6.863  14.935  67.552  1.00  0.00    -0.161 C  
BRANCH  47  48
HETATM   48  C   UNL     1      -7.002  16.419  67.044  1.00  0.00    -0.219 C  
HETATM   49  O   UNL     1      -8.121  16.621  66.177  1.00  0.00    -0.319 OA 
HETATM   50  H   UNL     1      -8.205  17.517  65.871  1.00  0.00     0.000 HD 
BRANCH  48  51
HETATM   51  C   UNL     1      -7.126  17.412  68.217  1.00  0.00    -0.203 C  
HETATM   52  H   UNL     1      -8.465  18.702  68.940  1.00  0.00     0.000 HD 
HETATM   53  O   UNL     1      -8.389  18.091  68.218  1.00  0.00    -0.273 OA 
ENDBRANCH  48  51
ENDBRANCH  47  48
ENDBRANCH  46  47
ENDBRANCH  43  46
ENDBRANCH  42  43
ENDBRANCH  41  42
ENDBRANCH  20  41
ENDBRANCH  19  20
ENDBRANCH  18  19
ENDBRANCH  16  18
ENDBRANCH  15  16
ENDBRANCH  14  15
ENDBRANCH  13  14
ENDBRANCH  12  13
ENDBRANCH  11  12
ENDBRANCH  10  11
ENDBRANCH   9  10
ENDBRANCH   8   9
ENDBRANCH   7   8
ENDBRANCH   6   7
ENDBRANCH   5   6
ENDBRANCH   4   5
ENDBRANCH   3   4
ENDBRANCH   2   3
TORSDOF 41
ENDMDL
MODEL       18
REMARK 921   NORMALIZED FREE ENERGY PREDICTED BY IDOCK:    2.90 KCAL/MOL
REMARK 922        TOTAL FREE ENERGY PREDICTED BY IDOCK:    2.61 KCAL/MOL
REMARK 923 INTER-LIGAND FREE ENERGY PREDICTED BY IDOCK:   -2.52 KCAL/MOL
REMARK 924 INTRA-LIGAND FREE ENERGY PREDICTED BY IDOCK:    5.13 KCAL/MOL
REMARK 927      BINDING AFFINITY PREDICTED BY RF-SCORE:    0.00 PKD
ROOT
HETATM    1  C   UNL     1     -11.747   5.443  72.729  1.00  0.00    -0.235 C  
HETATM    2  C   UNL     1     -12.271   6.590  71.881  1.00  0.00    -0.373 C  
ENDROOT
BRANCH   2   3
HETATM    3  C   UNL     1     -13.253   7.452  72.669  1.00  0.00     0.631 C  
BRANCH   3   4
HETATM    4  C   UNL     1     -12.756   8.891  72.781  1.00  0.00    -0.138 C  
BRANCH   4   5
HETATM    5  C   UNL     1     -13.688   9.845  72.039  1.00  0.00    -0.298 C  
BRANCH   5   6
HETATM    6  C   UNL     1     -12.902  10.757  71.104  1.00  0.00    -0.513 C  
BRANCH   6   7
HETATM    7  C   UNL     1     -11.409  10.458  71.191  1.00  0.00    -0.102 C  
BRANCH   7   8
HETATM    8  C   UNL     1     -10.705  10.830  69.891  1.00  0.00    -0.202 C  
BRANCH   8   9
HETATM    9  C   UNL     1     -11.381  12.030  69.240  1.00  0.00    -0.330 C  
BRANCH   9  10
HETATM   10  C   UNL     1     -11.858  13.017  70.299  1.00  0.00    -0.294 C  
BRANCH  10  11
HETATM   11  C   UNL     1     -11.078  14.325  70.210  1.00  0.00     0.047 C  
BRANCH  11  12
HETATM   12  C   UNL     1     -10.365  14.432  68.869  1.00  0.00    -0.233 C  
BRANCH  12  13
HETATM   13  C   UNL     1      -9.421  15.631  68.831  1.00  0.00    -0.228 C  
BRANCH  13  14
HETATM   14  C   UNL     1      -7.974  15.154  68.898  1.00  0.00    -0.178 C  
BRANCH  14  15
HETATM   15  C   UNL     1      -7.580  14.338  67.673  1.00  0.00    -0.191 C  
BRANCH  15  16
HETATM   16  C   UNL     1      -8.539  14.613  66.542  1.00  0.00     0.012 C  
HETATM   17  O   UNL     1      -8.543  15.627  65.859  1.00  0.00    -0.138 OA 
BRANCH  16  18
HETATM   18  O   UNL     1      -9.398  13.566  66.382  1.00  0.00    -0.248 OA 
BRANCH  18  19
HETATM   19  C   UNL     1      -8.753  12.318  66.089  1.00  0.00     0.145 C  
BRANCH  19  20
HETATM   20  C   UNL     1      -8.936  11.893  64.623  1.00  0.00     0.590 C  
BRANCH  20  21
HETATM   21  O   UNL     1      -9.690  12.929  63.954  1.00  0.00    -0.152 OA 
BRANCH  21  22
HETATM   22  C   UNL     1     -11.038  12.768  63.985  1.00  0.00    -0.414 C  
HETATM   23  O   UNL     1     -11.754  12.619  62.996  1.00  0.00    -0.352 OA 
BRANCH  22  24
HETATM   24  C   UNL     1     -11.559  12.803  65.395  1.00  0.00    -0.393 C  
BRANCH  24  25
HETATM   25  C   UNL     1     -11.933  11.390  65.814  1.00  0.00     0.847 C  
BRANCH  25  26
HETATM   26  C   UNL     1     -11.104  10.915  67.001  1.00  0.00    -0.271 C  
BRANCH  26  27
HETATM   27  C   UNL     1     -10.801   9.434  66.826  1.00  0.00    -0.012 C  
BRANCH  27  28
HETATM   28  C   UNL     1      -9.329   9.165  66.534  1.00  0.00    -0.244 C  
BRANCH  28  29
HETATM   29  C   UNL     1      -8.493   9.163  67.816  1.00  0.00    -0.117 C  
BRANCH  29  30
HETATM   30  C   UNL     1      -7.123   9.832  67.681  1.00  0.00    -0.088 C  
BRANCH  30  31
HETATM   31  C   UNL     1      -6.738  10.624  68.901  1.00  0.00    -0.062 C  
HETATM   32  C   UNL     1      -5.927  10.178  69.874  1.00  0.00    -0.052 C  
BRANCH  32  33
HETATM   33  C   UNL     1      -5.287   8.829  69.821  1.00  0.00    -0.030 C  
BRANCH  33  34
HETATM   34  C   UNL     1      -6.194   7.762  69.236  1.00  0.00    -0.035 C  
BRANCH  34  35
HETATM   35  C   UNL     1      -6.309   6.612  70.229  1.00  0.00    -0.039 C  
BRANCH  35  36
HETATM   36  C   UNL     1      -5.902   5.300  69.582  1.00  0.00    -0.017 C  
BRANCH  36  37
HETATM   37  C   UNL     1      -5.795   4.194  70.625  1.00  0.00    -0.014 C  
BRANCH  37  38
HETATM   38  C   UNL     1      -7.079   4.115  71.440  1.00  0.00    -0.039 C  
BRANCH  38  39
HETATM   39  C   UNL     1      -6.805   3.663  72.869  1.00  0.00    -0.039 C  
HETATM   40  C   UNL     1      -8.047   3.817  73.729  1.00  0.00    -0.087 C  
ENDBRANCH  38  39
ENDBRANCH  37  38
ENDBRANCH  36  37
ENDBRANCH  35  36
ENDBRANCH  34  35
ENDBRANCH  33  34
ENDBRANCH  32  33
ENDBRANCH  30  31
ENDBRANCH  29  30
ENDBRANCH  28  29
ENDBRANCH  27  28
ENDBRANCH  26  27
ENDBRANCH  25  26
ENDBRANCH  24  25
ENDBRANCH  22  24
ENDBRANCH  21  22
ENDBRANCH  20  21
BRANCH  20  41
HETATM   41  C   UNL     1      -7.596  11.706  63.902  1.00  0.00     2.322 C  
BRANCH  41  42
HETATM   42  O   UNL     1      -7.740  11.063  62.638  1.00  0.00    -0.040 OA 
BRANCH  42  43
HETATM   43  P   UNL     1      -7.920   9.350  62.792  1.00  0.00    -0.150 P  
HETATM   44  O   UNL     1      -6.657   9.487  63.789  1.00  0.00    -0.097 OA 
HETATM   45  O   UNL     1      -9.200   9.552  63.598  1.00  0.00    -0.206 OA 
BRANCH  43  46
HETATM   46  O   UNL     1      -8.099   7.637  62.947  1.00  0.00    -0.142 OA 
BRANCH  46  47
HETATM   47  C   UNL     1      -7.220   6.965  63.889  1.00  0.00    -0.066 C  
BRANCH  47  48
HETATM   48  C   UNL     1      -7.596   5.519  64.385  1.00  0.00    -0.074 C  
HETATM   49  O   UNL     1      -7.336   4.499  63.418  1.00  0.00    -0.051 OA 
HETATM   50  H   UNL     1      -7.563   3.626  63.717  1.00  0.00     0.000 HD 
BRANCH  48  51
HETATM   51  C   UNL     1      -6.842   5.148  65.678  1.00  0.00    -0.061 C  
HETATM   52  H   UNL     1      -6.901   3.731  67.082  1.00  0.00     0.000 HD 
HETATM   53  O   UNL     1      -7.365   3.959  66.286  1.00  0.00    -0.073 OA 
ENDBRANCH  48  51
ENDBRANCH  47  48
ENDBRANCH  46  47
ENDBRANCH  43  46
ENDBRANCH  42  43
ENDBRANCH  41  42
ENDBRANCH  20  41
ENDBRANCH  19  20
ENDBRANCH  18  19
ENDBRANCH  16  18
ENDBRANCH  15  16
ENDBRANCH  14  15
ENDBRANCH  13  14
ENDBRANCH  12  13
ENDBRANCH  11  12
ENDBRANCH  10  11
ENDBRANCH   9  10
ENDBRANCH   8   9
ENDBRANCH   7   8
ENDBRANCH   6   7
ENDBRANCH   5   6
ENDBRANCH   4   5
ENDBRANCH   3   4
ENDBRANCH   2   3
TORSDOF 41
ENDMDL
MODEL       19
REMARK 921   NORMALIZED FREE ENERGY PREDICTED BY IDOCK:    4.46 KCAL/MOL
REMARK 922        TOTAL FREE ENERGY PREDICTED BY IDOCK:    7.93 KCAL/MOL
REMARK 923 INTER-LIGAND FREE ENERGY PREDICTED BY IDOCK:    4.00 KCAL/MOL
REMARK 924 INTRA-LIGAND FREE ENERGY PREDICTED BY IDOCK:    3.93 KCAL/MOL
REMARK 927      BINDING AFFINITY PREDICTED BY RF-SCORE:    0.00 PKD
ROOT
HETATM    1  C   UNL     1     -13.083  13.700  67.719  1.00  0.00     2.689 C  
HETATM    2  C   UNL     1     -12.330  13.244  66.481  1.00  0.00    -0.311 C  
ENDROOT
BRANCH   2   3
HETATM    3  C   UNL     1     -12.055  11.744  66.526  1.00  0.00     0.467 C  
BRANCH   3   4
HETATM    4  C   UNL     1     -11.888  11.172  65.120  1.00  0.00     0.820 C  
BRANCH   4   5
HETATM    5  C   UNL     1     -10.583  11.653  64.492  1.00  0.00    -0.373 C  
BRANCH   5   6
HETATM    6  C   UNL     1      -9.681  10.475  64.141  1.00  0.00    -0.388 C  
BRANCH   6   7
HETATM    7  C   UNL     1      -9.884  10.056  62.689  1.00  0.00     0.253 C  
BRANCH   7   8
HETATM    8  C   UNL     1      -8.977   8.885  62.331  1.00  0.00    -0.032 C  
BRANCH   8   9
HETATM    9  C   UNL     1      -8.111   8.494  63.522  1.00  0.00    -0.155 C  
BRANCH   9  10
HETATM   10  C   UNL     1      -7.711   7.026  63.435  1.00  0.00    -0.118 C  
BRANCH  10  11
HETATM   11  C   UNL     1      -7.232   6.515  64.791  1.00  0.00    -0.067 C  
BRANCH  11  12
HETATM   12  C   UNL     1      -6.517   7.621  65.556  1.00  0.00    -0.042 C  
BRANCH  12  13
HETATM   13  C   UNL     1      -7.409   8.214  66.643  1.00  0.00    -0.082 C  
BRANCH  13  14
HETATM   14  C   UNL     1      -7.177   7.483  67.961  1.00  0.00    -0.090 C  
BRANCH  14  15
HETATM   15  C   UNL     1      -7.483   8.362  69.168  1.00  0.00    -0.089 C  
BRANCH  15  16
HETATM   16  C   UNL     1      -6.329   9.295  69.430  1.00  0.00    -0.044 C  
HETATM   17  O   UNL     1      -5.309   8.995  70.032  1.00  0.00    -0.028 OA 
BRANCH  16  18
HETATM   18  O   UNL     1      -6.579  10.523  68.892  1.00  0.00    -0.051 OA 
BRANCH  18  19
HETATM   19  C   UNL     1      -6.919  11.528  69.858  1.00  0.00     0.192 C  
BRANCH  19  20
HETATM   20  C   UNL     1      -7.201  12.894  69.211  1.00  0.00     0.172 C  
BRANCH  20  21
HETATM   21  O   UNL     1      -8.620  13.146  69.311  1.00  0.00     0.532 OA 
BRANCH  21  22
HETATM   22  C   UNL     1      -9.390  12.452  68.434  1.00  0.00    -0.158 C  
HETATM   23  O   UNL     1      -9.253  12.464  67.212  1.00  0.00    -0.176 OA 
BRANCH  22  24
HETATM   24  C   UNL     1     -10.452  11.661  69.148  1.00  0.00    -0.099 C  
BRANCH  24  25
HETATM   25  C   UNL     1     -11.742  12.465  69.150  1.00  0.00    -0.376 C  
BRANCH  25  26
HETATM   26  C   UNL     1     -11.706  13.589  70.178  1.00  0.00    -0.280 C  
BRANCH  26  27
HETATM   27  C   UNL     1     -11.886  12.991  71.565  1.00  0.00     1.177 C  
BRANCH  27  28
HETATM   28  C   UNL     1     -13.346  12.952  72.005  1.00  0.00    -0.579 C  
BRANCH  28  29
HETATM   29  C   UNL     1     -13.673  14.094  72.969  1.00  0.00     0.010 C  
BRANCH  29  30
HETATM   30  C   UNL     1     -13.515  15.495  72.370  1.00  0.00    -0.606 C  
BRANCH  30  31
HETATM   31  C   UNL     1     -12.412  16.286  73.020  1.00  0.00    -0.533 C  
HETATM   32  C   UNL     1     -11.543  17.067  72.359  1.00  0.00     0.557 C  
BRANCH  32  33
HETATM   33  C   UNL     1     -11.610  17.256  70.878  1.00  0.00     1.915 C  
BRANCH  33  34
HETATM   34  C   UNL     1     -10.816  16.216  70.108  1.00  0.00    -0.328 C  
BRANCH  34  35
HETATM   35  C   UNL     1      -9.913  16.926  69.107  1.00  0.00    -0.239 C  
BRANCH  35  36
HETATM   36  C   UNL     1      -8.745  17.592  69.815  1.00  0.00     1.314 C  
BRANCH  36  37
HETATM   37  C   UNL     1      -8.034  18.567  68.883  1.00  0.00    -0.232 C  
BRANCH  37  38
HETATM   38  C   UNL     1      -8.744  19.915  68.894  1.00  0.00    -0.038 C  
BRANCH  38  39
HETATM   39  C   UNL     1      -8.845  20.502  67.492  1.00  0.00    -0.352 C  
HETATM   40  C   UNL     1     -10.253  20.349  66.945  1.00  0.00    -0.417 C  
ENDBRANCH  38  39
ENDBRANCH  37  38
ENDBRANCH  36  37
ENDBRANCH  35  36
ENDBRANCH  34  35
ENDBRANCH  33  34
ENDBRANCH  32  33
ENDBRANCH  30  31
ENDBRANCH  29  30
ENDBRANCH  28  29
ENDBRANCH  27  28
ENDBRANCH  26  27
ENDBRANCH  25  26
ENDBRANCH  24  25
ENDBRANCH  22  24
ENDBRANCH  21  22
ENDBRANCH  20  21
BRANCH  20  41
HETATM   41  C   UNL     1      -6.441  14.031  69.903  1.00  0.00    -0.098 C  
BRANCH  41  42
HETATM   42  O   UNL     1      -6.213  15.142  69.040  1.00  0.00    -0.095 OA 
BRANCH  42  43
HETATM   43  P   UNL     1      -7.060  14.990  67.540  1.00  0.00    -0.121 P  
HETATM   44  O   UNL     1      -6.590  16.520  67.326  1.00  0.00    -0.146 OA 
HETATM   45  O   UNL     1      -5.966  14.067  67.011  1.00  0.00     0.025 OA 
BRANCH  43  46
HETATM   46  O   UNL     1      -7.906  14.839  66.039  1.00  0.00     1.211 OA 
BRANCH  46  47
HETATM   47  C   UNL     1      -8.871  15.878  65.720  1.00  0.00     0.068 C  
BRANCH  47  48
HETATM   48  C   UNL     1     -10.034  15.553  64.709  1.00  0.00     0.452 C  
HETATM   49  O   UNL     1     -10.586  14.245  64.876  1.00  0.00    -0.393 OA 
HETATM   50  H   UNL     1     -11.287  14.050  64.266  1.00  0.00     0.000 HD 
BRANCH  48  51
HETATM   51  C   UNL     1     -11.186  16.572  64.824  1.00  0.00    -0.143 C  
HETATM   52  H   UNL     1     -11.420  18.551  64.913  1.00  0.00     0.000 HD 
HETATM   53  O   UNL     1     -10.710  17.924  64.842  1.00  0.00    -0.574 OA 
ENDBRANCH  48  51
ENDBRANCH  47  48
ENDBRANCH  46  47
ENDBRANCH  43  46
ENDBRANCH  42  43
ENDBRANCH  41  42
ENDBRANCH  20  41
ENDBRANCH  19  20
ENDBRANCH  18  19
ENDBRANCH  16  18
ENDBRANCH  15  16
ENDBRANCH  14  15
ENDBRANCH  13  14
ENDBRANCH  12  13
ENDBRANCH  11  12
ENDBRANCH  10  11
ENDBRANCH   9  10
ENDBRANCH   8   9
ENDBRANCH   7   8
ENDBRANCH   6   7
ENDBRANCH   5   6
ENDBRANCH   4   5
ENDBRANCH   3   4
ENDBRANCH   2   3
TORSDOF 41
ENDMDL
MODEL       20
REMARK 921   NORMALIZED FREE ENERGY PREDICTED BY IDOCK:    5.18 KCAL/MOL
REMARK 922        TOTAL FREE ENERGY PREDICTED BY IDOCK:   10.35 KCAL/MOL
REMARK 923 INTER-LIGAND FREE ENERGY PREDICTED BY IDOCK:    8.72 KCAL/MOL
REMARK 924 INTRA-LIGAND FREE ENERGY PREDICTED BY IDOCK:    1.63 KCAL/MOL
REMARK 927      BINDING AFFINITY PREDICTED BY RF-SCORE:    0.00 PKD
ROOT
HETATM    1  C   UNL     1     -12.674  17.069  66.915  1.00  0.00     5.434 C  
HETATM    2  C   UNL     1     -11.172  17.196  67.101  1.00  0.00     0.346 C  
ENDROOT
BRANCH   2   3
HETATM    3  C   UNL     1     -10.532  15.833  67.348  1.00  0.00    -0.297 C  
BRANCH   3   4
HETATM    4  C   UNL     1      -9.501  15.903  68.471  1.00  0.00    -0.209 C  
BRANCH   4   5
HETATM    5  C   UNL     1      -8.200  15.221  68.056  1.00  0.00    -0.143 C  
BRANCH   5   6
HETATM    6  C   UNL     1      -7.717  14.263  69.139  1.00  0.00    -0.011 C  
BRANCH   6   7
HETATM    7  C   UNL     1      -7.324  15.029  70.398  1.00  0.00     0.482 C  
BRANCH   7   8
HETATM    8  C   UNL     1      -5.854  14.804  70.732  1.00  0.00    -0.131 C  
BRANCH   8   9
HETATM    9  C   UNL     1      -5.581  13.326  70.980  1.00  0.00    -0.189 C  
BRANCH   9  10
HETATM   10  C   UNL     1      -6.152  12.893  72.325  1.00  0.00     2.082 C  
BRANCH  10  11
HETATM   11  C   UNL     1      -6.136  11.374  72.457  1.00  0.00     2.745 C  
BRANCH  11  12
HETATM   12  C   UNL     1      -5.137  10.764  71.482  1.00  0.00    -0.064 C  
BRANCH  12  13
HETATM   13  C   UNL     1      -5.568   9.369  71.039  1.00  0.00    -0.056 C  
BRANCH  13  14
HETATM   14  C   UNL     1      -6.924   9.027  71.647  1.00  0.00    -0.011 C  
BRANCH  14  15
HETATM   15  C   UNL     1      -7.887   8.447  70.619  1.00  0.00    -0.092 C  
BRANCH  15  16
HETATM   16  C   UNL     1      -8.805   9.528  70.108  1.00  0.00    -0.235 C  
HETATM   17  O   UNL     1      -8.527  10.718  70.062  1.00  0.00     0.366 OA 
BRANCH  16  18
HETATM   18  O   UNL     1      -9.989   8.991  69.695  1.00  0.00    -0.181 OA 
BRANCH  18  19
HETATM   19  C   UNL     1     -10.077   8.790  68.277  1.00  0.00    -0.188 C  
BRANCH  19  20
HETATM   20  C   UNL     1     -10.573   7.380  67.914  1.00  0.00    -0.190 C  
BRANCH  20  21
HETATM   21  O   UNL     1      -9.522   6.445  68.244  1.00  0.00    -0.123 OA 
BRANCH  21  22
HETATM   22  C   UNL     1      -9.008   5.762  67.189  1.00  0.00    -0.113 C  
HETATM   23  O   UNL     1      -7.900   5.960  66.693  1.00  0.00    -0.099 OA 
BRANCH  22  24
HETATM   24  C   UNL     1      -9.975   4.726  66.687  1.00  0.00    -0.259 C  
BRANCH  24  25
HETATM   25  C   UNL     1     -10.471   3.907  67.867  1.00  0.00     1.225 C  
BRANCH  25  26
HETATM   26  C   UNL     1      -9.358   3.068  68.481  1.00  0.00    -0.243 C  
BRANCH  26  27
HETATM   27  C   UNL     1      -9.354   1.697  67.819  1.00  0.00    -0.165 C  
BRANCH  27  28
HETATM   28  C   UNL     1      -9.374   1.780  66.296  1.00  0.00     0.130 C  
BRANCH  28  29
HETATM   29  C   UNL     1      -8.620   3.012  65.790  1.00  0.00    -0.116 C  
BRANCH  29  30
HETATM   30  C   UNL     1      -7.136   2.773  65.500  1.00  0.00    -0.061 C  
BRANCH  30  31
HETATM   31  C   UNL     1      -6.902   1.595  64.593  1.00  0.00    -0.034 C  
HETATM   32  C   UNL     1      -6.471   1.685  63.325  1.00  0.00    -0.014 C  
BRANCH  32  33
HETATM   33  C   UNL     1      -6.141   2.994  62.686  1.00  0.00    -0.013 C  
BRANCH  33  34
HETATM   34  C   UNL     1      -5.786   4.075  63.692  1.00  0.00    -0.014 C  
BRANCH  34  35
HETATM   35  C   UNL     1      -6.797   5.209  63.577  1.00  0.00    -0.042 C  
BRANCH  35  36
HETATM   36  C   UNL     1      -6.102   6.558  63.657  1.00  0.00    -0.034 C  
BRANCH  36  37
HETATM   37  C   UNL     1      -7.112   7.671  63.912  1.00  0.00    -0.066 C  
BRANCH  37  38
HETATM   38  C   UNL     1      -7.044   8.707  62.797  1.00  0.00    -0.090 C  
BRANCH  38  39
HETATM   39  C   UNL     1      -8.427   9.246  62.453  1.00  0.00    -0.207 C  
HETATM   40  C   UNL     1      -8.758  10.459  63.304  1.00  0.00    -0.201 C  
ENDBRANCH  38  39
ENDBRANCH  37  38
ENDBRANCH  36  37
ENDBRANCH  35  36
ENDBRANCH  34  35
ENDBRANCH  33  34
ENDBRANCH  32  33
ENDBRANCH  30  31
ENDBRANCH  29  30
ENDBRANCH  28  29
ENDBRANCH  27  28
ENDBRANCH  26  27
ENDBRANCH  25  26
ENDBRANCH  24  25
ENDBRANCH  22  24
ENDBRANCH  21  22
ENDBRANCH  20  21
BRANCH  20  41
HETATM   41  C   UNL     1     -11.843   6.997  68.682  1.00  0.00     1.155 C  
BRANCH  41  42
HETATM   42  O   UNL     1     -11.651   5.864  69.525  1.00  0.00    -0.155 OA 
BRANCH  42  43
HETATM   43  P   UNL     1     -10.951   6.291  71.048  1.00  0.00    -0.298 P  
HETATM   44  O   UNL     1     -12.365   7.036  71.285  1.00  0.00    -0.349 OA 
HETATM   45  O   UNL     1     -11.080   4.845  71.517  1.00  0.00     0.104 OA 
BRANCH  43  46
HETATM   46  O   UNL     1     -10.253   6.717  72.572  1.00  0.00    -0.175 OA 
BRANCH  46  47
HETATM   47  C   UNL     1      -9.589   5.657  73.311  1.00  0.00    -0.146 C  
BRANCH  47  48
HETATM   48  C   UNL     1      -8.045   5.431  73.099  1.00  0.00    -0.112 C  
HETATM   49  O   UNL     1      -7.229   6.232  73.957  1.00  0.00    -0.086 OA 
HETATM   50  H   UNL     1      -6.298   6.096  73.829  1.00  0.00     0.000 HD 
BRANCH  48  51
HETATM   51  C   UNL     1      -7.652   3.956  73.313  1.00  0.00    -0.074 C  
HETATM   52  H   UNL     1      -8.169   2.161  72.610  1.00  0.00     0.000 HD 
HETATM   53  O   UNL     1      -8.410   3.069  72.478  1.00  0.00    -0.069 OA 
ENDBRANCH  48  51
ENDBRANCH  47  48
ENDBRANCH  46  47
ENDBRANCH  43  46
ENDBRANCH  42  43
ENDBRANCH  41  42
ENDBRANCH  20  41
ENDBRANCH  19  20
ENDBRANCH  18  19
ENDBRANCH  16  18
ENDBRANCH  15  16
ENDBRANCH  14  15
ENDBRANCH  13  14
ENDBRANCH  12  13
ENDBRANCH  11  12
ENDBRANCH  10  11
ENDBRANCH   9  10
ENDBRANCH   8   9
ENDBRANCH   7   8
ENDBRANCH   6   7
ENDBRANCH   5   6
ENDBRANCH   4   5
ENDBRANCH   3   4
ENDBRANCH   2   3
TORSDOF 41
ENDMDL
MODEL       21
REMARK 921   NORMALIZED FREE ENERGY PREDICTED BY IDOCK:    6.24 KCAL/MOL
REMARK 922        TOTAL FREE ENERGY PREDICTED BY IDOCK:   13.95 KCAL/MOL
REMARK 923 INTER-LIGAND FREE ENERGY PREDICTED BY IDOCK:    1.02 KCAL/MOL
REMARK 924 INTRA-LIGAND FREE ENERGY PREDICTED BY IDOCK:   12.94 KCAL/MOL
REMARK 927      BINDING AFFINITY PREDICTED BY RF-SCORE:    0.00 PKD
ROOT
HETATM    1  C   UNL     1     -11.676  16.351  66.448  1.00  0.00     1.198 C  
HETATM    2  C   UNL     1     -11.525  17.522  67.404  1.00  0.00     0.824 C  
ENDROOT
BRANCH   2   3
HETATM    3  C   UNL     1     -10.054  17.822  67.676  1.00  0.00    -0.342 C  
BRANCH   3   4
HETATM    4  C   UNL     1      -9.888  18.669  68.936  1.00  0.00    -0.394 C  
BRANCH   4   5
HETATM    5  C   UNL     1     -10.338  17.894  70.172  1.00  0.00     1.115 C  
BRANCH   5   6
HETATM    6  C   UNL     1     -11.360  16.825  69.803  1.00  0.00     0.252 C  
BRANCH   6   7
HETATM    7  C   UNL     1     -10.724  15.439  69.839  1.00  0.00    -0.315 C  
BRANCH   7   8
HETATM    8  C   UNL     1      -9.205  15.538  69.766  1.00  0.00    -0.101 C  
BRANCH   8   9
HETATM    9  C   UNL     1      -8.556  14.404  70.549  1.00  0.00     2.363 C  
BRANCH   9  10
HETATM   10  C   UNL     1      -7.072  14.679  70.761  1.00  0.00     0.769 C  
BRANCH  10  11
HETATM   11  C   UNL     1      -6.428  15.196  69.478  1.00  0.00    -0.151 C  
BRANCH  11  12
HETATM   12  C   UNL     1      -6.181  14.050  68.506  1.00  0.00    -0.093 C  
BRANCH  12  13
HETATM   13  C   UNL     1      -6.493  12.699  69.143  1.00  0.00    -0.106 C  
BRANCH  13  14
HETATM   14  C   UNL     1      -6.695  11.647  68.058  1.00  0.00    -0.064 C  
BRANCH  14  15
HETATM   15  C   UNL     1      -7.037  12.270  66.710  1.00  0.00     0.165 C  
BRANCH  15  16
HETATM   16  C   UNL     1      -7.647  13.633  66.913  1.00  0.00     0.462 C  
HETATM   17  O   UNL     1      -7.039  14.690  66.836  1.00  0.00     0.004 OA 
BRANCH  16  18
HETATM   18  O   UNL     1      -8.978  13.522  67.188  1.00  0.00    -0.210 OA 
BRANCH  18  19
HETATM   19  C   UNL     1      -9.328  12.342  67.927  1.00  0.00    -0.190 C  
BRANCH  19  20
HETATM   20  C   UNL     1      -8.870  11.053  67.224  1.00  0.00    -0.135 C  
BRANCH  20  21
HETATM   21  O   UNL     1      -8.902   9.985  68.197  1.00  0.00    -0.121 OA 
BRANCH  21  22
HETATM   22  C   UNL     1     -10.128   9.717  68.715  1.00  0.00    -0.174 C  
HETATM   23  O   UNL     1     -11.163  10.318  68.427  1.00  0.00    -0.265 OA 
BRANCH  22  24
HETATM   24  C   UNL     1     -10.067   8.587  69.705  1.00  0.00    -0.202 C  
BRANCH  24  25
HETATM   25  C   UNL     1      -9.752   9.156  71.079  1.00  0.00    -0.359 C  
BRANCH  25  26
HETATM   26  C   UNL     1      -8.573   8.442  71.729  1.00  0.00    -0.234 C  
BRANCH  26  27
HETATM   27  C   UNL     1      -8.501   7.021  71.190  1.00  0.00    -0.119 C  
BRANCH  27  28
HETATM   28  C   UNL     1      -8.992   5.985  72.196  1.00  0.00    -0.142 C  
BRANCH  28  29
HETATM   29  C   UNL     1      -9.384   6.634  73.526  1.00  0.00    -0.165 C  
BRANCH  29  30
HETATM   30  C   UNL     1     -10.250   5.754  74.430  1.00  0.00    -0.296 C  
BRANCH  30  31
HETATM   31  C   UNL     1     -10.674   4.473  73.764  1.00  0.00    -0.348 C  
HETATM   32  C   UNL     1      -9.965   3.332  73.787  1.00  0.00    -0.168 C  
BRANCH  32  33
HETATM   33  C   UNL     1      -8.670   3.214  74.522  1.00  0.00    -0.080 C  
BRANCH  33  34
HETATM   34  C   UNL     1      -7.464   3.176  73.601  1.00  0.00    -0.056 C  
BRANCH  34  35
HETATM   35  C   UNL     1      -7.939   2.925  72.175  1.00  0.00    -0.055 C  
BRANCH  35  36
HETATM   36  C   UNL     1      -7.566   1.522  71.724  1.00  0.00    -0.040 C  
BRANCH  36  37
HETATM   37  C   UNL     1      -6.498   1.571  70.637  1.00  0.00    -0.024 C  
BRANCH  37  38
HETATM   38  C   UNL     1      -5.570   2.757  70.868  1.00  0.00    -0.013 C  
BRANCH  38  39
HETATM   39  C   UNL     1      -6.337   4.073  70.871  1.00  0.00    -0.019 C  
HETATM   40  C   UNL     1      -5.440   5.220  70.444  1.00  0.00    -0.004 C  
ENDBRANCH  38  39
ENDBRANCH  37  38
ENDBRANCH  36  37
ENDBRANCH  35  36
ENDBRANCH  34  35
ENDBRANCH  33  34
ENDBRANCH  32  33
ENDBRANCH  30  31
ENDBRANCH  29  30
ENDBRANCH  28  29
ENDBRANCH  27  28
ENDBRANCH  26  27
ENDBRANCH  25  26
ENDBRANCH  24  25
ENDBRANCH  22  24
ENDBRANCH  21  22
ENDBRANCH  20  21
BRANCH  20  41
HETATM   41  C   UNL     1      -9.776  10.683  66.045  1.00  0.00    -0.208 C  
BRANCH  41  42
HETATM   42  O   UNL     1      -9.039  10.347  64.873  1.00  0.00    -0.179 OA 
BRANCH  42  43
HETATM   43  P   UNL     1      -8.597   8.675  64.834  1.00  0.00    -0.019 P  
HETATM   44  O   UNL     1      -8.828   8.836  63.244  1.00  0.00    -0.060 OA 
HETATM   45  O   UNL     1      -7.152   9.044  65.155  1.00  0.00    -0.085 OA 
BRANCH  43  46
HETATM   46  O   UNL     1      -8.155   7.003  64.794  1.00  0.00    -0.128 OA 
BRANCH  46  47
HETATM   47  C   UNL     1      -9.078   6.063  65.406  1.00  0.00     0.105 C  
BRANCH  47  48
HETATM   48  C   UNL     1      -9.528   6.297  66.897  1.00  0.00    -0.138 C  
HETATM   49  O   UNL     1     -10.647   5.497  67.287  1.00  0.00    -0.240 OA 
HETATM   50  H   UNL     1     -10.917   5.639  68.187  1.00  0.00     0.000 HD 
BRANCH  48  51
HETATM   51  C   UNL     1      -8.378   6.019  67.887  1.00  0.00    -0.116 C  
HETATM   52  H   UNL     1      -7.122   4.533  68.330  1.00  0.00     0.000 HD 
HETATM   53  O   UNL     1      -7.830   4.705  67.720  1.00  0.00    -0.085 OA 
ENDBRANCH  48  51
ENDBRANCH  47  48
ENDBRANCH  46  47
ENDBRANCH  43  46
ENDBRANCH  42  43
ENDBRANCH  41  42
ENDBRANCH  20  41
ENDBRANCH  19  20
ENDBRANCH  18  19
ENDBRANCH  16  18
ENDBRANCH  15  16
ENDBRANCH  14  15
ENDBRANCH  13  14
ENDBRANCH  12  13
ENDBRANCH  11  12
ENDBRANCH  10  11
ENDBRANCH   9  10
ENDBRANCH   8   9
ENDBRANCH   7   8
ENDBRANCH   6   7
ENDBRANCH   5   6
ENDBRANCH   4   5
ENDBRANCH   3   4
ENDBRANCH   2   3
TORSDOF 41
ENDMDL
MODEL       22
REMARK 921   NORMALIZED FREE ENERGY PREDICTED BY IDOCK:    6.56 KCAL/MOL
REMARK 922        TOTAL FREE ENERGY PREDICTED BY IDOCK:   15.04 KCAL/MOL
REMARK 923 INTER-LIGAND FREE ENERGY PREDICTED BY IDOCK:   10.65 KCAL/MOL
REMARK 924 INTRA-LIGAND FREE ENERGY PREDICTED BY IDOCK:    4.40 KCAL/MOL
REMARK 927      BINDING AFFINITY PREDICTED BY RF-SCORE:    0.00 PKD
ROOT
HETATM    1  C   UNL     1     -12.681  17.070  66.916  1.00  0.00     5.434 C  
HETATM    2  C   UNL     1     -11.184  17.230  67.121  1.00  0.00     0.370 C  
ENDROOT
BRANCH   2   3
HETATM    3  C   UNL     1     -10.511  15.878  67.335  1.00  0.00    -0.306 C  
BRANCH   3   4
HETATM    4  C   UNL     1      -9.515  15.935  68.491  1.00  0.00    -0.209 C  
BRANCH   4   5
HETATM    5  C   UNL     1      -8.192  15.283  68.099  1.00  0.00    -0.141 C  
BRANCH   5   6
HETATM    6  C   UNL     1      -7.701  14.346  69.196  1.00  0.00    -0.050 C  
BRANCH   6   7
HETATM    7  C   UNL     1      -7.400  15.124  70.473  1.00  0.00     0.684 C  
BRANCH   7   8
HETATM    8  C   UNL     1      -5.941  14.954  70.880  1.00  0.00    -0.013 C  
BRANCH   8   9
HETATM    9  C   UNL     1      -5.625  13.487  71.141  1.00  0.00    -0.207 C  
BRANCH   9  10
HETATM   10  C   UNL     1      -6.275  13.021  72.439  1.00  0.00     2.491 C  
BRANCH  10  11
HETATM   11  C   UNL     1      -6.223  11.500  72.555  1.00  0.00     3.431 C  
BRANCH  11  12
HETATM   12  C   UNL     1      -5.133  10.933  71.654  1.00  0.00    -0.021 C  
BRANCH  12  13
HETATM   13  C   UNL     1      -5.492   9.536  71.155  1.00  0.00    -0.060 C  
BRANCH  13  14
HETATM   14  C   UNL     1      -6.949   9.227  71.479  1.00  0.00     0.070 C  
BRANCH  14  15
HETATM   15  C   UNL     1      -7.696   8.651  70.282  1.00  0.00    -0.083 C  
BRANCH  15  16
HETATM   16  C   UNL     1      -8.448   9.746  69.571  1.00  0.00    -0.170 C  
HETATM   17  O   UNL     1      -8.115  10.922  69.545  1.00  0.00    -0.059 OA 
BRANCH  16  18
HETATM   18  O   UNL     1      -9.552   9.239  68.950  1.00  0.00    -0.152 OA 
BRANCH  18  19
HETATM   19  C   UNL     1      -9.391   9.040  67.538  1.00  0.00    -0.135 C  
BRANCH  19  20
HETATM   20  C   UNL     1      -9.974   7.699  67.064  1.00  0.00    -0.240 C  
BRANCH  20  21
HETATM   21  O   UNL     1      -9.103   6.647  67.537  1.00  0.00    -0.117 OA 
BRANCH  21  22
HETATM   22  C   UNL     1      -8.483   5.933  66.563  1.00  0.00    -0.113 C  
HETATM   23  O   UNL     1      -7.290   6.017  66.277  1.00  0.00    -0.078 OA 
BRANCH  22  24
HETATM   24  C   UNL     1      -9.448   5.019  65.859  1.00  0.00    -0.171 C  
BRANCH  24  25
HETATM   25  C   UNL     1     -10.371   4.393  66.892  1.00  0.00     0.059 C  
BRANCH  25  26
HETATM   26  C   UNL     1      -9.611   3.493  67.858  1.00  0.00    -0.177 C  
BRANCH  26  27
HETATM   27  C   UNL     1      -9.509   2.099  67.254  1.00  0.00     0.022 C  
BRANCH  27  28
HETATM   28  C   UNL     1      -8.939   2.112  65.839  1.00  0.00    -0.106 C  
BRANCH  28  29
HETATM   29  C   UNL     1      -8.060   3.341  65.599  1.00  0.00    -0.090 C  
BRANCH  29  30
HETATM   30  C   UNL     1      -6.596   3.164  66.012  1.00  0.00    -0.040 C  
BRANCH  30  31
HETATM   31  C   UNL     1      -5.955   1.956  65.383  1.00  0.00    -0.018 C  
HETATM   32  C   UNL     1      -5.381   1.944  64.169  1.00  0.00    -0.008 C  
BRANCH  32  33
HETATM   33  C   UNL     1      -5.292   3.169  63.319  1.00  0.00    -0.008 C  
BRANCH  33  34
HETATM   34  C   UNL     1      -5.420   4.457  64.113  1.00  0.00    -0.013 C  
BRANCH  34  35
HETATM   35  C   UNL     1      -6.455   5.351  63.441  1.00  0.00    -0.026 C  
BRANCH  35  36
HETATM   36  C   UNL     1      -5.994   6.799  63.439  1.00  0.00    -0.035 C  
BRANCH  36  37
HETATM   37  C   UNL     1      -7.185   7.744  63.535  1.00  0.00    -0.087 C  
BRANCH  37  38
HETATM   38  C   UNL     1      -6.927   8.807  64.596  1.00  0.00    -0.080 C  
BRANCH  38  39
HETATM   39  C   UNL     1      -6.282  10.049  63.995  1.00  0.00    -0.132 C  
HETATM   40  C   UNL     1      -7.103  10.571  62.829  1.00  0.00    -0.079 C  
ENDBRANCH  38  39
ENDBRANCH  37  38
ENDBRANCH  36  37
ENDBRANCH  35  36
ENDBRANCH  34  35
ENDBRANCH  33  34
ENDBRANCH  32  33
ENDBRANCH  30  31
ENDBRANCH  29  30
ENDBRANCH  28  29
ENDBRANCH  27  28
ENDBRANCH  26  27
ENDBRANCH  25  26
ENDBRANCH  24  25
ENDBRANCH  22  24
ENDBRANCH  21  22
ENDBRANCH  20  21
BRANCH  20  41
HETATM   41  C   UNL     1     -11.388   7.458  67.606  1.00  0.00     0.483 C  
BRANCH  41  42
HETATM   42  O   UNL     1     -11.467   6.302  68.434  1.00  0.00    -0.201 OA 
BRANCH  42  43
HETATM   43  P   UNL     1     -11.162   6.665  70.098  1.00  0.00    -0.386 P  
HETATM   44  O   UNL     1     -12.680   7.216  70.069  1.00  0.00     0.409 OA 
HETATM   45  O   UNL     1     -11.192   5.177  70.432  1.00  0.00     0.245 OA 
BRANCH  43  46
HETATM   46  O   UNL     1     -10.860   7.028  71.761  1.00  0.00    -0.220 OA 
BRANCH  46  47
HETATM   47  C   UNL     1     -11.852   7.835  72.450  1.00  0.00    -0.321 C  
BRANCH  47  48
HETATM   48  C   UNL     1     -11.562   9.365  72.684  1.00  0.00     1.068 C  
HETATM   49  O   UNL     1     -10.316   9.799  72.133  1.00  0.00     0.729 OA 
HETATM   50  H   UNL     1     -10.141  10.723  72.274  1.00  0.00     0.000 HD 
BRANCH  48  51
HETATM   51  C   UNL     1     -12.676  10.252  72.092  1.00  0.00    -0.184 C  
HETATM   52  H   UNL     1     -13.304  10.852  70.295  1.00  0.00     0.000 HD 
HETATM   53  O   UNL     1     -12.618  10.306  70.660  1.00  0.00    -0.313 OA 
ENDBRANCH  48  51
ENDBRANCH  47  48
ENDBRANCH  46  47
ENDBRANCH  43  46
ENDBRANCH  42  43
ENDBRANCH  41  42
ENDBRANCH  20  41
ENDBRANCH  19  20
ENDBRANCH  18  19
ENDBRANCH  16  18
ENDBRANCH  15  16
ENDBRANCH  14  15
ENDBRANCH  13  14
ENDBRANCH  12  13
ENDBRANCH  11  12
ENDBRANCH  10  11
ENDBRANCH   9  10
ENDBRANCH   8   9
ENDBRANCH   7   8
ENDBRANCH   6   7
ENDBRANCH   5   6
ENDBRANCH   4   5
ENDBRANCH   3   4
ENDBRANCH   2   3
TORSDOF 41
ENDMDL
MODEL       23
REMARK 921   NORMALIZED FREE ENERGY PREDICTED BY IDOCK:   10.92 KCAL/MOL
REMARK 922        TOTAL FREE ENERGY PREDICTED BY IDOCK:   29.86 KCAL/MOL
REMARK 923 INTER-LIGAND FREE ENERGY PREDICTED BY IDOCK:    7.32 KCAL/MOL
REMARK 924 INTRA-LIGAND FREE ENERGY PREDICTED BY IDOCK:   22.53 KCAL/MOL
REMARK 927      BINDING AFFINITY PREDICTED BY RF-SCORE:    0.00 PKD
ROOT
HETATM    1  C   UNL     1      -9.470   3.363  70.277  1.00  0.00    -0.247 C  
HETATM    2  C   UNL     1      -9.897   4.210  71.464  1.00  0.00    -0.255 C  
ENDROOT
BRANCH   2   3
HETATM    3  C   UNL     1      -9.854   5.696  71.123  1.00  0.00    -0.229 C  
BRANCH   3   4
HETATM    4  C   UNL     1      -8.707   6.395  71.850  1.00  0.00    -0.134 C  
BRANCH   4   5
HETATM    5  C   UNL     1      -8.997   7.885  72.012  1.00  0.00    -0.189 C  
BRANCH   5   6
HETATM    6  C   UNL     1     -10.492   8.164  71.910  1.00  0.00    -0.312 C  
BRANCH   6   7
HETATM    7  C   UNL     1     -11.250   6.896  71.528  1.00  0.00    -0.290 C  
BRANCH   7   8
HETATM    8  C   UNL     1     -11.719   6.961  70.080  1.00  0.00    -0.261 C  
BRANCH   8   9
HETATM    9  C   UNL     1     -10.537   6.831  69.128  1.00  0.00    -0.261 C  
BRANCH   9  10
HETATM   10  C   UNL     1     -10.969   7.115  67.694  1.00  0.00    -0.226 C  
BRANCH  10  11
HETATM   11  C   UNL     1      -9.861   7.830  66.926  1.00  0.00    -0.305 C  
BRANCH  11  12
HETATM   12  C   UNL     1      -9.087   8.761  67.850  1.00  0.00    -0.145 C  
BRANCH  12  13
HETATM   13  C   UNL     1      -7.868   9.356  67.150  1.00  0.00    -0.098 C  
BRANCH  13  14
HETATM   14  C   UNL     1      -6.922   9.961  68.181  1.00  0.00    -0.076 C  
BRANCH  14  15
HETATM   15  C   UNL     1      -6.522  11.388  67.828  1.00  0.00    -0.065 C  
BRANCH  15  16
HETATM   16  C   UNL     1      -6.641  12.270  69.045  1.00  0.00    -0.100 C  
HETATM   17  O   UNL     1      -5.698  12.761  69.649  1.00  0.00    -0.088 OA 
BRANCH  16  18
HETATM   18  O   UNL     1      -7.952  12.453  69.373  1.00  0.00     0.453 OA 
BRANCH  18  19
HETATM   19  C   UNL     1      -8.777  12.879  68.278  1.00  0.00    -0.168 C  
BRANCH  19  20
HETATM   20  C   UNL     1      -9.532  14.182  68.585  1.00  0.00    -0.163 C  
BRANCH  20  21
HETATM   21  O   UNL     1     -10.813  13.827  69.153  1.00  0.00    -0.237 OA 
BRANCH  21  22
HETATM   22  C   UNL     1     -11.676  14.861  69.317  1.00  0.00    -0.316 C  
HETATM   23  O   UNL     1     -11.604  15.940  68.730  1.00  0.00    -0.373 OA 
BRANCH  22  24
HETATM   24  C   UNL     1     -12.742  14.528  70.323  1.00  0.00    -0.325 C  
BRANCH  24  25
HETATM   25  C   UNL     1     -12.965  13.025  70.320  1.00  0.00     0.352 C  
BRANCH  25  26
HETATM   26  C   UNL     1     -12.837  12.437  68.920  1.00  0.00     1.582 C  
BRANCH  26  27
HETATM   27  C   UNL     1     -12.537  13.562  67.941  1.00  0.00     0.602 C  
BRANCH  27  28
HETATM   28  C   UNL     1     -12.403  13.070  66.503  1.00  0.00    -0.175 C  
BRANCH  28  29
HETATM   29  C   UNL     1     -13.761  12.682  65.913  1.00  0.00     4.584 C  
BRANCH  29  30
HETATM   30  C   UNL     1     -14.285  13.644  64.844  1.00  0.00     4.536 C  
BRANCH  30  31
HETATM   31  C   UNL     1     -13.266  13.942  63.778  1.00  0.00     1.727 C  
HETATM   32  C   UNL     1     -12.028  13.424  63.741  1.00  0.00    -0.517 C  
BRANCH  32  33
HETATM   33  C   UNL     1     -11.542  12.451  64.764  1.00  0.00    -0.395 C  
BRANCH  33  34
HETATM   34  C   UNL     1     -10.106  12.702  65.191  1.00  0.00    -0.257 C  
BRANCH  34  35
HETATM   35  C   UNL     1      -9.827  14.199  65.127  1.00  0.00    -0.140 C  
BRANCH  35  36
HETATM   36  C   UNL     1     -11.111  14.976  64.897  1.00  0.00    -0.425 C  
BRANCH  36  37
HETATM   37  C   UNL     1     -10.811  16.360  64.333  1.00  0.00     0.383 C  
BRANCH  37  38
HETATM   38  C   UNL     1      -9.840  17.098  65.246  1.00  0.00     0.687 C  
BRANCH  38  39
HETATM   39  C   UNL     1     -10.280  18.539  65.477  1.00  0.00     0.275 C  
HETATM   40  C   UNL     1     -11.436  18.598  66.459  1.00  0.00     1.234 C  
ENDBRANCH  38  39
ENDBRANCH  37  38
ENDBRANCH  36  37
ENDBRANCH  35  36
ENDBRANCH  34  35
ENDBRANCH  33  34
ENDBRANCH  32  33
ENDBRANCH  30  31
ENDBRANCH  29  30
ENDBRANCH  28  29
ENDBRANCH  27  28
ENDBRANCH  26  27
ENDBRANCH  25  26
ENDBRANCH  24  25
ENDBRANCH  22  24
ENDBRANCH  21  22
ENDBRANCH  20  21
BRANCH  20  41
HETATM   41  C   UNL     1      -8.775  15.072  69.577  1.00  0.00    -0.059 C  
BRANCH  41  42
HETATM   42  O   UNL     1      -9.382  16.350  69.740  1.00  0.00     0.052 OA 
BRANCH  42  43
HETATM   43  P   UNL     1      -8.593  17.573  68.805  1.00  0.00    -0.076 P  
HETATM   44  O   UNL     1      -8.846  16.549  67.583  1.00  0.00    -0.190 OA 
HETATM   45  O   UNL     1      -9.817  18.474  68.944  1.00  0.00    -0.377 OA 
BRANCH  43  46
HETATM   46  O   UNL     1      -7.806  18.796  67.869  1.00  0.00    -0.253 OA 
BRANCH  46  47
HETATM   47  C   UNL     1      -7.303  19.954  68.589  1.00  0.00    -0.262 C  
BRANCH  47  48
HETATM   48  C   UNL     1      -6.397  20.992  67.826  1.00  0.00    -0.354 C  
HETATM   49  O   UNL     1      -5.226  21.370  68.555  1.00  0.00    -0.462 OA 
HETATM   50  H   UNL     1      -4.680  21.996  68.094  1.00  0.00     0.000 HD 
BRANCH  48  51
HETATM   51  C   UNL     1      -5.947  20.452  66.454  1.00  0.00    -0.182 C  
HETATM   52  H   UNL     1      -6.360  20.758  64.526  1.00  0.00     0.000 HD 
HETATM   53  O   UNL     1      -6.637  21.091  65.371  1.00  0.00    -0.158 OA 
ENDBRANCH  48  51
ENDBRANCH  47  48
ENDBRANCH  46  47
ENDBRANCH  43  46
ENDBRANCH  42  43
ENDBRANCH  41  42
ENDBRANCH  20  41
ENDBRANCH  19  20
ENDBRANCH  18  19
ENDBRANCH  16  18
ENDBRANCH  15  16
ENDBRANCH  14  15
ENDBRANCH  13  14
ENDBRANCH  12  13
ENDBRANCH  11  12
ENDBRANCH  10  11
ENDBRANCH   9  10
ENDBRANCH   8   9
ENDBRANCH   7   8
ENDBRANCH   6   7
ENDBRANCH   5   6
ENDBRANCH   4   5
ENDBRANCH   3   4
ENDBRANCH   2   3
TORSDOF 41
ENDMDL
MODEL       24
REMARK 921   NORMALIZED FREE ENERGY PREDICTED BY IDOCK:   12.36 KCAL/MOL
REMARK 922        TOTAL FREE ENERGY PREDICTED BY IDOCK:   34.74 KCAL/MOL
REMARK 923 INTER-LIGAND FREE ENERGY PREDICTED BY IDOCK:   12.24 KCAL/MOL
REMARK 924 INTRA-LIGAND FREE ENERGY PREDICTED BY IDOCK:   22.49 KCAL/MOL
REMARK 927      BINDING AFFINITY PREDICTED BY RF-SCORE:    0.00 PKD
ROOT
HETATM    1  C   UNL     1     -11.603  17.527  66.705  1.00  0.00     1.604 C  
HETATM    2  C   UNL     1     -10.145  17.729  67.081  1.00  0.00    -0.338 C  
ENDROOT
BRANCH   2   3
HETATM    3  C   UNL     1      -9.485  16.404  67.454  1.00  0.00    -0.227 C  
BRANCH   3   4
HETATM    4  C   UNL     1      -8.752  16.511  68.789  1.00  0.00    -0.259 C  
BRANCH   4   5
HETATM    5  C   UNL     1      -7.376  15.854  68.705  1.00  0.00    -0.141 C  
BRANCH   5   6
HETATM    6  C   UNL     1      -7.158  14.896  69.870  1.00  0.00    -0.109 C  
BRANCH   6   7
HETATM    7  C   UNL     1      -7.144  15.653  71.193  1.00  0.00     2.187 C  
BRANCH   7   8
HETATM    8  C   UNL     1      -5.799  15.496  71.894  1.00  0.00     0.837 C  
BRANCH   8   9
HETATM    9  C   UNL     1      -5.508  14.026  72.170  1.00  0.00    -0.213 C  
BRANCH   9  10
HETATM   10  C   UNL     1      -6.413  13.498  73.276  1.00  0.00     2.469 C  
BRANCH  10  11
HETATM   11  C   UNL     1      -6.398  11.973  73.306  1.00  0.00     4.656 C  
BRANCH  11  12
HETATM   12  C   UNL     1      -5.127  11.439  72.659  1.00  0.00     0.388 C  
BRANCH  12  13
HETATM   13  C   UNL     1      -5.375  10.107  71.955  1.00  0.00     0.030 C  
BRANCH  13  14
HETATM   14  C   UNL     1      -6.847   9.726  72.069  1.00  0.00     1.001 C  
BRANCH  14  15
HETATM   15  C   UNL     1      -7.441   9.312  70.728  1.00  0.00    -0.144 C  
BRANCH  15  16
HETATM   16  C   UNL     1      -8.307  10.420  70.186  1.00  0.00     0.416 C  
HETATM   17  O   UNL     1      -8.140  11.611  70.406  1.00  0.00     2.118 OA 
BRANCH  16  18
HETATM   18  O   UNL     1      -9.302   9.908  69.406  1.00  0.00    -0.187 OA 
BRANCH  18  19
HETATM   19  C   UNL     1      -9.064  10.035  67.996  1.00  0.00    -0.131 C  
BRANCH  19  20
HETATM   20  C   UNL     1      -9.322   8.723  67.237  1.00  0.00    -0.147 C  
BRANCH  20  21
HETATM   21  O   UNL     1      -8.157   7.883  67.401  1.00  0.00    -0.119 OA 
BRANCH  21  22
HETATM   22  C   UNL     1      -7.850   7.111  66.327  1.00  0.00    -0.107 C  
HETATM   23  O   UNL     1      -6.721   6.974  65.857  1.00  0.00    -0.050 OA 
BRANCH  22  24
HETATM   24  C   UNL     1      -9.074   6.440  65.769  1.00  0.00    -0.021 C  
BRANCH  24  25
HETATM   25  C   UNL     1     -10.036   6.150  66.910  1.00  0.00    -0.211 C  
BRANCH  25  26
HETATM   26  C   UNL     1      -9.417   5.226  67.950  1.00  0.00    -0.146 C  
BRANCH  26  27
HETATM   27  C   UNL     1      -9.983   3.826  67.762  1.00  0.00     0.130 C  
BRANCH  27  28
HETATM   28  C   UNL     1      -9.886   3.341  66.319  1.00  0.00     0.216 C  
BRANCH  28  29
HETATM   29  C   UNL     1      -8.896   4.182  65.510  1.00  0.00    -0.123 C  
BRANCH  29  30
HETATM   30  C   UNL     1      -7.428   3.976  65.892  1.00  0.00    -0.084 C  
BRANCH  30  31
HETATM   31  C   UNL     1      -7.256   3.054  67.070  1.00  0.00    -0.058 C  
HETATM   32  C   UNL     1      -8.027   1.984  67.318  1.00  0.00    -0.066 C  
BRANCH  32  33
HETATM   33  C   UNL     1      -9.138   1.574  66.407  1.00  0.00    -0.047 C  
BRANCH  33  34
HETATM   34  C   UNL     1      -8.802   1.758  64.938  1.00  0.00    -0.115 C  
BRANCH  34  35
HETATM   35  C   UNL     1     -10.085   1.656  64.121  1.00  0.00     0.022 C  
BRANCH  35  36
HETATM   36  C   UNL     1      -9.784   1.756  62.635  1.00  0.00    -0.089 C  
BRANCH  36  37
HETATM   37  C   UNL     1      -8.281   1.753  62.387  1.00  0.00    -0.060 C  
BRANCH  37  38
HETATM   38  C   UNL     1      -7.717   3.158  62.567  1.00  0.00    -0.058 C  
BRANCH  38  39
HETATM   39  C   UNL     1      -6.198   3.167  62.452  1.00  0.00    -0.014 C  
HETATM   40  C   UNL     1      -5.597   1.970  63.167  1.00  0.00    -0.008 C  
ENDBRANCH  38  39
ENDBRANCH  37  38
ENDBRANCH  36  37
ENDBRANCH  35  36
ENDBRANCH  34  35
ENDBRANCH  33  34
ENDBRANCH  32  33
ENDBRANCH  30  31
ENDBRANCH  29  30
ENDBRANCH  28  29
ENDBRANCH  27  28
ENDBRANCH  26  27
ENDBRANCH  25  26
ENDBRANCH  24  25
ENDBRANCH  22  24
ENDBRANCH  21  22
ENDBRANCH  20  21
BRANCH  20  41
HETATM   41  C   UNL     1     -10.553   7.979  67.766  1.00  0.00    -0.170 C  
BRANCH  41  42
HETATM   42  O   UNL     1     -10.296   7.299  68.991  1.00  0.00    -0.195 OA 
BRANCH  42  43
HETATM   43  P   UNL     1     -11.216   7.946  70.306  1.00  0.00    -0.069 P  
HETATM   44  O   UNL     1     -12.302   8.263  69.154  1.00  0.00     2.332 OA 
HETATM   45  O   UNL     1     -11.463   6.536  70.833  1.00  0.00    -0.312 OA 
BRANCH  43  46
HETATM   46  O   UNL     1     -12.136   8.593  71.620  1.00  0.00    -0.292 OA 
BRANCH  46  47
HETATM   47  C   UNL     1     -12.307  10.036  71.656  1.00  0.00    -0.394 C  
BRANCH  47  48
HETATM   48  C   UNL     1     -12.025  10.870  70.351  1.00  0.00    -0.362 C  
HETATM   49  O   UNL     1     -12.938  10.589  69.287  1.00  0.00    -0.500 OA 
HETATM   50  H   UNL     1     -12.767  11.093  68.500  1.00  0.00     0.000 HD 
BRANCH  48  51
HETATM   51  C   UNL     1     -12.069  12.387  70.626  1.00  0.00    -0.225 C  
HETATM   52  H   UNL     1     -13.028  13.653  71.834  1.00  0.00     0.000 HD 
HETATM   53  O   UNL     1     -13.000  12.719  71.665  1.00  0.00    -0.371 OA 
ENDBRANCH  48  51
ENDBRANCH  47  48
ENDBRANCH  46  47
ENDBRANCH  43  46
ENDBRANCH  42  43
ENDBRANCH  41  42
ENDBRANCH  20  41
ENDBRANCH  19  20
ENDBRANCH  18  19
ENDBRANCH  16  18
ENDBRANCH  15  16
ENDBRANCH  14  15
ENDBRANCH  13  14
ENDBRANCH  12  13
ENDBRANCH  11  12
ENDBRANCH  10  11
ENDBRANCH   9  10
ENDBRANCH   8   9
ENDBRANCH   7   8
ENDBRANCH   6   7
ENDBRANCH   5   6
ENDBRANCH   4   5
ENDBRANCH   3   4
ENDBRANCH   2   3
TORSDOF 41
ENDMDL
MODEL       25
REMARK 921   NORMALIZED FREE ENERGY PREDICTED BY IDOCK:   13.20 KCAL/MOL
REMARK 922        TOTAL FREE ENERGY PREDICTED BY IDOCK:   37.60 KCAL/MOL
REMARK 923 INTER-LIGAND FREE ENERGY PREDICTED BY IDOCK:   19.86 KCAL/MOL
REMARK 924 INTRA-LIGAND FREE ENERGY PREDICTED BY IDOCK:   17.74 KCAL/MOL
REMARK 927      BINDING AFFINITY PREDICTED BY RF-SCORE:    0.00 PKD
ROOT
HETATM    1  C   UNL     1     -12.544  14.448  68.827  1.00  0.00     0.345 C  
HETATM    2  C   UNL     1     -11.847  14.061  67.534  1.00  0.00    -0.442 C  
ENDROOT
BRANCH   2   3
HETATM    3  C   UNL     1     -12.058  12.583  67.217  1.00  0.00    -0.133 C  
BRANCH   3   4
HETATM    4  C   UNL     1     -11.565  12.245  65.812  1.00  0.00    -0.443 C  
BRANCH   4   5
HETATM    5  C   UNL     1     -10.076  12.548  65.673  1.00  0.00    -0.285 C  
BRANCH   5   6
HETATM    6  C   UNL     1      -9.260  11.262  65.620  1.00  0.00    -0.231 C  
BRANCH   6   7
HETATM    7  C   UNL     1      -9.270  10.676  64.211  1.00  0.00    -0.265 C  
BRANCH   7   8
HETATM    8  C   UNL     1      -8.462   9.386  64.155  1.00  0.00    -0.199 C  
BRANCH   8   9
HETATM    9  C   UNL     1      -7.707   9.169  65.460  1.00  0.00    -0.094 C  
BRANCH   9  10
HETATM   10  C   UNL     1      -7.462   7.683  65.697  1.00  0.00    -0.079 C  
BRANCH  10  11
HETATM   11  C   UNL     1      -6.811   7.453  67.058  1.00  0.00    -0.074 C  
BRANCH  11  12
HETATM   12  C   UNL     1      -5.914   8.626  67.427  1.00  0.00    -0.047 C  
BRANCH  12  13
HETATM   13  C   UNL     1      -6.614   9.962  67.188  1.00  0.00    -0.070 C  
BRANCH  13  14
HETATM   14  C   UNL     1      -7.622  10.225  68.301  1.00  0.00    -0.091 C  
BRANCH  14  15
HETATM   15  C   UNL     1      -7.508  11.637  68.860  1.00  0.00    -0.092 C  
BRANCH  15  16
HETATM   16  C   UNL     1      -6.065  11.954  69.161  1.00  0.00    -0.078 C  
HETATM   17  O   UNL     1      -5.350  11.312  69.917  1.00  0.00    -0.053 OA 
BRANCH  16  18
HETATM   18  O   UNL     1      -5.665  13.057  68.465  1.00  0.00    -0.062 OA 
BRANCH  18  19
HETATM   19  C   UNL     1      -5.773  14.285  69.199  1.00  0.00    -0.092 C  
BRANCH  19  20
HETATM   20  C   UNL     1      -6.617  15.337  68.461  1.00  0.00    -0.109 C  
BRANCH  20  21
HETATM   21  O   UNL     1      -7.967  15.258  68.973  1.00  0.00    -0.162 OA 
BRANCH  21  22
HETATM   22  C   UNL     1      -8.682  14.188  68.542  1.00  0.00    -0.166 C  
HETATM   23  O   UNL     1      -8.789  13.836  67.368  1.00  0.00    -0.188 OA 
BRANCH  22  24
HETATM   24  C   UNL     1      -9.345  13.478  69.690  1.00  0.00     1.488 C  
BRANCH  24  25
HETATM   25  C   UNL     1     -10.680  14.147  69.974  1.00  0.00     0.289 C  
BRANCH  25  26
HETATM   26  C   UNL     1     -10.508  15.446  70.751  1.00  0.00     0.038 C  
BRANCH  26  27
HETATM   27  C   UNL     1     -11.157  15.289  72.119  1.00  0.00    -0.109 C  
BRANCH  27  28
HETATM   28  C   UNL     1     -12.642  15.637  72.109  1.00  0.00    -0.504 C  
BRANCH  28  29
HETATM   29  C   UNL     1     -12.994  16.629  73.220  1.00  0.00     0.202 C  
BRANCH  29  30
HETATM   30  C   UNL     1     -12.276  17.977  73.118  1.00  0.00     3.570 C  
BRANCH  30  31
HETATM   31  C   UNL     1     -10.847  17.913  73.585  1.00  0.00     2.844 C  
HETATM   32  C   UNL     1      -9.880  18.761  73.199  1.00  0.00     5.786 C  
BRANCH  32  33
HETATM   33  C   UNL     1     -10.145  19.899  72.268  1.00  0.00     3.315 C  
BRANCH  33  34
HETATM   34  C   UNL     1     -10.467  19.450  70.854  1.00  0.00     2.196 C  
BRANCH  34  35
HETATM   35  C   UNL     1      -9.241  19.669  69.975  1.00  0.00     0.811 C  
BRANCH  35  36
HETATM   36  C   UNL     1      -7.973  19.672  70.812  1.00  0.00     1.844 C  
BRANCH  36  37
HETATM   37  C   UNL     1      -6.857  20.426  70.099  1.00  0.00     0.239 C  
BRANCH  37  38
HETATM   38  C   UNL     1      -7.236  20.669  68.643  1.00  0.00     0.167 C  
BRANCH  38  39
HETATM   39  C   UNL     1      -8.740  20.848  68.482  1.00  0.00     0.992 C  
HETATM   40  C   UNL     1      -9.434  19.501  68.377  1.00  0.00    -0.449 C  
ENDBRANCH  38  39
ENDBRANCH  37  38
ENDBRANCH  36  37
ENDBRANCH  35  36
ENDBRANCH  34  35
ENDBRANCH  33  34
ENDBRANCH  32  33
ENDBRANCH  30  31
ENDBRANCH  29  30
ENDBRANCH  28  29
ENDBRANCH  27  28
ENDBRANCH  26  27
ENDBRANCH  25  26
ENDBRANCH  24  25
ENDBRANCH  22  24
ENDBRANCH  21  22
ENDBRANCH  20  21
BRANCH  20  41
HETATM   41  C   UNL     1      -6.085  16.759  68.672  1.00  0.00    -0.145 C  
BRANCH  41  42
HETATM   42  O   UNL     1      -6.445  17.641  67.613  1.00  0.00    -0.160 OA 
BRANCH  42  43
HETATM   43  P   UNL     1      -7.653  16.962  66.577  1.00  0.00    -0.283 P  
HETATM   44  O   UNL     1      -7.211  18.153  65.580  1.00  0.00    -0.513 OA 
HETATM   45  O   UNL     1      -6.757  15.754  66.317  1.00  0.00     0.466 OA 
BRANCH  43  46
HETATM   46  O   UNL     1      -8.860  16.284  65.541  1.00  0.00    -0.277 OA 
BRANCH  46  47
HETATM   47  C   UNL     1     -10.000  17.125  65.220  1.00  0.00     0.554 C  
BRANCH  47  48
HETATM   48  C   UNL     1     -11.392  16.446  64.932  1.00  0.00    -0.101 C  
HETATM   49  O   UNL     1     -12.266  17.253  64.139  1.00  0.00     1.532 OA 
HETATM   50  H   UNL     1     -13.105  16.843  63.965  1.00  0.00     0.000 HD 
BRANCH  48  51
HETATM   51  C   UNL     1     -11.225  15.088  64.221  1.00  0.00    -0.006 C  
HETATM   52  H   UNL     1     -12.384  13.664  63.440  1.00  0.00     0.000 HD 
HETATM   53  O   UNL     1     -12.487  14.501  63.877  1.00  0.00    -0.814 OA 
ENDBRANCH  48  51
ENDBRANCH  47  48
ENDBRANCH  46  47
ENDBRANCH  43  46
ENDBRANCH  42  43
ENDBRANCH  41  42
ENDBRANCH  20  41
ENDBRANCH  19  20
ENDBRANCH  18  19
ENDBRANCH  16  18
ENDBRANCH  15  16
ENDBRANCH  14  15
ENDBRANCH  13  14
ENDBRANCH  12  13
ENDBRANCH  11  12
ENDBRANCH  10  11
ENDBRANCH   9  10
ENDBRANCH   8   9
ENDBRANCH   7   8
ENDBRANCH   6   7
ENDBRANCH   5   6
ENDBRANCH   4   5
ENDBRANCH   3   4
ENDBRANCH   2   3
TORSDOF 41
ENDMDL
MODEL       26
REMARK 921   NORMALIZED FREE ENERGY PREDICTED BY IDOCK:   13.54 KCAL/MOL
REMARK 922        TOTAL FREE ENERGY PREDICTED BY IDOCK:   38.75 KCAL/MOL
REMARK 923 INTER-LIGAND FREE ENERGY PREDICTED BY IDOCK:   18.21 KCAL/MOL
REMARK 924 INTRA-LIGAND FREE ENERGY PREDICTED BY IDOCK:   20.55 KCAL/MOL
REMARK 927      BINDING AFFINITY PREDICTED BY RF-SCORE:    0.00 PKD
ROOT
HETATM    1  C   UNL     1     -11.470   5.036  73.141  1.00  0.00    -0.362 C  
HETATM    2  C   UNL     1     -12.276   6.155  72.503  1.00  0.00    -0.045 C  
ENDROOT
BRANCH   2   3
HETATM    3  C   UNL     1     -13.109   6.895  73.546  1.00  0.00     3.899 C  
BRANCH   3   4
HETATM    4  C   UNL     1     -12.775   8.384  73.562  1.00  0.00     2.391 C  
BRANCH   4   5
HETATM    5  C   UNL     1     -13.977   9.213  73.117  1.00  0.00     0.477 C  
BRANCH   5   6
HETATM    6  C   UNL     1     -13.622  10.091  71.923  1.00  0.00    -0.354 C  
BRANCH   6   7
HETATM    7  C   UNL     1     -12.290   9.662  71.317  1.00  0.00    -0.449 C  
BRANCH   7   8
HETATM    8  C   UNL     1     -12.089  10.294  69.945  1.00  0.00    -0.178 C  
BRANCH   8   9
HETATM    9  C   UNL     1     -12.855  11.607  69.843  1.00  0.00     0.324 C  
BRANCH   9  10
HETATM   10  C   UNL     1     -13.165  12.157  71.230  1.00  0.00    -0.063 C  
BRANCH  10  11
HETATM   11  C   UNL     1     -12.278  13.357  71.548  1.00  0.00     0.033 C  
BRANCH  11  12
HETATM   12  C   UNL     1     -11.773  14.003  70.264  1.00  0.00    -0.308 C  
BRANCH  12  13
HETATM   13  C   UNL     1     -10.641  14.988  70.541  1.00  0.00    -0.040 C  
BRANCH  13  14
HETATM   14  C   UNL     1      -9.333  14.449  69.974  1.00  0.00     1.084 C  
BRANCH  14  15
HETATM   15  C   UNL     1      -9.447  14.103  68.494  1.00  0.00    -0.202 C  
BRANCH  15  16
HETATM   16  C   UNL     1     -10.610  14.841  67.883  1.00  0.00    -0.248 C  
HETATM   17  O   UNL     1     -10.786  16.049  67.947  1.00  0.00    -0.297 OA 
BRANCH  16  18
HETATM   18  O   UNL     1     -11.439  13.970  67.238  1.00  0.00    -0.314 OA 
BRANCH  18  19
HETATM   19  C   UNL     1     -10.757  12.904  66.560  1.00  0.00    -0.269 C  
BRANCH  19  20
HETATM   20  C   UNL     1     -10.123  13.362  65.236  1.00  0.00    -0.249 C  
BRANCH  20  21
HETATM   21  O   UNL     1     -10.271  14.797  65.149  1.00  0.00    -0.381 OA 
BRANCH  21  22
HETATM   22  C   UNL     1     -11.531  15.229  64.887  1.00  0.00    -0.343 C  
HETATM   23  O   UNL     1     -11.897  15.735  63.827  1.00  0.00    -0.491 OA 
BRANCH  22  24
HETATM   24  C   UNL     1     -12.436  15.020  66.069  1.00  0.00     0.448 C  
BRANCH  24  25
HETATM   25  C   UNL     1     -13.396  13.885  65.755  1.00  0.00     0.486 C  
BRANCH  25  26
HETATM   26  C   UNL     1     -13.191  12.697  66.686  1.00  0.00     3.563 C  
BRANCH  26  27
HETATM   27  C   UNL     1     -13.015  11.439  65.847  1.00  0.00     5.152 C  
BRANCH  27  28
HETATM   28  C   UNL     1     -11.555  11.015  65.722  1.00  0.00     0.659 C  
BRANCH  28  29
HETATM   29  C   UNL     1     -11.047  10.366  67.011  1.00  0.00    -0.141 C  
BRANCH  29  30
HETATM   30  C   UNL     1      -9.734  10.950  67.539  1.00  0.00    -0.187 C  
BRANCH  30  31
HETATM   31  C   UNL     1      -9.604  10.832  69.034  1.00  0.00    -0.193 C  
HETATM   32  C   UNL     1      -9.127   9.754  69.675  1.00  0.00    -0.235 C  
BRANCH  32  33
HETATM   33  C   UNL     1      -8.637   8.546  68.945  1.00  0.00    -0.127 C  
BRANCH  33  34
HETATM   34  C   UNL     1      -9.365   7.274  69.341  1.00  0.00    -0.151 C  
BRANCH  34  35
HETATM   35  C   UNL     1      -8.350   6.268  69.871  1.00  0.00    -0.129 C  
BRANCH  35  36
HETATM   36  C   UNL     1      -9.052   5.060  70.467  1.00  0.00    -0.180 C  
BRANCH  36  37
HETATM   37  C   UNL     1      -8.043   3.983  70.848  1.00  0.00    -0.067 C  
BRANCH  37  38
HETATM   38  C   UNL     1      -6.691   4.284  70.214  1.00  0.00    -0.033 C  
BRANCH  38  39
HETATM   39  C   UNL     1      -5.928   3.004  69.896  1.00  0.00    -0.023 C  
HETATM   40  C   UNL     1      -6.746   2.101  68.990  1.00  0.00    -0.033 C  
ENDBRANCH  38  39
ENDBRANCH  37  38
ENDBRANCH  36  37
ENDBRANCH  35  36
ENDBRANCH  34  35
ENDBRANCH  33  34
ENDBRANCH  32  33
ENDBRANCH  30  31
ENDBRANCH  29  30
ENDBRANCH  28  29
ENDBRANCH  27  28
ENDBRANCH  26  27
ENDBRANCH  25  26
ENDBRANCH  24  25
ENDBRANCH  22  24
ENDBRANCH  21  22
ENDBRANCH  20  21
BRANCH  20  41
HETATM   41  C   UNL     1      -8.634  13.007  65.155  1.00  0.00     2.450 C  
BRANCH  41  42
HETATM   42  O   UNL     1      -8.244  12.578  63.853  1.00  0.00     2.847 OA 
BRANCH  42  43
HETATM   43  P   UNL     1      -7.940  10.877  63.788  1.00  0.00     0.603 P  
HETATM   44  O   UNL     1      -6.939  11.191  65.016  1.00  0.00     0.399 OA 
HETATM   45  O   UNL     1      -9.330  10.602  64.353  1.00  0.00    -0.212 OA 
BRANCH  43  46
HETATM   46  O   UNL     1      -7.635   9.175  63.724  1.00  0.00    -0.107 OA 
BRANCH  46  47
HETATM   47  C   UNL     1      -6.744   8.628  64.733  1.00  0.00    -0.069 C  
BRANCH  47  48
HETATM   48  C   UNL     1      -6.744   7.074  64.989  1.00  0.00    -0.047 C  
HETATM   49  O   UNL     1      -6.005   6.336  64.013  1.00  0.00    -0.022 OA 
HETATM   50  H   UNL     1      -6.005   5.398  64.168  1.00  0.00     0.000 HD 
BRANCH  48  51
HETATM   51  C   UNL     1      -6.174   6.727  66.379  1.00  0.00    -0.044 C  
HETATM   52  H   UNL     1      -5.279   5.187  67.279  1.00  0.00     0.000 HD 
HETATM   53  O   UNL     1      -5.630   5.401  66.423  1.00  0.00    -0.016 OA 
ENDBRANCH  48  51
ENDBRANCH  47  48
ENDBRANCH  46  47
ENDBRANCH  43  46
ENDBRANCH  42  43
ENDBRANCH  41  42
ENDBRANCH  20  41
ENDBRANCH  19  20
ENDBRANCH  18  19
ENDBRANCH  16  18
ENDBRANCH  15  16
ENDBRANCH  14  15
ENDBRANCH  13  14
ENDBRANCH  12  13
ENDBRANCH  11  12
ENDBRANCH  10  11
ENDBRANCH   9  10
ENDBRANCH   8   9
ENDBRANCH   7   8
ENDBRANCH   6   7
ENDBRANCH   5   6
ENDBRANCH   4   5
ENDBRANCH   3   4
ENDBRANCH   2   3
TORSDOF 41
ENDMDL
MODEL       27
REMARK 921   NORMALIZED FREE ENERGY PREDICTED BY IDOCK:   13.75 KCAL/MOL
REMARK 922        TOTAL FREE ENERGY PREDICTED BY IDOCK:   39.49 KCAL/MOL
REMARK 923 INTER-LIGAND FREE ENERGY PREDICTED BY IDOCK:   14.36 KCAL/MOL
REMARK 924 INTRA-LIGAND FREE ENERGY PREDICTED BY IDOCK:   25.13 KCAL/MOL
REMARK 927      BINDING AFFINITY PREDICTED BY RF-SCORE:    0.00 PKD
ROOT
HETATM    1  C   UNL     1     -11.604  17.527  66.705  1.00  0.00     1.604 C  
HETATM    2  C   UNL     1     -10.146  17.730  67.082  1.00  0.00    -0.338 C  
ENDROOT
BRANCH   2   3
HETATM    3  C   UNL     1      -9.483  16.406  67.448  1.00  0.00    -0.227 C  
BRANCH   3   4
HETATM    4  C   UNL     1      -8.750  16.506  68.784  1.00  0.00    -0.259 C  
BRANCH   4   5
HETATM    5  C   UNL     1      -7.376  15.849  68.698  1.00  0.00    -0.141 C  
BRANCH   5   6
HETATM    6  C   UNL     1      -7.158  14.887  69.861  1.00  0.00    -0.109 C  
BRANCH   6   7
HETATM    7  C   UNL     1      -7.118  15.644  71.184  1.00  0.00     2.187 C  
BRANCH   7   8
HETATM    8  C   UNL     1      -5.770  15.463  71.871  1.00  0.00     0.577 C  
BRANCH   8   9
HETATM    9  C   UNL     1      -5.502  13.989  72.147  1.00  0.00    -0.213 C  
BRANCH   9  10
HETATM   10  C   UNL     1      -6.404  13.480  73.265  1.00  0.00     2.002 C  
BRANCH  10  11
HETATM   11  C   UNL     1      -6.411  11.955  73.304  1.00  0.00     4.679 C  
BRANCH  11  12
HETATM   12  C   UNL     1      -5.155  11.399  72.645  1.00  0.00     0.388 C  
BRANCH  12  13
HETATM   13  C   UNL     1      -5.430  10.067  71.952  1.00  0.00     0.058 C  
BRANCH  13  14
HETATM   14  C   UNL     1      -6.898   9.688  72.119  1.00  0.00     0.876 C  
BRANCH  14  15
HETATM   15  C   UNL     1      -7.540   9.275  70.800  1.00  0.00    -0.154 C  
BRANCH  15  16
HETATM   16  C   UNL     1      -8.422  10.384  70.289  1.00  0.00     0.674 C  
HETATM   17  O   UNL     1      -8.254  11.574  70.515  1.00  0.00     2.468 OA 
BRANCH  16  18
HETATM   18  O   UNL     1      -9.434   9.875  69.529  1.00  0.00    -0.196 OA 
BRANCH  18  19
HETATM   19  C   UNL     1      -9.232  10.013  68.115  1.00  0.00    -0.128 C  
BRANCH  19  20
HETATM   20  C   UNL     1      -9.506   8.706  67.353  1.00  0.00    -0.150 C  
BRANCH  20  21
HETATM   21  O   UNL     1      -8.337   7.866  67.483  1.00  0.00    -0.121 OA 
BRANCH  21  22
HETATM   22  C   UNL     1      -8.054   7.103  66.396  1.00  0.00    -0.116 C  
HETATM   23  O   UNL     1      -6.937   6.970  65.898  1.00  0.00    -0.061 OA 
BRANCH  22  24
HETATM   24  C   UNL     1      -9.291   6.435  65.863  1.00  0.00     0.017 C  
BRANCH  24  25
HETATM   25  C   UNL     1     -10.235   6.156  67.021  1.00  0.00    -0.253 C  
BRANCH  25  26
HETATM   26  C   UNL     1      -9.612   5.212  68.043  1.00  0.00    -0.172 C  
BRANCH  26  27
HETATM   27  C   UNL     1     -10.209   3.825  67.858  1.00  0.00     0.655 C  
BRANCH  27  28
HETATM   28  C   UNL     1     -10.058   3.305  66.432  1.00  0.00     0.732 C  
BRANCH  28  29
HETATM   29  C   UNL     1      -8.958   4.052  65.675  1.00  0.00    -0.131 C  
BRANCH  29  30
HETATM   30  C   UNL     1      -7.535   3.707  66.123  1.00  0.00    -0.080 C  
BRANCH  30  31
HETATM   31  C   UNL     1      -7.505   2.778  67.307  1.00  0.00    -0.065 C  
HETATM   32  C   UNL     1      -8.385   1.788  67.521  1.00  0.00    -0.081 C  
BRANCH  32  33
HETATM   33  C   UNL     1      -9.490   1.484  66.561  1.00  0.00     0.224 C  
BRANCH  33  34
HETATM   34  C   UNL     1      -9.073   1.629  65.108  1.00  0.00    -0.113 C  
BRANCH  34  35
HETATM   35  C   UNL     1     -10.185   2.339  64.344  1.00  0.00     0.211 C  
BRANCH  35  36
HETATM   36  C   UNL     1      -9.983   2.195  62.845  1.00  0.00    -0.100 C  
BRANCH  36  37
HETATM   37  C   UNL     1      -8.543   1.807  62.530  1.00  0.00    -0.072 C  
BRANCH  37  38
HETATM   38  C   UNL     1      -7.617   2.993  62.769  1.00  0.00    -0.054 C  
BRANCH  38  39
HETATM   39  C   UNL     1      -6.216   2.535  63.157  1.00  0.00    -0.010 C  
HETATM   40  C   UNL     1      -6.250   1.740  64.450  1.00  0.00    -0.018 C  
ENDBRANCH  38  39
ENDBRANCH  37  38
ENDBRANCH  36  37
ENDBRANCH  35  36
ENDBRANCH  34  35
ENDBRANCH  33  34
ENDBRANCH  32  33
ENDBRANCH  30  31
ENDBRANCH  29  30
ENDBRANCH  28  29
ENDBRANCH  27  28
ENDBRANCH  26  27
ENDBRANCH  25  26
ENDBRANCH  24  25
ENDBRANCH  22  24
ENDBRANCH  21  22
ENDBRANCH  20  21
BRANCH  20  41
HETATM   41  C   UNL     1     -10.723   7.957  67.906  1.00  0.00    -0.079 C  
BRANCH  41  42
HETATM   42  O   UNL     1     -10.436   7.267  69.119  1.00  0.00    -0.207 OA 
BRANCH  42  43
HETATM   43  P   UNL     1     -11.286   7.935  70.469  1.00  0.00    -0.124 P  
HETATM   44  O   UNL     1     -12.409   8.282  69.361  1.00  0.00     1.808 OA 
HETATM   45  O   UNL     1     -11.549   6.530  71.004  1.00  0.00    -0.318 OA 
BRANCH  43  46
HETATM   46  O   UNL     1     -12.138   8.602  71.819  1.00  0.00    -0.298 OA 
BRANCH  46  47
HETATM   47  C   UNL     1     -11.870   8.015  73.121  1.00  0.00     0.388 C  
BRANCH  47  48
HETATM   48  C   UNL     1     -10.646   7.036  73.279  1.00  0.00    -0.344 C  
HETATM   49  O   UNL     1      -9.672   7.491  74.221  1.00  0.00    -0.397 OA 
HETATM   50  H   UNL     1      -8.934   6.900  74.317  1.00  0.00     0.000 HD 
BRANCH  48  51
HETATM   51  C   UNL     1     -11.099   5.626  73.708  1.00  0.00     0.080 C  
HETATM   52  H   UNL     1     -10.347   3.779  73.779  1.00  0.00     0.000 HD 
HETATM   53  O   UNL     1     -10.068   4.647  73.515  1.00  0.00    -0.143 OA 
ENDBRANCH  48  51
ENDBRANCH  47  48
ENDBRANCH  46  47
ENDBRANCH  43  46
ENDBRANCH  42  43
ENDBRANCH  41  42
ENDBRANCH  20  41
ENDBRANCH  19  20
ENDBRANCH  18  19
ENDBRANCH  16  18
ENDBRANCH  15  16
ENDBRANCH  14  15
ENDBRANCH  13  14
ENDBRANCH  12  13
ENDBRANCH  11  12
ENDBRANCH  10  11
ENDBRANCH   9  10
ENDBRANCH   8   9
ENDBRANCH   7   8
ENDBRANCH   6   7
ENDBRANCH   5   6
ENDBRANCH   4   5
ENDBRANCH   3   4
ENDBRANCH   2   3
TORSDOF 41
ENDMDL
MODEL       28
REMARK 921   NORMALIZED FREE ENERGY PREDICTED BY IDOCK:   13.95 KCAL/MOL
REMARK 922        TOTAL FREE ENERGY PREDICTED BY IDOCK:   40.14 KCAL/MOL
REMARK 923 INTER-LIGAND FREE ENERGY PREDICTED BY IDOCK:   11.08 KCAL/MOL
REMARK 924 INTRA-LIGAND FREE ENERGY PREDICTED BY IDOCK:   29.07 KCAL/MOL
REMARK 927      BINDING AFFINITY PREDICTED BY RF-SCORE:    0.00 PKD
ROOT
HETATM    1  C   UNL     1     -11.465   5.034  73.133  1.00  0.00    -0.362 C  
HETATM    2  C   UNL     1     -12.233   6.131  72.416  1.00  0.00    -0.125 C  
ENDROOT
BRANCH   2   3
HETATM    3  C   UNL     1     -13.113   6.912  73.388  1.00  0.00     3.238 C  
BRANCH   3   4
HETATM    4  C   UNL     1     -12.770   8.399  73.369  1.00  0.00     1.772 C  
BRANCH   4   5
HETATM    5  C   UNL     1     -13.918   9.212  72.777  1.00  0.00    -0.240 C  
BRANCH   5   6
HETATM    6  C   UNL     1     -13.442  10.046  71.592  1.00  0.00    -0.398 C  
BRANCH   6   7
HETATM    7  C   UNL     1     -12.037   9.628  71.172  1.00  0.00    -0.448 C  
BRANCH   7   8
HETATM    8  C   UNL     1     -11.694  10.187  69.796  1.00  0.00    -0.205 C  
BRANCH   8   9
HETATM    9  C   UNL     1     -12.505  11.445  69.512  1.00  0.00    -0.100 C  
BRANCH   9  10
HETATM   10  C   UNL     1     -13.031  12.049  70.809  1.00  0.00     0.012 C  
BRANCH  10  11
HETATM   11  C   UNL     1     -12.277  13.329  71.155  1.00  0.00    -0.206 C  
BRANCH  11  12
HETATM   12  C   UNL     1     -11.621  13.915  69.912  1.00  0.00    -0.310 C  
BRANCH  12  13
HETATM   13  C   UNL     1     -10.655  15.042  70.268  1.00  0.00    -0.115 C  
BRANCH  13  14
HETATM   14  C   UNL     1      -9.220  14.597  70.009  1.00  0.00     0.740 C  
BRANCH  14  15
HETATM   15  C   UNL     1      -9.027  14.074  68.590  1.00  0.00    -0.104 C  
BRANCH  15  16
HETATM   16  C   UNL     1     -10.149  14.558  67.708  1.00  0.00    -0.225 C  
HETATM   17  O   UNL     1     -10.494  15.725  67.591  1.00  0.00    -0.269 OA 
BRANCH  16  18
HETATM   18  O   UNL     1     -10.723  13.510  67.049  1.00  0.00    -0.273 OA 
BRANCH  18  19
HETATM   19  C   UNL     1      -9.791  12.506  66.623  1.00  0.00    -0.241 C  
BRANCH  19  20
HETATM   20  C   UNL     1      -9.025  12.916  65.354  1.00  0.00     0.958 C  
BRANCH  20  21
HETATM   21  O   UNL     1      -9.070  14.358  65.259  1.00  0.00     0.627 OA 
BRANCH  21  22
HETATM   22  C   UNL     1     -10.268  14.871  64.879  1.00  0.00    -0.251 C  
HETATM   23  O   UNL     1     -10.493  15.409  63.796  1.00  0.00     1.350 OA 
BRANCH  22  24
HETATM   24  C   UNL     1     -11.299  14.707  65.961  1.00  0.00    -0.344 C  
BRANCH  24  25
HETATM   25  C   UNL     1     -12.267  13.609  65.551  1.00  0.00    -0.476 C  
BRANCH  25  26
HETATM   26  C   UNL     1     -12.205  12.417  66.499  1.00  0.00     0.035 C  
BRANCH  26  27
HETATM   27  C   UNL     1     -11.969  11.154  65.684  1.00  0.00     1.337 C  
BRANCH  27  28
HETATM   28  C   UNL     1     -10.514  10.697  65.715  1.00  0.00    -0.235 C  
BRANCH  28  29
HETATM   29  C   UNL     1     -10.220   9.842  66.950  1.00  0.00    -0.310 C  
BRANCH  29  30
HETATM   30  C   UNL     1      -9.012  10.304  67.769  1.00  0.00    -0.135 C  
BRANCH  30  31
HETATM   31  C   UNL     1      -9.122   9.943  69.226  1.00  0.00    -0.196 C  
HETATM   32  C   UNL     1      -8.719   8.776  69.753  1.00  0.00    -0.133 C  
BRANCH  32  33
HETATM   33  C   UNL     1      -8.075   7.710  68.929  1.00  0.00    -0.127 C  
BRANCH  33  34
HETATM   34  C   UNL     1      -8.385   7.833  67.448  1.00  0.00    -0.123 C  
BRANCH  34  35
HETATM   35  C   UNL     1      -9.037   6.541  66.970  1.00  0.00    -0.133 C  
BRANCH  35  36
HETATM   36  C   UNL     1      -9.547   6.690  65.547  1.00  0.00     0.614 C  
BRANCH  36  37
HETATM   37  C   UNL     1     -10.035   5.352  65.005  1.00  0.00     0.616 C  
BRANCH  37  38
HETATM   38  C   UNL     1      -9.555   4.217  65.901  1.00  0.00    -0.191 C  
BRANCH  38  39
HETATM   39  C   UNL     1      -9.314   2.942  65.103  1.00  0.00    -0.124 C  
HETATM   40  C   UNL     1      -8.319   3.187  63.983  1.00  0.00    -0.090 C  
ENDBRANCH  38  39
ENDBRANCH  37  38
ENDBRANCH  36  37
ENDBRANCH  35  36
ENDBRANCH  34  35
ENDBRANCH  33  34
ENDBRANCH  32  33
ENDBRANCH  30  31
ENDBRANCH  29  30
ENDBRANCH  28  29
ENDBRANCH  27  28
ENDBRANCH  26  27
ENDBRANCH  25  26
ENDBRANCH  24  25
ENDBRANCH  22  24
ENDBRANCH  21  22
ENDBRANCH  20  21
BRANCH  20  41
HETATM   41  C   UNL     1      -7.561  12.463  65.390  1.00  0.00     3.236 C  
BRANCH  41  42
HETATM   42  O   UNL     1      -7.099  12.006  64.122  1.00  0.00     3.402 OA 
BRANCH  42  43
HETATM   43  P   UNL     1      -6.897  10.288  64.079  1.00  0.00     0.080 P  
HETATM   44  O   UNL     1      -5.976  10.545  65.381  1.00  0.00    -0.120 OA 
HETATM   45  O   UNL     1      -8.342  10.103  64.535  1.00  0.00    -0.155 OA 
BRANCH  43  46
HETATM   46  O   UNL     1      -6.695   8.571  64.038  1.00  0.00    -0.075 OA 
BRANCH  46  47
HETATM   47  C   UNL     1      -5.918   7.974  65.111  1.00  0.00    -0.045 C  
BRANCH  47  48
HETATM   48  C   UNL     1      -6.034   6.424  65.365  1.00  0.00    -0.029 C  
HETATM   49  O   UNL     1      -5.270   5.638  64.447  1.00  0.00    -0.009 OA 
HETATM   50  H   UNL     1      -5.340   4.703  64.601  1.00  0.00     0.000 HD 
BRANCH  48  51
HETATM   51  C   UNL     1      -5.593   6.048  66.793  1.00  0.00    -0.013 C  
HETATM   52  H   UNL     1      -4.866   4.459  67.757  1.00  0.00     0.000 HD 
HETATM   53  O   UNL     1      -5.138   4.690  66.877  1.00  0.00    -0.007 OA 
ENDBRANCH  48  51
ENDBRANCH  47  48
ENDBRANCH  46  47
ENDBRANCH  43  46
ENDBRANCH  42  43
ENDBRANCH  41  42
ENDBRANCH  20  41
ENDBRANCH  19  20
ENDBRANCH  18  19
ENDBRANCH  16  18
ENDBRANCH  15  16
ENDBRANCH  14  15
ENDBRANCH  13  14
ENDBRANCH  12  13
ENDBRANCH  11  12
ENDBRANCH  10  11
ENDBRANCH   9  10
ENDBRANCH   8   9
ENDBRANCH   7   8
ENDBRANCH   6   7
ENDBRANCH   5   6
ENDBRANCH   4   5
ENDBRANCH   3   4
ENDBRANCH   2   3
TORSDOF 41
ENDMDL
MODEL       29
REMARK 921   NORMALIZED FREE ENERGY PREDICTED BY IDOCK:   18.07 KCAL/MOL
REMARK 922        TOTAL FREE ENERGY PREDICTED BY IDOCK:   54.14 KCAL/MOL
REMARK 923 INTER-LIGAND FREE ENERGY PREDICTED BY IDOCK:    3.42 KCAL/MOL
REMARK 924 INTRA-LIGAND FREE ENERGY PREDICTED BY IDOCK:   50.72 KCAL/MOL
REMARK 927      BINDING AFFINITY PREDICTED BY RF-SCORE:    0.00 PKD
ROOT
HETATM    1  C   UNL     1      -9.494   3.354  70.297  1.00  0.00    -0.247 C  
HETATM    2  C   UNL     1      -9.991   4.041  71.557  1.00  0.00    -0.220 C  
ENDROOT
BRANCH   2   3
HETATM    3  C   UNL     1     -10.043   5.554  71.374  1.00  0.00    -0.258 C  
BRANCH   3   4
HETATM    4  C   UNL     1      -8.964   6.247  72.203  1.00  0.00    -0.137 C  
BRANCH   4   5
HETATM    5  C   UNL     1      -9.390   7.666  72.570  1.00  0.00    -0.215 C  
BRANCH   5   6
HETATM    6  C   UNL     1     -10.909   7.802  72.548  1.00  0.00    -0.386 C  
BRANCH   6   7
HETATM    7  C   UNL     1     -11.561   6.478  72.164  1.00  0.00    -0.349 C  
BRANCH   7   8
HETATM    8  C   UNL     1     -11.954   6.475  70.691  1.00  0.00    -0.345 C  
BRANCH   8   9
HETATM    9  C   UNL     1     -10.719   6.364  69.807  1.00  0.00    -0.341 C  
BRANCH   9  10
HETATM   10  C   UNL     1     -11.071   6.661  68.354  1.00  0.00    -0.281 C  
BRANCH  10  11
HETATM   11  C   UNL     1      -9.940   7.420  67.667  1.00  0.00    -0.213 C  
BRANCH  11  12
HETATM   12  C   UNL     1      -9.244   8.349  68.653  1.00  0.00    -0.143 C  
BRANCH  12  13
HETATM   13  C   UNL     1      -7.978   8.954  68.053  1.00  0.00    -0.102 C  
BRANCH  13  14
HETATM   14  C   UNL     1      -7.115   9.554  69.158  1.00  0.00    -0.062 C  
BRANCH  14  15
HETATM   15  C   UNL     1      -6.697  10.986  68.848  1.00  0.00    -0.074 C  
BRANCH  15  16
HETATM   16  C   UNL     1      -6.906  11.856  70.061  1.00  0.00     0.394 C  
HETATM   17  O   UNL     1      -6.013  12.387  70.704  1.00  0.00    -0.238 OA 
BRANCH  16  18
HETATM   18  O   UNL     1      -8.237  11.976  70.336  1.00  0.00     2.945 OA 
BRANCH  18  19
HETATM   19  C   UNL     1      -9.063  12.145  69.175  1.00  0.00     0.587 C  
BRANCH  19  20
HETATM   20  C   UNL     1      -9.782  13.504  69.159  1.00  0.00     0.384 C  
BRANCH  20  21
HETATM   21  O   UNL     1     -11.049  13.340  69.835  1.00  0.00     0.022 OA 
BRANCH  21  22
HETATM   22  C   UNL     1     -11.924  14.365  69.671  1.00  0.00    -0.336 C  
HETATM   23  O   UNL     1     -11.855  15.218  68.788  1.00  0.00    -0.338 OA 
BRANCH  22  24
HETATM   24  C   UNL     1     -13.001  14.336  70.721  1.00  0.00    -0.368 C  
BRANCH  24  25
HETATM   25  C   UNL     1     -13.051  12.944  71.331  1.00  0.00    -0.331 C  
BRANCH  25  26
HETATM   26  C   UNL     1     -12.359  11.914  70.448  1.00  0.00    -0.334 C  
BRANCH  26  27
HETATM   27  C   UNL     1     -11.578  12.642  69.364  1.00  0.00    -0.369 C  
BRANCH  27  28
HETATM   28  C   UNL     1     -10.808  11.690  68.454  1.00  0.00    -0.257 C  
BRANCH  28  29
HETATM   29  C   UNL     1     -11.237  10.237  68.669  1.00  0.00    -0.263 C  
BRANCH  29  30
HETATM   30  C   UNL     1     -11.972   9.609  67.482  1.00  0.00     3.212 C  
BRANCH  30  31
HETATM   31  C   UNL     1     -11.238   9.791  66.180  1.00  0.00     1.179 C  
HETATM   32  C   UNL     1     -10.049  10.402  66.055  1.00  0.00    -0.307 C  
BRANCH  32  33
HETATM   33  C   UNL     1      -9.306  10.945  67.232  1.00  0.00    -0.168 C  
BRANCH  33  34
HETATM   34  C   UNL     1      -8.498  12.188  66.904  1.00  0.00    -0.173 C  
BRANCH  34  35
HETATM   35  C   UNL     1      -9.168  12.922  65.748  1.00  0.00     0.219 C  
BRANCH  35  36
HETATM   36  C   UNL     1     -10.525  12.313  65.439  1.00  0.00    -0.302 C  
BRANCH  36  37
HETATM   37  C   UNL     1     -10.960  12.656  64.019  1.00  0.00    -0.448 C  
BRANCH  37  38
HETATM   38  C   UNL     1     -10.873  14.160  63.794  1.00  0.00     1.059 C  
BRANCH  38  39
HETATM   39  C   UNL     1     -12.145  14.702  63.153  1.00  0.00     1.477 C  
HETATM   40  C   UNL     1     -12.807  15.728  64.055  1.00  0.00     1.167 C  
ENDBRANCH  38  39
ENDBRANCH  37  38
ENDBRANCH  36  37
ENDBRANCH  35  36
ENDBRANCH  34  35
ENDBRANCH  33  34
ENDBRANCH  32  33
ENDBRANCH  30  31
ENDBRANCH  29  30
ENDBRANCH  28  29
ENDBRANCH  27  28
ENDBRANCH  26  27
ENDBRANCH  25  26
ENDBRANCH  24  25
ENDBRANCH  22  24
ENDBRANCH  21  22
ENDBRANCH  20  21
BRANCH  20  41
HETATM   41  C   UNL     1      -8.974  14.596  69.869  1.00  0.00     0.627 C  
BRANCH  41  42
HETATM   42  O   UNL     1      -9.526  15.895  69.680  1.00  0.00    -0.257 OA 
BRANCH  42  43
HETATM   43  P   UNL     1      -8.756  16.753  68.390  1.00  0.00    -0.251 P  
HETATM   44  O   UNL     1      -9.119  15.433  67.535  1.00  0.00    -0.189 OA 
HETATM   45  O   UNL     1      -9.937  17.717  68.321  1.00  0.00    -0.314 OA 
BRANCH  43  46
HETATM   46  O   UNL     1      -7.987  17.611  67.101  1.00  0.00    -0.202 OA 
BRANCH  46  47
HETATM   47  C   UNL     1      -7.400  18.900  67.425  1.00  0.00    -0.225 C  
BRANCH  47  48
HETATM   48  C   UNL     1      -6.499  19.620  66.352  1.00  0.00    -0.188 C  
HETATM   49  O   UNL     1      -5.278  20.136  66.888  1.00  0.00    -0.158 OA 
HETATM   50  H   UNL     1      -4.735  20.570  66.241  1.00  0.00     0.000 HD 
BRANCH  48  51
HETATM   51  C   UNL     1      -6.144  18.678  65.185  1.00  0.00    -0.259 C  
HETATM   52  H   UNL     1      -5.207  18.775  63.426  1.00  0.00     0.000 HD 
HETATM   53  O   UNL     1      -5.425  19.355  64.145  1.00  0.00    -0.208 OA 
ENDBRANCH  48  51
ENDBRANCH  47  48
ENDBRANCH  46  47
ENDBRANCH  43  46
ENDBRANCH  42  43
ENDBRANCH  41  42
ENDBRANCH  20  41
ENDBRANCH  19  20
ENDBRANCH  18  19
ENDBRANCH  16  18
ENDBRANCH  15  16
ENDBRANCH  14  15
ENDBRANCH  13  14
ENDBRANCH  12  13
ENDBRANCH  11  12
ENDBRANCH  10  11
ENDBRANCH   9  10
ENDBRANCH   8   9
ENDBRANCH   7   8
ENDBRANCH   6   7
ENDBRANCH   5   6
ENDBRANCH   4   5
ENDBRANCH   3   4
ENDBRANCH   2   3
TORSDOF 41
ENDMDL
MODEL       30
REMARK 921   NORMALIZED FREE ENERGY PREDICTED BY IDOCK:   21.63 KCAL/MOL
REMARK 922        TOTAL FREE ENERGY PREDICTED BY IDOCK:   66.22 KCAL/MOL
REMARK 923 INTER-LIGAND FREE ENERGY PREDICTED BY IDOCK:    0.06 KCAL/MOL
REMARK 924 INTRA-LIGAND FREE ENERGY PREDICTED BY IDOCK:   66.16 KCAL/MOL
REMARK 927      BINDING AFFINITY PREDICTED BY RF-SCORE:    0.00 PKD
ROOT
HETATM    1  C   UNL     1     -10.526   5.623  72.395  1.00  0.00    -0.255 C  
HETATM    2  C   UNL     1     -11.408   6.676  71.746  1.00  0.00    -0.320 C  
ENDROOT
BRANCH   2   3
HETATM    3  C   UNL     1     -12.279   7.379  72.783  1.00  0.00     0.183 C  
BRANCH   3   4
HETATM    4  C   UNL     1     -12.101   8.894  72.716  1.00  0.00     0.086 C  
BRANCH   4   5
HETATM    5  C   UNL     1     -13.377   9.567  72.218  1.00  0.00    -0.526 C  
BRANCH   5   6
HETATM    6  C   UNL     1     -13.101  10.406  70.975  1.00  0.00    -0.450 C  
BRANCH   6   7
HETATM    7  C   UNL     1     -11.712  10.106  70.422  1.00  0.00    -0.390 C  
BRANCH   7   8
HETATM    8  C   UNL     1     -11.546  10.696  69.027  1.00  0.00    -0.332 C  
BRANCH   8   9
HETATM    9  C   UNL     1     -12.526  11.842  68.809  1.00  0.00     0.493 C  
BRANCH   9  10
HETATM   10  C   UNL     1     -13.173  12.252  70.126  1.00  0.00     1.151 C  
BRANCH  10  11
HETATM   11  C   UNL     1     -12.503  13.500  70.693  1.00  0.00    -0.405 C  
BRANCH  11  12
HETATM   12  C   UNL     1     -11.434  14.013  69.737  1.00  0.00    -0.293 C  
BRANCH  12  13
HETATM   13  C   UNL     1     -10.469  14.966  70.438  1.00  0.00     0.088 C  
BRANCH  13  14
HETATM   14  C   UNL     1      -9.094  14.318  70.555  1.00  0.00     2.714 C  
BRANCH  14  15
HETATM   15  C   UNL     1      -8.460  14.060  69.194  1.00  0.00     0.256 C  
BRANCH  15  16
HETATM   16  C   UNL     1      -9.025  15.017  68.175  1.00  0.00    -0.173 C  
HETATM   17  O   UNL     1      -9.110  16.227  68.324  1.00  0.00    -0.189 OA 
BRANCH  16  18
HETATM   18  O   UNL     1      -9.422  14.343  67.058  1.00  0.00    -0.229 OA 
BRANCH  18  19
HETATM   19  C   UNL     1      -8.643  13.171  66.773  1.00  0.00    -0.036 C  
BRANCH  19  20
HETATM   20  C   UNL     1      -7.170  13.501  66.483  1.00  0.00     1.909 C  
BRANCH  20  21
HETATM   21  O   UNL     1      -6.867  14.762  67.122  1.00  0.00    -0.242 OA 
BRANCH  21  22
HETATM   22  C   UNL     1      -7.615  15.814  66.701  1.00  0.00    -0.048 C  
HETATM   23  O   UNL     1      -7.238  16.675  65.908  1.00  0.00     0.133 OA 
BRANCH  22  24
HETATM   24  C   UNL     1      -8.978  15.803  67.336  1.00  0.00    -0.204 C  
BRANCH  24  25
HETATM   25  C   UNL     1      -9.978  15.244  66.338  1.00  0.00    -0.291 C  
BRANCH  25  26
HETATM   26  C   UNL     1     -10.520  13.889  66.777  1.00  0.00    -0.270 C  
BRANCH  26  27
HETATM   27  C   UNL     1     -10.142  12.847  65.735  1.00  0.00    -0.294 C  
BRANCH  27  28
HETATM   28  C   UNL     1      -8.926  12.021  66.143  1.00  0.00    -0.079 C  
BRANCH  28  29
HETATM   29  C   UNL     1      -9.291  10.962  67.185  1.00  0.00    -0.174 C  
BRANCH  29  30
HETATM   30  C   UNL     1      -8.491  11.051  68.487  1.00  0.00    -0.153 C  
BRANCH  30  31
HETATM   31  C   UNL     1      -9.236  10.490  69.668  1.00  0.00     0.008 C  
HETATM   32  C   UNL     1      -9.271   9.190  70.000  1.00  0.00    -0.209 C  
BRANCH  32  33
HETATM   33  C   UNL     1      -8.526   8.151  69.227  1.00  0.00    -0.134 C  
BRANCH  33  34
HETATM   34  C   UNL     1      -9.426   7.060  68.675  1.00  0.00    -0.135 C  
BRANCH  34  35
HETATM   35  C   UNL     1      -8.902   5.706  69.137  1.00  0.00    -0.111 C  
BRANCH  35  36
HETATM   36  C   UNL     1      -9.876   4.599  68.769  1.00  0.00    -0.201 C  
BRANCH  36  37
HETATM   37  C   UNL     1      -9.265   3.230  69.044  1.00  0.00    -0.224 C  
BRANCH  37  38
HETATM   38  C   UNL     1      -7.821   3.382  69.502  1.00  0.00    -0.054 C  
BRANCH  38  39
HETATM   39  C   UNL     1      -7.739   3.688  70.993  1.00  0.00    -0.047 C  
HETATM   40  C   UNL     1      -8.431   2.605  71.802  1.00  0.00    -0.084 C  
ENDBRANCH  38  39
ENDBRANCH  37  38
ENDBRANCH  36  37
ENDBRANCH  35  36
ENDBRANCH  34  35
ENDBRANCH  33  34
ENDBRANCH  32  33
ENDBRANCH  30  31
ENDBRANCH  29  30
ENDBRANCH  28  29
ENDBRANCH  27  28
ENDBRANCH  26  27
ENDBRANCH  25  26
ENDBRANCH  24  25
ENDBRANCH  22  24
ENDBRANCH  21  22
ENDBRANCH  20  21
BRANCH  20  41
HETATM   41  C   UNL     1      -6.219  12.426  67.021  1.00  0.00     0.023 C  
BRANCH  41  42
HETATM   42  O   UNL     1      -5.180  12.105  66.101  1.00  0.00    -0.113 OA 
BRANCH  42  43
HETATM   43  P   UNL     1      -5.401  10.547  65.382  1.00  0.00    -0.141 P  
HETATM   44  O   UNL     1      -5.474  10.049  66.916  1.00  0.00    -0.044 OA 
HETATM   45  O   UNL     1      -6.804  10.948  64.934  1.00  0.00     0.163 OA 
BRANCH  43  46
HETATM   46  O   UNL     1      -5.623   8.989  64.664  1.00  0.00    -0.060 OA 
BRANCH  46  47
HETATM   47  C   UNL     1      -5.877   7.879  65.567  1.00  0.00    -0.038 C  
BRANCH  47  48
HETATM   48  C   UNL     1      -6.502   6.554  64.989  1.00  0.00    -0.038 C  
HETATM   49  O   UNL     1      -5.550   5.715  64.332  1.00  0.00    -0.013 OA 
HETATM   50  H   UNL     1      -5.927   4.915  63.983  1.00  0.00     0.000 HD 
BRANCH  48  51
HETATM   51  C   UNL     1      -7.188   5.721  66.091  1.00  0.00    -0.076 C  
HETATM   52  H   UNL     1      -7.665   3.815  66.436  1.00  0.00     0.000 HD 
HETATM   53  O   UNL     1      -7.243   4.327  65.758  1.00  0.00    -0.069 OA 
ENDBRANCH  48  51
ENDBRANCH  47  48
ENDBRANCH  46  47
ENDBRANCH  43  46
ENDBRANCH  42  43
ENDBRANCH  41  42
ENDBRANCH  20  41
ENDBRANCH  19  20
ENDBRANCH  18  19
ENDBRANCH  16  18
ENDBRANCH  15  16
ENDBRANCH  14  15
ENDBRANCH  13  14
ENDBRANCH  12  13
ENDBRANCH  11  12
ENDBRANCH  10  11
ENDBRANCH   9  10
ENDBRANCH   8   9
ENDBRANCH   7   8
ENDBRANCH   6   7
ENDBRANCH   5   6
ENDBRANCH   4   5
ENDBRANCH   3   4
ENDBRANCH   2   3
TORSDOF 41
ENDMDL
MODEL       31
REMARK 921   NORMALIZED FREE ENERGY PREDICTED BY IDOCK:   24.82 KCAL/MOL
REMARK 922        TOTAL FREE ENERGY PREDICTED BY IDOCK:   77.08 KCAL/MOL
REMARK 923 INTER-LIGAND FREE ENERGY PREDICTED BY IDOCK:    9.86 KCAL/MOL
REMARK 924 INTRA-LIGAND FREE ENERGY PREDICTED BY IDOCK:   67.21 KCAL/MOL
REMARK 927      BINDING AFFINITY PREDICTED BY RF-SCORE:    0.00 PKD
ROOT
HETATM    1  C   UNL     1     -11.604  17.527  66.706  1.00  0.00     1.604 C  
HETATM    2  C   UNL     1     -10.149  17.740  67.085  1.00  0.00    -0.338 C  
ENDROOT
BRANCH   2   3
HETATM    3  C   UNL     1      -9.475  16.417  67.440  1.00  0.00    -0.227 C  
BRANCH   3   4
HETATM    4  C   UNL     1      -8.745  16.512  68.777  1.00  0.00    -0.259 C  
BRANCH   4   5
HETATM    5  C   UNL     1      -7.367  15.862  68.689  1.00  0.00    -0.141 C  
BRANCH   5   6
HETATM    6  C   UNL     1      -7.142  14.901  69.851  1.00  0.00    -0.109 C  
BRANCH   6   7
HETATM    7  C   UNL     1      -7.100  15.659  71.174  1.00  0.00     2.187 C  
BRANCH   7   8
HETATM    8  C   UNL     1      -5.750  15.479  71.859  1.00  0.00     0.650 C  
BRANCH   8   9
HETATM    9  C   UNL     1      -5.483  14.006  72.139  1.00  0.00    -0.213 C  
BRANCH   9  10
HETATM   10  C   UNL     1      -6.381  13.502  73.263  1.00  0.00     2.002 C  
BRANCH  10  11
HETATM   11  C   UNL     1      -6.390  11.977  73.306  1.00  0.00     4.656 C  
BRANCH  11  12
HETATM   12  C   UNL     1      -5.141  11.416  72.640  1.00  0.00     0.388 C  
BRANCH  12  13
HETATM   13  C   UNL     1      -5.424  10.083  71.953  1.00  0.00     0.058 C  
BRANCH  13  14
HETATM   14  C   UNL     1      -6.929   9.861  71.851  1.00  0.00     1.241 C  
BRANCH  14  15
HETATM   15  C   UNL     1      -7.373   9.577  70.421  1.00  0.00    -0.146 C  
BRANCH  15  16
HETATM   16  C   UNL     1      -8.038  10.797  69.838  1.00  0.00     0.435 C  
HETATM   17  O   UNL     1      -7.790  11.951  70.159  1.00  0.00     1.399 OA 
BRANCH  16  18
HETATM   18  O   UNL     1      -8.952  10.435  68.892  1.00  0.00    -0.151 OA 
BRANCH  18  19
HETATM   19  C   UNL     1      -8.535  10.697  67.544  1.00  0.00    -0.121 C  
BRANCH  19  20
HETATM   20  C   UNL     1      -8.763   9.493  66.615  1.00  0.00    -0.134 C  
BRANCH  20  21
HETATM   21  O   UNL     1      -7.591   8.650  66.690  1.00  0.00    -0.088 OA 
BRANCH  21  22
HETATM   22  C   UNL     1      -7.256   8.027  65.531  1.00  0.00    -0.064 C  
HETATM   23  O   UNL     1      -6.134   8.030  65.028  1.00  0.00    -0.044 OA 
BRANCH  22  24
HETATM   24  C   UNL     1      -8.442   7.331  64.924  1.00  0.00     0.057 C  
BRANCH  24  25
HETATM   25  C   UNL     1      -9.360   6.864  66.041  1.00  0.00    -0.026 C  
BRANCH  25  26
HETATM   26  C   UNL     1      -8.610   6.047  67.086  1.00  0.00    -0.106 C  
BRANCH  26  27
HETATM   27  C   UNL     1      -8.894   4.571  66.853  1.00  0.00    -0.112 C  
BRANCH  27  28
HETATM   28  C   UNL     1      -8.563   4.126  65.432  1.00  0.00    -0.118 C  
BRANCH  28  29
HETATM   29  C   UNL     1      -7.734   5.178  64.692  1.00  0.00    -0.086 C  
BRANCH  29  30
HETATM   30  C   UNL     1      -6.360   5.452  65.310  1.00  0.00    -0.035 C  
BRANCH  30  31
HETATM   31  C   UNL     1      -6.143   4.708  66.601  1.00  0.00    -0.031 C  
HETATM   32  C   UNL     1      -6.896   3.680  67.024  1.00  0.00    -0.050 C  
BRANCH  32  33
HETATM   33  C   UNL     1      -8.032   3.141  66.217  1.00  0.00    -0.081 C  
BRANCH  33  34
HETATM   34  C   UNL     1      -7.908   3.446  64.735  1.00  0.00    -0.078 C  
BRANCH  34  35
HETATM   35  C   UNL     1      -9.212   4.066  64.247  1.00  0.00    -0.147 C  
BRANCH  35  36
HETATM   36  C   UNL     1      -9.814   3.237  63.125  1.00  0.00    -0.118 C  
BRANCH  36  37
HETATM   37  C   UNL     1      -9.039   1.939  62.937  1.00  0.00    -0.087 C  
BRANCH  37  38
HETATM   38  C   UNL     1      -7.657   2.231  62.366  1.00  0.00    -0.041 C  
BRANCH  38  39
HETATM   39  C   UNL     1      -6.562   1.558  63.185  1.00  0.00    -0.014 C  
HETATM   40  C   UNL     1      -5.250   2.310  63.050  1.00  0.00    -0.007 C  
ENDBRANCH  38  39
ENDBRANCH  37  38
ENDBRANCH  36  37
ENDBRANCH  35  36
ENDBRANCH  34  35
ENDBRANCH  33  34
ENDBRANCH  32  33
ENDBRANCH  30  31
ENDBRANCH  29  30
ENDBRANCH  28  29
ENDBRANCH  27  28
ENDBRANCH  26  27
ENDBRANCH  25  26
ENDBRANCH  24  25
ENDBRANCH  22  24
ENDBRANCH  21  22
ENDBRANCH  20  21
BRANCH  20  41
HETATM   41  C   UNL     1      -9.995   8.675  67.019  1.00  0.00    -0.249 C  
BRANCH  41  42
HETATM   42  O   UNL     1     -10.013   8.366  68.410  1.00  0.00    -0.175 OA 
BRANCH  42  43
HETATM   43  P   UNL     1      -9.858   6.669  68.706  1.00  0.00    -0.146 P  
HETATM   44  O   UNL     1     -10.917   6.543  67.493  1.00  0.00    -0.315 OA 
HETATM   45  O   UNL     1      -8.449   6.691  68.119  1.00  0.00    -0.116 OA 
BRANCH  43  46
HETATM   46  O   UNL     1      -9.702   4.972  69.000  1.00  0.00    -0.143 OA 
BRANCH  46  47
HETATM   47  C   UNL     1      -9.536   4.556  70.383  1.00  0.00    -0.200 C  
BRANCH  47  48
HETATM   48  C   UNL     1      -8.084   4.281  70.927  1.00  0.00    -0.071 C  
HETATM   49  O   UNL     1      -7.535   5.376  71.665  1.00  0.00    -0.086 OA 
HETATM   50  H   UNL     1      -6.659   5.210  71.993  1.00  0.00     0.000 HD 
BRANCH  48  51
HETATM   51  C   UNL     1      -8.044   3.033  71.831  1.00  0.00    -0.058 C  
HETATM   52  H   UNL     1      -8.591   2.515  73.679  1.00  0.00     0.000 HD 
HETATM   53  O   UNL     1      -8.616   3.283  73.122  1.00  0.00    -0.080 OA 
ENDBRANCH  48  51
ENDBRANCH  47  48
ENDBRANCH  46  47
ENDBRANCH  43  46
ENDBRANCH  42  43
ENDBRANCH  41  42
ENDBRANCH  20  41
ENDBRANCH  19  20
ENDBRANCH  18  19
ENDBRANCH  16  18
ENDBRANCH  15  16
ENDBRANCH  14  15
ENDBRANCH  13  14
ENDBRANCH  12  13
ENDBRANCH  11  12
ENDBRANCH  10  11
ENDBRANCH   9  10
ENDBRANCH   8   9
ENDBRANCH   7   8
ENDBRANCH   6   7
ENDBRANCH   5   6
ENDBRANCH   4   5
ENDBRANCH   3   4
ENDBRANCH   2   3
TORSDOF 41
ENDMDL
MODEL       32
REMARK 921   NORMALIZED FREE ENERGY PREDICTED BY IDOCK:   44.38 KCAL/MOL
REMARK 922        TOTAL FREE ENERGY PREDICTED BY IDOCK:  143.51 KCAL/MOL
REMARK 923 INTER-LIGAND FREE ENERGY PREDICTED BY IDOCK:   19.77 KCAL/MOL
REMARK 924 INTRA-LIGAND FREE ENERGY PREDICTED BY IDOCK:  123.73 KCAL/MOL
REMARK 927      BINDING AFFINITY PREDICTED BY RF-SCORE:    0.00 PKD
ROOT
HETATM    1  C   UNL     1     -11.604  17.527  66.706  1.00  0.00     1.604 C  
HETATM    2  C   UNL     1     -10.152  17.749  67.093  1.00  0.00    -0.338 C  
ENDROOT
BRANCH   2   3
HETATM    3  C   UNL     1      -9.473  16.432  67.456  1.00  0.00    -0.224 C  
BRANCH   3   4
HETATM    4  C   UNL     1      -8.752  16.535  68.798  1.00  0.00    -0.259 C  
BRANCH   4   5
HETATM    5  C   UNL     1      -7.370  15.892  68.720  1.00  0.00    -0.159 C  
BRANCH   5   6
HETATM    6  C   UNL     1      -7.146  14.937  69.887  1.00  0.00    -0.109 C  
BRANCH   6   7
HETATM    7  C   UNL     1      -7.116  15.699  71.208  1.00  0.00     2.485 C  
BRANCH   7   8
HETATM    8  C   UNL     1      -5.770  15.530  71.901  1.00  0.00     0.650 C  
BRANCH   8   9
HETATM    9  C   UNL     1      -5.496  14.059  72.188  1.00  0.00    -0.213 C  
BRANCH   9  10
HETATM   10  C   UNL     1      -6.398  13.555  73.308  1.00  0.00     2.002 C  
BRANCH  10  11
HETATM   11  C   UNL     1      -6.399  12.030  73.357  1.00  0.00     4.567 C  
BRANCH  11  12
HETATM   12  C   UNL     1      -5.143  11.473  72.700  1.00  0.00     0.397 C  
BRANCH  12  13
HETATM   13  C   UNL     1      -5.415  10.136  72.016  1.00  0.00     0.136 C  
BRANCH  13  14
HETATM   14  C   UNL     1      -6.918   9.906  71.906  1.00  0.00     1.241 C  
BRANCH  14  15
HETATM   15  C   UNL     1      -7.352   9.614  70.475  1.00  0.00    -0.141 C  
BRANCH  15  16
HETATM   16  C   UNL     1      -7.975  10.844  69.866  1.00  0.00     0.522 C  
HETATM   17  O   UNL     1      -7.698  11.994  70.175  1.00  0.00     1.321 OA 
BRANCH  16  18
HETATM   18  O   UNL     1      -8.886  10.495  68.914  1.00  0.00    -0.148 OA 
BRANCH  18  19
HETATM   19  C   UNL     1      -8.501  10.847  67.577  1.00  0.00    -0.123 C  
BRANCH  19  20
HETATM   20  C   UNL     1      -8.692   9.686  66.586  1.00  0.00    -0.134 C  
BRANCH  20  21
HETATM   21  O   UNL     1      -7.485   8.891  66.600  1.00  0.00    -0.084 OA 
BRANCH  21  22
HETATM   22  C   UNL     1      -7.141   8.347  65.405  1.00  0.00    -0.081 C  
HETATM   23  O   UNL     1      -6.027   8.426  64.888  1.00  0.00    -0.051 OA 
BRANCH  22  24
HETATM   24  C   UNL     1      -8.305   7.634  64.775  1.00  0.00    -0.034 C  
BRANCH  24  25
HETATM   25  C   UNL     1      -9.186   7.068  65.877  1.00  0.00     0.005 C  
BRANCH  25  26
HETATM   26  C   UNL     1      -8.386   6.230  66.866  1.00  0.00    -0.109 C  
BRANCH  26  27
HETATM   27  C   UNL     1      -8.611   4.757  66.556  1.00  0.00    -0.109 C  
BRANCH  27  28
HETATM   28  C   UNL     1      -8.283   4.404  65.109  1.00  0.00    -0.104 C  
BRANCH  28  29
HETATM   29  C   UNL     1      -7.510   5.530  64.417  1.00  0.00    -0.068 C  
BRANCH  29  30
HETATM   30  C   UNL     1      -6.140   5.829  65.032  1.00  0.00    -0.025 C  
BRANCH  30  31
HETATM   31  C   UNL     1      -5.872   5.026  66.277  1.00  0.00    -0.022 C  
HETATM   32  C   UNL     1      -6.574   3.945  66.653  1.00  0.00    -0.045 C  
BRANCH  32  33
HETATM   33  C   UNL     1      -7.699   3.402  65.832  1.00  0.00    -0.081 C  
BRANCH  33  34
HETATM   34  C   UNL     1      -7.610   3.792  64.368  1.00  0.00    -0.079 C  
BRANCH  34  35
HETATM   35  C   UNL     1      -6.791   5.071  64.245  1.00  0.00    -0.048 C  
BRANCH  35  36
HETATM   36  C   UNL     1      -7.602   6.167  63.576  1.00  0.00    -0.085 C  
BRANCH  36  37
HETATM   37  C   UNL     1      -9.049   5.727  63.386  1.00  0.00     0.673 C  
BRANCH  37  38
HETATM   38  C   UNL     1      -9.129   4.629  62.333  1.00  0.00    -0.124 C  
BRANCH  38  39
HETATM   39  C   UNL     1      -9.915   3.426  62.841  1.00  0.00    -0.123 C  
HETATM   40  C   UNL     1      -9.068   2.168  62.785  1.00  0.00    -0.090 C  
ENDBRANCH  38  39
ENDBRANCH  37  38
ENDBRANCH  36  37
ENDBRANCH  35  36
ENDBRANCH  34  35
ENDBRANCH  33  34
ENDBRANCH  32  33
ENDBRANCH  30  31
ENDBRANCH  29  30
ENDBRANCH  28  29
ENDBRANCH  27  28
ENDBRANCH  26  27
ENDBRANCH  25  26
ENDBRANCH  24  25
ENDBRANCH  22  24
ENDBRANCH  21  22
ENDBRANCH  20  21
BRANCH  20  41
HETATM   41  C   UNL     1      -9.881   8.795  66.961  1.00  0.00    -0.216 C  
BRANCH  41  42
HETATM   42  O   UNL     1      -9.866   8.410  68.332  1.00  0.00    -0.166 OA 
BRANCH  42  43
HETATM   43  P   UNL     1      -9.634   6.708  68.533  1.00  0.00    -0.125 P  
HETATM   44  O   UNL     1     -10.705   6.602  67.329  1.00  0.00    -0.266 OA 
HETATM   45  O   UNL     1      -8.237   6.823  67.931  1.00  0.00    -0.115 OA 
BRANCH  43  46
HETATM   46  O   UNL     1      -9.402   5.006  68.732  1.00  0.00    -0.116 OA 
BRANCH  46  47
HETATM   47  C   UNL     1     -10.440   4.134  68.209  1.00  0.00     0.914 C  
BRANCH  47  48
HETATM   48  C   UNL     1     -10.638   4.035  66.649  1.00  0.00     1.053 C  
HETATM   49  O   UNL     1     -11.950   3.616  66.267  1.00  0.00     4.660 OA 
HETATM   50  H   UNL     1     -12.069   3.556  65.326  1.00  0.00     0.000 HD 
BRANCH  48  51
HETATM   51  C   UNL     1     -10.348   5.380  65.953  1.00  0.00     0.021 C  
HETATM   52  H   UNL     1     -11.358   6.989  65.343  1.00  0.00     0.000 HD 
HETATM   53  O   UNL     1     -11.537   6.161  65.772  1.00  0.00     1.740 OA 
ENDBRANCH  48  51
ENDBRANCH  47  48
ENDBRANCH  46  47
ENDBRANCH  43  46
ENDBRANCH  42  43
ENDBRANCH  41  42
ENDBRANCH  20  41
ENDBRANCH  19  20
ENDBRANCH  18  19
ENDBRANCH  16  18
ENDBRANCH  15  16
ENDBRANCH  14  15
ENDBRANCH  13  14
ENDBRANCH  12  13
ENDBRANCH  11  12
ENDBRANCH  10  11
ENDBRANCH   9  10
ENDBRANCH   8   9
ENDBRANCH   7   8
ENDBRANCH   6   7
ENDBRANCH   5   6
ENDBRANCH   4   5
ENDBRANCH   3   4
ENDBRANCH   2   3
TORSDOF 41
ENDMDL
MODEL       33
REMARK 921   NORMALIZED FREE ENERGY PREDICTED BY IDOCK:   45.23 KCAL/MOL
REMARK 922        TOTAL FREE ENERGY PREDICTED BY IDOCK:  146.39 KCAL/MOL
REMARK 923 INTER-LIGAND FREE ENERGY PREDICTED BY IDOCK:   37.31 KCAL/MOL
REMARK 924 INTRA-LIGAND FREE ENERGY PREDICTED BY IDOCK:  109.07 KCAL/MOL
REMARK 927      BINDING AFFINITY PREDICTED BY RF-SCORE:    0.00 PKD
ROOT
HETATM    1  C   UNL     1     -11.750  16.350  66.529  1.00  0.00     1.163 C  
HETATM    2  C   UNL     1     -11.856  17.398  67.623  1.00  0.00     1.587 C  
ENDROOT
BRANCH   2   3
HETATM    3  C   UNL     1     -10.514  17.604  68.320  1.00  0.00    -0.376 C  
BRANCH   3   4
HETATM    4  C   UNL     1     -10.690  18.325  69.654  1.00  0.00     1.146 C  
BRANCH   4   5
HETATM    5  C   UNL     1     -11.674  17.576  70.549  1.00  0.00     3.363 C  
BRANCH   5   6
HETATM    6  C   UNL     1     -12.661  16.766  69.716  1.00  0.00     3.466 C  
BRANCH   6   7
HETATM    7  C   UNL     1     -12.386  15.272  69.859  1.00  0.00    -0.323 C  
BRANCH   7   8
HETATM    8  C   UNL     1     -11.080  15.031  70.606  1.00  0.00    -0.238 C  
BRANCH   8   9
HETATM    9  C   UNL     1     -11.080  13.652  71.254  1.00  0.00     2.347 C  
BRANCH   9  10
HETATM   10  C   UNL     1     -10.000  13.562  72.325  1.00  0.00    11.285 C  
BRANCH  10  11
HETATM   11  C   UNL     1      -8.867  14.542  72.035  1.00  0.00     6.697 C  
BRANCH  11  12
HETATM   12  C   UNL     1      -8.361  14.367  70.609  1.00  0.00     2.543 C  
BRANCH  12  13
HETATM   13  C   UNL     1      -9.124  13.267  69.877  1.00  0.00     2.659 C  
BRANCH  13  14
HETATM   14  C   UNL     1      -9.302  13.647  68.411  1.00  0.00    -0.181 C  
BRANCH  14  15
HETATM   15  C   UNL     1      -8.951  15.106  68.148  1.00  0.00    -0.174 C  
BRANCH  15  16
HETATM   16  C   UNL     1      -8.499  15.764  69.427  1.00  0.00    -0.218 C  
HETATM   17  O   UNL     1      -7.406  16.284  69.599  1.00  0.00    -0.160 OA 
BRANCH  16  18
HETATM   18  O   UNL     1      -9.487  15.706  70.366  1.00  0.00     0.261 OA 
BRANCH  18  19
HETATM   19  C   UNL     1      -9.934  14.376  70.665  1.00  0.00     1.821 C  
BRANCH  19  20
HETATM   20  C   UNL     1      -9.965  13.473  69.421  1.00  0.00     0.603 C  
BRANCH  20  21
HETATM   21  O   UNL     1     -10.062  12.104  69.871  1.00  0.00     1.137 OA 
BRANCH  21  22
HETATM   22  C   UNL     1     -11.325  11.610  69.942  1.00  0.00    -0.150 C  
HETATM   23  O   UNL     1     -12.349  12.262  69.744  1.00  0.00    -0.153 OA 
BRANCH  22  24
HETATM   24  C   UNL     1     -11.320  10.151  70.305  1.00  0.00    -0.387 C  
BRANCH  24  25
HETATM   25  C   UNL     1     -11.171  10.022  71.812  1.00  0.00     0.443 C  
BRANCH  25  26
HETATM   26  C   UNL     1     -10.073   9.035  72.190  1.00  0.00    -0.141 C  
BRANCH  26  27
HETATM   27  C   UNL     1      -9.963   7.982  71.097  1.00  0.00    -0.206 C  
BRANCH  27  28
HETATM   28  C   UNL     1     -10.517   6.628  71.528  1.00  0.00    -0.242 C  
BRANCH  28  29
HETATM   29  C   UNL     1     -10.869   6.612  73.017  1.00  0.00    -0.297 C  
BRANCH  29  30
HETATM   30  C   UNL     1     -11.750   5.437  73.448  1.00  0.00     0.234 C  
BRANCH  30  31
HETATM   31  C   UNL     1     -11.925   4.410  72.361  1.00  0.00     1.148 C  
HETATM   32  C   UNL     1     -10.939   3.639  71.876  1.00  0.00     0.884 C  
BRANCH  32  33
HETATM   33  C   UNL     1      -9.543   3.706  72.405  1.00  0.00    -0.200 C  
BRANCH  33  34
HETATM   34  C   UNL     1      -8.651   4.648  71.616  1.00  0.00    -0.125 C  
BRANCH  34  35
HETATM   35  C   UNL     1      -7.215   4.144  71.686  1.00  0.00    -0.054 C  
BRANCH  35  36
HETATM   36  C   UNL     1      -6.450   4.852  72.791  1.00  0.00    -0.043 C  
BRANCH  36  37
HETATM   37  C   UNL     1      -5.373   5.759  72.206  1.00  0.00    -0.021 C  
BRANCH  37  38
HETATM   38  C   UNL     1      -5.795   6.253  70.828  1.00  0.00    -0.023 C  
BRANCH  38  39
HETATM   39  C   UNL     1      -6.582   5.189  70.072  1.00  0.00    -0.036 C  
HETATM   40  C   UNL     1      -6.633   5.510  68.589  1.00  0.00    -0.048 C  
ENDBRANCH  38  39
ENDBRANCH  37  38
ENDBRANCH  36  37
ENDBRANCH  35  36
ENDBRANCH  34  35
ENDBRANCH  33  34
ENDBRANCH  32  33
ENDBRANCH  30  31
ENDBRANCH  29  30
ENDBRANCH  28  29
ENDBRANCH  27  28
ENDBRANCH  26  27
ENDBRANCH  25  26
ENDBRANCH  24  25
ENDBRANCH  22  24
ENDBRANCH  21  22
ENDBRANCH  20  21
BRANCH  20  41
HETATM   41  C   UNL     1     -11.157  13.785  68.509  1.00  0.00    -0.267 C  
BRANCH  41  42
HETATM   42  O   UNL     1     -10.770  13.991  67.153  1.00  0.00    -0.280 OA 
BRANCH  42  43
HETATM   43  P   UNL     1     -10.078  12.572  66.447  1.00  0.00    -0.251 P  
HETATM   44  O   UNL     1     -10.511  13.271  65.057  1.00  0.00    -0.320 OA 
HETATM   45  O   UNL     1      -8.682  13.061  66.822  1.00  0.00    -0.188 OA 
BRANCH  43  46
HETATM   46  O   UNL     1      -9.385  11.154  65.739  1.00  0.00    -0.202 OA 
BRANCH  46  47
HETATM   47  C   UNL     1     -10.255  10.000  65.593  1.00  0.00    -0.188 C  
BRANCH  47  48
HETATM   48  C   UNL     1      -9.624   8.616  65.182  1.00  0.00     0.567 C  
HETATM   49  O   UNL     1      -8.459   8.743  64.362  1.00  0.00    -0.214 OA 
HETATM   50  H   UNL     1      -8.078   7.908  64.115  1.00  0.00     0.000 HD 
BRANCH  48  51
HETATM   51  C   UNL     1      -9.245   7.775  66.417  1.00  0.00    -0.180 C  
HETATM   52  H   UNL     1      -9.010   5.852  66.893  1.00  0.00     0.000 HD 
HETATM   53  O   UNL     1      -9.242   6.369  66.132  1.00  0.00    -0.158 OA 
ENDBRANCH  48  51
ENDBRANCH  47  48
ENDBRANCH  46  47
ENDBRANCH  43  46
ENDBRANCH  42  43
ENDBRANCH  41  42
ENDBRANCH  20  41
ENDBRANCH  19  20
ENDBRANCH  18  19
ENDBRANCH  16  18
ENDBRANCH  15  16
ENDBRANCH  14  15
ENDBRANCH  13  14
ENDBRANCH  12  13
ENDBRANCH  11  12
ENDBRANCH  10  11
ENDBRANCH   9  10
ENDBRANCH   8   9
ENDBRANCH   7   8
ENDBRANCH   6   7
ENDBRANCH   5   6
ENDBRANCH   4   5
ENDBRANCH   3   4
ENDBRANCH   2   3
TORSDOF 41
ENDMDL
