MODEL        1
REMARK 921   NORMALIZED FREE ENERGY PREDICTED BY IDOCK:   -6.60 KCAL/MOL
REMARK 922        TOTAL FREE ENERGY PREDICTED BY IDOCK:   -8.06 KCAL/MOL
REMARK 923 INTER-LIGAND FREE ENERGY PREDICTED BY IDOCK:   -7.75 KCAL/MOL
REMARK 924 INTRA-LIGAND FREE ENERGY PREDICTED BY IDOCK:   -0.31 KCAL/MOL
REMARK 927      BINDING AFFINITY PREDICTED BY RF-SCORE:    0.00 PKD
ROOT
HETATM    1  S   UNL     1     -12.303  13.478  65.471  1.00  0.00    -0.496 SA 
ENDROOT
BRANCH   1   2
HETATM    2  C   UNL     1     -11.777  12.269  66.635  1.00  0.00    -0.349 A  
HETATM    3  S   UNL     1     -10.734  10.987  66.180  1.00  0.00    -0.144 SA 
HETATM    4  N   UNL     1     -12.136  12.294  67.900  1.00  0.00    -0.434 NA 
HETATM    5  C   UNL     1     -10.739  10.407  67.801  1.00  0.00    -0.279 A  
HETATM    6  C   UNL     1     -11.543  11.244  68.577  1.00  0.00    -0.315 A  
HETATM    7  C   UNL     1     -10.083   9.292  68.347  1.00  0.00    -0.215 A  
HETATM    8  C   UNL     1     -11.692  10.960  69.949  1.00  0.00    -0.418 A  
HETATM    9  C   UNL     1     -10.256   9.025  69.710  1.00  0.00    -0.214 A  
HETATM   10  C   UNL     1     -11.048   9.850  70.504  1.00  0.00    -0.398 A  
ENDBRANCH   1   2
BRANCH   1  11
HETATM   11  S   UNL     1     -10.478  14.240  64.880  1.00  0.00    -0.381 SA 
BRANCH  11  12
HETATM   12  C   UNL     1     -10.455  15.723  65.823  1.00  0.00    -0.367 A  
HETATM   13  C   UNL     1     -10.148  20.155  67.078  1.00  0.00    -0.599 A  
HETATM   14  C   UNL     1     -10.008  19.666  68.372  1.00  0.00    -0.543 A  
HETATM   15  N   UNL     1     -10.523  16.913  65.270  1.00  0.00    -0.662 NA 
HETATM   16  C   UNL     1     -10.040  18.292  68.628  1.00  0.00    -0.407 A  
HETATM   17  C   UNL     1     -10.364  17.887  66.236  1.00  0.00    -0.364 A  
HETATM   18  C   UNL     1     -10.217  17.418  67.542  1.00  0.00    -0.332 A  
HETATM   19  C   UNL     1     -10.328  19.276  66.004  1.00  0.00    -0.556 A  
HETATM   20  S   UNL     1     -10.290  15.698  67.528  1.00  0.00    -0.283 SA 
ENDBRANCH  11  12
ENDBRANCH   1  11
TORSDOF 3
ENDMDL
MODEL        2
REMARK 921   NORMALIZED FREE ENERGY PREDICTED BY IDOCK:   -6.54 KCAL/MOL
REMARK 922        TOTAL FREE ENERGY PREDICTED BY IDOCK:   -7.99 KCAL/MOL
REMARK 923 INTER-LIGAND FREE ENERGY PREDICTED BY IDOCK:   -7.69 KCAL/MOL
REMARK 924 INTRA-LIGAND FREE ENERGY PREDICTED BY IDOCK:   -0.30 KCAL/MOL
REMARK 927      BINDING AFFINITY PREDICTED BY RF-SCORE:    0.00 PKD
ROOT
HETATM    1  S   UNL     1     -10.549  14.187  64.872  1.00  0.00    -0.423 SA 
ENDROOT
BRANCH   1   2
HETATM    2  C   UNL     1     -10.449  15.691  65.779  1.00  0.00    -0.366 A  
HETATM    3  S   UNL     1     -10.240  15.694  67.481  1.00  0.00    -0.268 SA 
HETATM    4  N   UNL     1     -10.510  16.874  65.206  1.00  0.00    -0.662 NA 
HETATM    5  C   UNL     1     -10.216  17.416  67.474  1.00  0.00    -0.332 A  
HETATM    6  C   UNL     1     -10.370  17.865  66.161  1.00  0.00    -0.352 A  
HETATM    7  C   UNL     1     -10.075  18.306  68.551  1.00  0.00    -0.419 A  
HETATM    8  C   UNL     1     -10.376  19.252  65.915  1.00  0.00    -0.499 A  
HETATM    9  C   UNL     1     -10.097  19.679  68.281  1.00  0.00    -0.560 A  
HETATM   10  C   UNL     1     -10.242  20.148  66.979  1.00  0.00    -0.558 A  
ENDBRANCH   1   2
BRANCH   1  11
HETATM   11  S   UNL     1     -12.240  13.359  65.717  1.00  0.00    -0.463 SA 
BRANCH  11  12
HETATM   12  C   UNL     1     -11.491  12.267  66.873  1.00  0.00    -0.356 A  
HETATM   13  C   UNL     1     -10.602   9.767  70.650  1.00  0.00    -0.382 A  
HETATM   14  C   UNL     1      -9.314   9.651  70.138  1.00  0.00    -0.294 A  
HETATM   15  N   UNL     1     -12.129  11.806  67.926  1.00  0.00    -0.559 NA 
HETATM   16  C   UNL     1      -8.971  10.238  68.916  1.00  0.00    -0.164 A  
HETATM   17  C   UNL     1     -11.263  11.074  68.714  1.00  0.00    -0.266 A  
HETATM   18  C   UNL     1      -9.963  10.949  68.220  1.00  0.00    -0.175 A  
HETATM   19  C   UNL     1     -11.583  10.473  69.947  1.00  0.00    -0.384 A  
HETATM   20  S   UNL     1      -9.855  11.781  66.717  1.00  0.00    -0.202 SA 
ENDBRANCH  11  12
ENDBRANCH   1  11
TORSDOF 3
ENDMDL
MODEL        3
REMARK 921   NORMALIZED FREE ENERGY PREDICTED BY IDOCK:   -6.45 KCAL/MOL
REMARK 922        TOTAL FREE ENERGY PREDICTED BY IDOCK:   -7.89 KCAL/MOL
REMARK 923 INTER-LIGAND FREE ENERGY PREDICTED BY IDOCK:   -7.59 KCAL/MOL
REMARK 924 INTRA-LIGAND FREE ENERGY PREDICTED BY IDOCK:   -0.30 KCAL/MOL
REMARK 927      BINDING AFFINITY PREDICTED BY RF-SCORE:    0.00 PKD
ROOT
HETATM    1  S   UNL     1      -8.666  13.803  67.834  1.00  0.00    -0.195 SA 
ENDROOT
BRANCH   1   2
HETATM    2  C   UNL     1      -9.131  15.475  67.543  1.00  0.00    -0.193 A  
HETATM    3  S   UNL     1      -9.762  15.975  66.029  1.00  0.00    -0.360 SA 
HETATM    4  N   UNL     1      -9.037  16.410  68.463  1.00  0.00    -0.214 NA 
HETATM    5  C   UNL     1      -9.944  17.576  66.635  1.00  0.00    -0.314 A  
HETATM    6  C   UNL     1      -9.506  17.610  67.960  1.00  0.00    -0.282 A  
HETATM    7  C   UNL     1     -10.434  18.720  65.985  1.00  0.00    -0.483 A  
HETATM    8  C   UNL     1      -9.567  18.830  68.663  1.00  0.00    -0.432 A  
HETATM    9  C   UNL     1     -10.473  19.921  66.701  1.00  0.00    -0.580 A  
HETATM   10  C   UNL     1     -10.048  19.977  68.026  1.00  0.00    -0.557 A  
ENDBRANCH   1   2
BRANCH   1  11
HETATM   11  S   UNL     1     -10.389  12.832  67.242  1.00  0.00    -0.233 SA 
BRANCH  11  12
HETATM   12  C   UNL     1     -11.398  13.135  68.649  1.00  0.00    -0.289 A  
HETATM   13  C   UNL     1     -13.669  15.210  72.091  1.00  0.00    -0.583 A  
HETATM   14  C   UNL     1     -13.782  13.937  72.639  1.00  0.00    -0.582 A  
HETATM   15  N   UNL     1     -11.817  14.339  68.973  1.00  0.00    -0.320 NA 
HETATM   16  C   UNL     1     -13.254  12.822  71.980  1.00  0.00    -0.538 A  
HETATM   17  C   UNL     1     -12.485  14.292  70.181  1.00  0.00    -0.335 A  
HETATM   18  C   UNL     1     -12.606  13.023  70.750  1.00  0.00    -0.241 A  
HETATM   19  C   UNL     1     -13.025  15.399  70.863  1.00  0.00    -0.539 A  
HETATM   20  S   UNL     1     -11.853  11.872  69.714  1.00  0.00    -0.318 SA 
ENDBRANCH  11  12
ENDBRANCH   1  11
TORSDOF 3
ENDMDL
MODEL        4
REMARK 921   NORMALIZED FREE ENERGY PREDICTED BY IDOCK:   -6.44 KCAL/MOL
REMARK 922        TOTAL FREE ENERGY PREDICTED BY IDOCK:   -7.87 KCAL/MOL
REMARK 923 INTER-LIGAND FREE ENERGY PREDICTED BY IDOCK:   -7.47 KCAL/MOL
REMARK 924 INTRA-LIGAND FREE ENERGY PREDICTED BY IDOCK:   -0.40 KCAL/MOL
REMARK 927      BINDING AFFINITY PREDICTED BY RF-SCORE:    0.00 PKD
ROOT
HETATM    1  S   UNL     1     -10.743  13.029  66.893  1.00  0.00    -0.264 SA 
ENDROOT
BRANCH   1   2
HETATM    2  C   UNL     1     -11.585  13.249  68.422  1.00  0.00    -0.337 A  
HETATM    3  S   UNL     1     -11.889  11.927  69.471  1.00  0.00    -0.321 SA 
HETATM    4  N   UNL     1     -12.003  14.422  68.843  1.00  0.00    -0.318 NA 
HETATM    5  C   UNL     1     -12.633  12.993  70.598  1.00  0.00    -0.193 A  
HETATM    6  C   UNL     1     -12.594  14.292  70.087  1.00  0.00    -0.282 A  
HETATM    7  C   UNL     1     -13.214  12.704  71.844  1.00  0.00    -0.504 A  
HETATM    8  C   UNL     1     -13.148  15.339  70.850  1.00  0.00    -0.523 A  
HETATM    9  C   UNL     1     -13.768  13.760  72.576  1.00  0.00    -0.667 A  
HETATM   10  C   UNL     1     -13.733  15.063  72.089  1.00  0.00    -0.559 A  
ENDBRANCH   1   2
BRANCH   1  11
HETATM   11  S   UNL     1      -8.874  13.747  67.393  1.00  0.00    -0.221 SA 
BRANCH  11  12
HETATM   12  C   UNL     1      -9.148  15.469  67.169  1.00  0.00    -0.217 A  
HETATM   13  C   UNL     1      -9.456  20.020  67.875  1.00  0.00    -0.467 A  
HETATM   14  C   UNL     1     -10.235  20.037  66.723  1.00  0.00    -0.592 A  
HETATM   15  N   UNL     1      -8.688  16.372  68.006  1.00  0.00    -0.181 NA 
HETATM   16  C   UNL     1     -10.491  18.860  66.013  1.00  0.00    -0.507 A  
HETATM   17  C   UNL     1      -9.155  17.622  67.647  1.00  0.00    -0.241 A  
HETATM   18  C   UNL     1      -9.942  17.660  66.495  1.00  0.00    -0.332 A  
HETATM   19  C   UNL     1      -8.910  18.821  68.345  1.00  0.00    -0.375 A  
HETATM   20  S   UNL     1     -10.081  16.065  65.861  1.00  0.00    -0.372 SA 
ENDBRANCH  11  12
ENDBRANCH   1  11
TORSDOF 3
ENDMDL
MODEL        5
REMARK 921   NORMALIZED FREE ENERGY PREDICTED BY IDOCK:   -6.40 KCAL/MOL
REMARK 922        TOTAL FREE ENERGY PREDICTED BY IDOCK:   -7.83 KCAL/MOL
REMARK 923 INTER-LIGAND FREE ENERGY PREDICTED BY IDOCK:   -7.49 KCAL/MOL
REMARK 924 INTRA-LIGAND FREE ENERGY PREDICTED BY IDOCK:   -0.34 KCAL/MOL
REMARK 927      BINDING AFFINITY PREDICTED BY RF-SCORE:    0.00 PKD
ROOT
HETATM    1  S   UNL     1     -10.795  15.069  66.971  1.00  0.00    -0.315 SA 
ENDROOT
BRANCH   1   2
HETATM    2  C   UNL     1     -11.300  15.115  68.656  1.00  0.00    -0.310 A  
HETATM    3  S   UNL     1     -10.847  16.406  69.688  1.00  0.00    -0.319 SA 
HETATM    4  N   UNL     1     -12.054  14.184  69.199  1.00  0.00    -0.344 NA 
HETATM    5  C   UNL     1     -11.733  15.687  70.976  1.00  0.00    -0.403 A  
HETATM    6  C   UNL     1     -12.316  14.503  70.519  1.00  0.00    -0.337 A  
HETATM    7  C   UNL     1     -11.900  16.133  72.298  1.00  0.00    -0.631 A  
HETATM    8  C   UNL     1     -13.098  13.743  71.411  1.00  0.00    -0.413 A  
HETATM    9  C   UNL     1     -12.671  15.354  73.167  1.00  0.00    -0.593 A  
HETATM   10  C   UNL     1     -13.267  14.175  72.730  1.00  0.00    -0.604 A  
ENDBRANCH   1   2
BRANCH   1  11
HETATM   11  S   UNL     1     -12.317  13.935  66.160  1.00  0.00    -0.438 SA 
BRANCH  11  12
HETATM   12  C   UNL     1     -11.520  12.370  66.095  1.00  0.00    -0.379 A  
HETATM   13  C   UNL     1      -9.671   8.304  67.260  1.00  0.00    -0.234 A  
HETATM   14  C   UNL     1      -9.049   8.354  66.018  1.00  0.00    -0.235 A  
HETATM   15  N   UNL     1     -11.573  11.509  67.087  1.00  0.00    -0.557 NA 
HETATM   16  C   UNL     1      -9.263   9.428  65.149  1.00  0.00    -0.287 A  
HETATM   17  C   UNL     1     -10.761  10.426  66.808  1.00  0.00    -0.168 A  
HETATM   18  C   UNL     1     -10.124  10.458  65.567  1.00  0.00    -0.283 A  
HETATM   19  C   UNL     1     -10.530   9.332  67.665  1.00  0.00    -0.325 A  
HETATM   20  S   UNL     1     -10.578  11.900  64.743  1.00  0.00    -0.315 SA 
ENDBRANCH  11  12
ENDBRANCH   1  11
TORSDOF 3
ENDMDL
MODEL        6
REMARK 921   NORMALIZED FREE ENERGY PREDICTED BY IDOCK:   -6.40 KCAL/MOL
REMARK 922        TOTAL FREE ENERGY PREDICTED BY IDOCK:   -7.82 KCAL/MOL
REMARK 923 INTER-LIGAND FREE ENERGY PREDICTED BY IDOCK:   -7.47 KCAL/MOL
REMARK 924 INTRA-LIGAND FREE ENERGY PREDICTED BY IDOCK:   -0.36 KCAL/MOL
REMARK 927      BINDING AFFINITY PREDICTED BY RF-SCORE:    0.00 PKD
ROOT
HETATM    1  S   UNL     1     -12.396  13.957  66.191  1.00  0.00    -0.438 SA 
ENDROOT
BRANCH   1   2
HETATM    2  C   UNL     1     -11.491  12.452  66.075  1.00  0.00    -0.382 A  
HETATM    3  S   UNL     1     -10.430  12.148  64.763  1.00  0.00    -0.308 SA 
HETATM    4  N   UNL     1     -11.567  11.504  66.983  1.00  0.00    -0.535 NA 
HETATM    5  C   UNL     1     -10.015  10.627  65.452  1.00  0.00    -0.281 A  
HETATM    6  C   UNL     1     -10.723  10.462  66.644  1.00  0.00    -0.128 A  
HETATM    7  C   UNL     1      -9.130   9.647  64.973  1.00  0.00    -0.284 A  
HETATM    8  C   UNL     1     -10.535   9.279  67.387  1.00  0.00    -0.340 A  
HETATM    9  C   UNL     1      -8.971   8.476  65.723  1.00  0.00    -0.229 A  
HETATM   10  C   UNL     1      -9.661   8.294  66.918  1.00  0.00    -0.291 A  
ENDBRANCH   1   2
BRANCH   1  11
HETATM   11  S   UNL     1     -10.936  15.207  66.945  1.00  0.00    -0.311 SA 
BRANCH  11  12
HETATM   12  C   UNL     1     -11.378  15.189  68.646  1.00  0.00    -0.310 A  
HETATM   13  C   UNL     1     -13.442  14.229  72.662  1.00  0.00    -0.623 A  
HETATM   14  C   UNL     1     -12.842  15.396  73.124  1.00  0.00    -0.606 A  
HETATM   15  N   UNL     1     -12.131  14.247  69.170  1.00  0.00    -0.326 NA 
HETATM   16  C   UNL     1     -12.023  16.162  72.290  1.00  0.00    -0.637 A  
HETATM   17  C   UNL     1     -12.411  14.552  70.488  1.00  0.00    -0.344 A  
HETATM   18  C   UNL     1     -11.822  15.721  70.971  1.00  0.00    -0.420 A  
HETATM   19  C   UNL     1     -13.232  13.797  71.348  1.00  0.00    -0.378 A  
HETATM   20  S   UNL     1     -10.890  16.437  69.712  1.00  0.00    -0.298 SA 
ENDBRANCH  11  12
ENDBRANCH   1  11
TORSDOF 3
ENDMDL
MODEL        7
REMARK 921   NORMALIZED FREE ENERGY PREDICTED BY IDOCK:   -6.35 KCAL/MOL
REMARK 922        TOTAL FREE ENERGY PREDICTED BY IDOCK:   -7.77 KCAL/MOL
REMARK 923 INTER-LIGAND FREE ENERGY PREDICTED BY IDOCK:   -7.39 KCAL/MOL
REMARK 924 INTRA-LIGAND FREE ENERGY PREDICTED BY IDOCK:   -0.38 KCAL/MOL
REMARK 927      BINDING AFFINITY PREDICTED BY RF-SCORE:    0.00 PKD
ROOT
HETATM    1  S   UNL     1      -8.547  14.144  67.832  1.00  0.00    -0.191 SA 
ENDROOT
BRANCH   1   2
HETATM    2  C   UNL     1      -8.855  15.866  67.640  1.00  0.00    -0.174 A  
HETATM    3  S   UNL     1      -8.024  17.031  68.584  1.00  0.00    -0.255 SA 
HETATM    4  N   UNL     1      -9.713  16.343  66.765  1.00  0.00    -0.241 NA 
HETATM    5  C   UNL     1      -8.858  18.292  67.762  1.00  0.00    -0.263 A  
HETATM    6  C   UNL     1      -9.717  17.725  66.818  1.00  0.00    -0.309 A  
HETATM    7  C   UNL     1      -8.764  19.682  67.939  1.00  0.00    -0.372 A  
HETATM    8  C   UNL     1     -10.504  18.577  66.019  1.00  0.00    -0.433 A  
HETATM    9  C   UNL     1      -9.565  20.506  67.141  1.00  0.00    -0.570 A  
HETATM   10  C   UNL     1     -10.424  19.962  66.190  1.00  0.00    -0.581 A  
ENDBRANCH   1   2
BRANCH   1  11
HETATM   11  S   UNL     1     -10.295  13.368  67.056  1.00  0.00    -0.248 SA 
BRANCH  11  12
HETATM   12  C   UNL     1     -11.310  13.432  68.489  1.00  0.00    -0.289 A  
HETATM   13  C   UNL     1     -13.754  14.935  72.106  1.00  0.00    -0.550 A  
HETATM   14  C   UNL     1     -13.709  13.616  72.546  1.00  0.00    -0.663 A  
HETATM   15  N   UNL     1     -11.861  14.548  68.915  1.00  0.00    -0.324 NA 
HETATM   16  C   UNL     1     -13.066  12.630  71.793  1.00  0.00    -0.461 A  
HETATM   17  C   UNL     1     -12.500  14.323  70.119  1.00  0.00    -0.335 A  
HETATM   18  C   UNL     1     -12.464  13.006  70.580  1.00  0.00    -0.268 A  
HETATM   19  C   UNL     1     -13.156  15.299  70.895  1.00  0.00    -0.523 A  
HETATM   20  S   UNL     1     -11.599  12.041  69.447  1.00  0.00    -0.335 SA 
ENDBRANCH  11  12
ENDBRANCH   1  11
TORSDOF 3
ENDMDL
MODEL        8
REMARK 921   NORMALIZED FREE ENERGY PREDICTED BY IDOCK:   -6.34 KCAL/MOL
REMARK 922        TOTAL FREE ENERGY PREDICTED BY IDOCK:   -7.76 KCAL/MOL
REMARK 923 INTER-LIGAND FREE ENERGY PREDICTED BY IDOCK:   -7.50 KCAL/MOL
REMARK 924 INTRA-LIGAND FREE ENERGY PREDICTED BY IDOCK:   -0.26 KCAL/MOL
REMARK 927      BINDING AFFINITY PREDICTED BY RF-SCORE:    0.00 PKD
ROOT
HETATM    1  S   UNL     1     -10.846  15.023  66.950  1.00  0.00    -0.318 SA 
ENDROOT
BRANCH   1   2
HETATM    2  C   UNL     1     -11.342  15.050  68.638  1.00  0.00    -0.296 A  
HETATM    3  S   UNL     1     -10.878  16.326  69.684  1.00  0.00    -0.348 SA 
HETATM    4  N   UNL     1     -12.097  14.115  69.173  1.00  0.00    -0.344 NA 
HETATM    5  C   UNL     1     -11.761  15.594  70.968  1.00  0.00    -0.403 A  
HETATM    6  C   UNL     1     -12.351  14.419  70.498  1.00  0.00    -0.345 A  
HETATM    7  C   UNL     1     -11.919  16.025  72.295  1.00  0.00    -0.633 A  
HETATM    8  C   UNL     1     -13.131  13.651  71.385  1.00  0.00    -0.396 A  
HETATM    9  C   UNL     1     -12.689  15.238  73.159  1.00  0.00    -0.586 A  
HETATM   10  C   UNL     1     -13.291  14.066  72.710  1.00  0.00    -0.603 A  
ENDBRANCH   1   2
BRANCH   1  11
HETATM   11  S   UNL     1     -12.404  13.949  66.125  1.00  0.00    -0.438 SA 
BRANCH  11  12
HETATM   12  C   UNL     1     -11.498  12.649  65.365  1.00  0.00    -0.338 A  
HETATM   13  C   UNL     1      -8.680   9.064  64.645  1.00  0.00    -0.169 A  
HETATM   14  C   UNL     1      -8.768   9.405  63.299  1.00  0.00    -0.220 A  
HETATM   15  N   UNL     1     -10.915  11.696  66.058  1.00  0.00    -0.295 NA 
HETATM   16  C   UNL     1      -9.554  10.483  62.881  1.00  0.00    -0.355 A  
HETATM   17  C   UNL     1     -10.181  10.886  65.212  1.00  0.00    -0.288 A  
HETATM   18  C   UNL     1     -10.252  11.213  63.857  1.00  0.00    -0.362 A  
HETATM   19  C   UNL     1      -9.383   9.795  65.609  1.00  0.00    -0.285 A  
HETATM   20  S   UNL     1     -11.282  12.580  63.667  1.00  0.00    -0.475 SA 
ENDBRANCH  11  12
ENDBRANCH   1  11
TORSDOF 3
ENDMDL
MODEL        9
REMARK 921   NORMALIZED FREE ENERGY PREDICTED BY IDOCK:   -6.32 KCAL/MOL
REMARK 922        TOTAL FREE ENERGY PREDICTED BY IDOCK:   -7.73 KCAL/MOL
REMARK 923 INTER-LIGAND FREE ENERGY PREDICTED BY IDOCK:   -7.43 KCAL/MOL
REMARK 924 INTRA-LIGAND FREE ENERGY PREDICTED BY IDOCK:   -0.30 KCAL/MOL
REMARK 927      BINDING AFFINITY PREDICTED BY RF-SCORE:    0.00 PKD
ROOT
HETATM    1  S   UNL     1     -10.451  13.207  66.971  1.00  0.00    -0.248 SA 
ENDROOT
BRANCH   1   2
HETATM    2  C   UNL     1     -11.340  13.437  68.473  1.00  0.00    -0.289 A  
HETATM    3  S   UNL     1     -11.718  12.115  69.496  1.00  0.00    -0.320 SA 
HETATM    4  N   UNL     1     -11.739  14.618  68.891  1.00  0.00    -0.297 NA 
HETATM    5  C   UNL     1     -12.472  13.192  70.607  1.00  0.00    -0.286 A  
HETATM    6  C   UNL     1     -12.377  14.493  70.111  1.00  0.00    -0.342 A  
HETATM    7  C   UNL     1     -13.105  12.908  71.829  1.00  0.00    -0.458 A  
HETATM    8  C   UNL     1     -12.928  15.549  70.865  1.00  0.00    -0.526 A  
HETATM    9  C   UNL     1     -13.654  13.972  72.552  1.00  0.00    -0.670 A  
HETATM   10  C   UNL     1     -13.565  15.278  72.079  1.00  0.00    -0.571 A  
ENDBRANCH   1   2
BRANCH   1  11
HETATM   11  S   UNL     1      -8.603  13.945  67.521  1.00  0.00    -0.205 SA 
BRANCH  11  12
HETATM   12  C   UNL     1      -8.964  15.664  67.546  1.00  0.00    -0.192 A  
HETATM   13  C   UNL     1     -10.230  19.930  66.314  1.00  0.00    -0.614 A  
HETATM   14  C   UNL     1      -9.577  20.340  67.471  1.00  0.00    -0.562 A  
HETATM   15  N   UNL     1      -9.660  16.254  66.598  1.00  0.00    -0.233 NA 
HETATM   16  C   UNL     1      -8.968  19.412  68.320  1.00  0.00    -0.384 A  
HETATM   17  C   UNL     1      -9.684  17.618  66.817  1.00  0.00    -0.300 A  
HETATM   18  C   UNL     1      -9.031  18.052  67.972  1.00  0.00    -0.272 A  
HETATM   19  C   UNL     1     -10.291  18.573  65.978  1.00  0.00    -0.423 A  
HETATM   20  S   UNL     1      -8.380  16.685  68.792  1.00  0.00    -0.241 SA 
ENDBRANCH  11  12
ENDBRANCH   1  11
TORSDOF 3
ENDMDL
MODEL       10
REMARK 921   NORMALIZED FREE ENERGY PREDICTED BY IDOCK:   -6.25 KCAL/MOL
REMARK 922        TOTAL FREE ENERGY PREDICTED BY IDOCK:   -7.66 KCAL/MOL
REMARK 923 INTER-LIGAND FREE ENERGY PREDICTED BY IDOCK:   -7.31 KCAL/MOL
REMARK 924 INTRA-LIGAND FREE ENERGY PREDICTED BY IDOCK:   -0.35 KCAL/MOL
REMARK 927      BINDING AFFINITY PREDICTED BY RF-SCORE:    0.00 PKD
ROOT
HETATM    1  S   UNL     1      -9.641  15.304  67.740  1.00  0.00    -0.206 SA 
ENDROOT
BRANCH   1   2
HETATM    2  C   UNL     1     -10.662  15.070  69.154  1.00  0.00    -0.249 A  
HETATM    3  S   UNL     1     -11.683  13.700  69.299  1.00  0.00    -0.343 SA 
HETATM    4  N   UNL     1     -10.683  15.911  70.164  1.00  0.00    -0.330 NA 
HETATM    5  C   UNL     1     -12.200  14.251  70.846  1.00  0.00    -0.355 A  
HETATM    6  C   UNL     1     -11.548  15.451  71.140  1.00  0.00    -0.377 A  
HETATM    7  C   UNL     1     -13.118  13.668  71.735  1.00  0.00    -0.468 A  
HETATM    8  C   UNL     1     -11.818  16.086  72.368  1.00  0.00    -0.639 A  
HETATM    9  C   UNL     1     -13.377  14.325  72.942  1.00  0.00    -0.561 A  
HETATM   10  C   UNL     1     -12.734  15.518  73.259  1.00  0.00    -0.625 A  
ENDBRANCH   1   2
BRANCH   1  11
HETATM   11  S   UNL     1     -10.427  17.065  67.005  1.00  0.00    -0.236 SA 
BRANCH  11  12
HETATM   12  C   UNL     1      -9.089  18.153  67.345  1.00  0.00    -0.253 A  
HETATM   13  C   UNL     1      -5.652  20.402  69.452  1.00  0.00    -0.355 A  
HETATM   14  C   UNL     1      -5.758  21.317  68.411  1.00  0.00    -0.291 A  
HETATM   15  N   UNL     1      -8.309  18.007  68.394  1.00  0.00    -0.293 NA 
HETATM   16  C   UNL     1      -6.691  21.134  67.386  1.00  0.00    -0.429 A  
HETATM   17  C   UNL     1      -7.427  19.068  68.471  1.00  0.00    -0.317 A  
HETATM   18  C   UNL     1      -7.519  20.001  67.437  1.00  0.00    -0.279 A  
HETATM   19  C   UNL     1      -6.479  19.274  69.492  1.00  0.00    -0.338 A  
HETATM   20  S   UNL     1      -8.756  19.505  66.347  1.00  0.00    -0.365 SA 
ENDBRANCH  11  12
ENDBRANCH   1  11
TORSDOF 3
ENDMDL
MODEL       11
REMARK 921   NORMALIZED FREE ENERGY PREDICTED BY IDOCK:   -6.23 KCAL/MOL
REMARK 922        TOTAL FREE ENERGY PREDICTED BY IDOCK:   -7.62 KCAL/MOL
REMARK 923 INTER-LIGAND FREE ENERGY PREDICTED BY IDOCK:   -7.29 KCAL/MOL
REMARK 924 INTRA-LIGAND FREE ENERGY PREDICTED BY IDOCK:   -0.33 KCAL/MOL
REMARK 927      BINDING AFFINITY PREDICTED BY RF-SCORE:    0.00 PKD
ROOT
HETATM    1  S   UNL     1     -10.240  17.163  66.993  1.00  0.00    -0.312 SA 
ENDROOT
BRANCH   1   2
HETATM    2  C   UNL     1      -8.912  18.252  67.376  1.00  0.00    -0.257 A  
HETATM    3  S   UNL     1      -8.416  19.473  66.279  1.00  0.00    -0.328 SA 
HETATM    4  N   UNL     1      -8.251  18.199  68.512  1.00  0.00    -0.308 NA 
HETATM    5  C   UNL     1      -7.223  19.998  67.403  1.00  0.00    -0.260 A  
HETATM    6  C   UNL     1      -7.292  19.195  68.544  1.00  0.00    -0.313 A  
HETATM    7  C   UNL     1      -6.290  21.041  67.286  1.00  0.00    -0.405 A  
HETATM    8  C   UNL     1      -6.403  19.449  69.606  1.00  0.00    -0.333 A  
HETATM    9  C   UNL     1      -5.410  21.264  68.350  1.00  0.00    -0.260 A  
HETATM   10  C   UNL     1      -5.466  20.481  69.499  1.00  0.00    -0.372 A  
ENDBRANCH   1   2
BRANCH   1  11
HETATM   11  S   UNL     1      -9.491  15.392  67.744  1.00  0.00    -0.204 SA 
BRANCH  11  12
HETATM   12  C   UNL     1     -10.614  15.134  69.071  1.00  0.00    -0.245 A  
HETATM   13  C   UNL     1     -12.840  15.470  73.101  1.00  0.00    -0.610 A  
HETATM   14  C   UNL     1     -13.356  14.214  72.797  1.00  0.00    -0.618 A  
HETATM   15  N   UNL     1     -10.768  16.003  70.046  1.00  0.00    -0.325 NA 
HETATM   16  C   UNL     1     -13.020  13.570  71.603  1.00  0.00    -0.447 A  
HETATM   17  C   UNL     1     -11.619  15.485  71.003  1.00  0.00    -0.382 A  
HETATM   18  C   UNL     1     -12.145  14.224  70.719  1.00  0.00    -0.348 A  
HETATM   19  C   UNL     1     -11.974  16.114  72.212  1.00  0.00    -0.637 A  
HETATM   20  S   UNL     1     -11.540  13.697  69.195  1.00  0.00    -0.328 SA 
ENDBRANCH  11  12
ENDBRANCH   1  11
TORSDOF 3
ENDMDL
MODEL       12
REMARK 921   NORMALIZED FREE ENERGY PREDICTED BY IDOCK:   -6.21 KCAL/MOL
REMARK 922        TOTAL FREE ENERGY PREDICTED BY IDOCK:   -7.60 KCAL/MOL
REMARK 923 INTER-LIGAND FREE ENERGY PREDICTED BY IDOCK:   -7.20 KCAL/MOL
REMARK 924 INTRA-LIGAND FREE ENERGY PREDICTED BY IDOCK:   -0.41 KCAL/MOL
REMARK 927      BINDING AFFINITY PREDICTED BY RF-SCORE:    0.00 PKD
ROOT
HETATM    1  S   UNL     1     -10.834  14.769  67.177  1.00  0.00    -0.318 SA 
ENDROOT
BRANCH   1   2
HETATM    2  C   UNL     1     -11.444  15.080  68.798  1.00  0.00    -0.319 A  
HETATM    3  S   UNL     1     -10.462  15.817  69.995  1.00  0.00    -0.272 SA 
HETATM    4  N   UNL     1     -12.671  14.784  69.166  1.00  0.00     0.197 NA 
HETATM    5  C   UNL     1     -11.773  15.756  71.108  1.00  0.00    -0.428 A  
HETATM    6  C   UNL     1     -12.875  15.173  70.478  1.00  0.00    -0.348 A  
HETATM    7  C   UNL     1     -11.826  16.189  72.443  1.00  0.00    -0.637 A  
HETATM    8  C   UNL     1     -14.072  15.023  71.205  1.00  0.00    -0.516 A  
HETATM    9  C   UNL     1     -13.022  16.018  73.147  1.00  0.00    -0.627 A  
HETATM   10  C   UNL     1     -14.135  15.446  72.537  1.00  0.00    -0.593 A  
ENDBRANCH   1   2
BRANCH   1  11
HETATM   11  S   UNL     1     -11.979  13.131  66.660  1.00  0.00    -0.359 SA 
BRANCH  11  12
HETATM   12  C   UNL     1     -11.388  11.970  67.840  1.00  0.00    -0.305 A  
HETATM   13  C   UNL     1     -11.014   9.231  71.537  1.00  0.00    -0.446 A  
HETATM   14  C   UNL     1      -9.665   9.157  71.210  1.00  0.00    -0.351 A  
HETATM   15  N   UNL     1     -12.164  11.437  68.757  1.00  0.00    -0.494 NA 
HETATM   16  C   UNL     1      -9.159   9.824  70.091  1.00  0.00    -0.240 A  
HETATM   17  C   UNL     1     -11.409  10.659  69.613  1.00  0.00    -0.294 A  
HETATM   18  C   UNL     1     -10.050  10.574  69.306  1.00  0.00    -0.224 A  
HETATM   19  C   UNL     1     -11.895   9.977  70.746  1.00  0.00    -0.435 A  
HETATM   20  S   UNL     1      -9.740  11.505  67.891  1.00  0.00    -0.188 SA 
ENDBRANCH  11  12
ENDBRANCH   1  11
TORSDOF 3
ENDMDL
MODEL       13
REMARK 921   NORMALIZED FREE ENERGY PREDICTED BY IDOCK:   -6.20 KCAL/MOL
REMARK 922        TOTAL FREE ENERGY PREDICTED BY IDOCK:   -7.59 KCAL/MOL
REMARK 923 INTER-LIGAND FREE ENERGY PREDICTED BY IDOCK:   -7.24 KCAL/MOL
REMARK 924 INTRA-LIGAND FREE ENERGY PREDICTED BY IDOCK:   -0.35 KCAL/MOL
REMARK 927      BINDING AFFINITY PREDICTED BY RF-SCORE:    0.00 PKD
ROOT
HETATM    1  S   UNL     1      -9.728  14.094  67.541  1.00  0.00    -0.239 SA 
ENDROOT
BRANCH   1   2
HETATM    2  C   UNL     1     -10.723  14.276  68.980  1.00  0.00    -0.245 A  
HETATM    3  S   UNL     1     -11.869  13.082  69.429  1.00  0.00    -0.302 SA 
HETATM    4  N   UNL     1     -10.631  15.313  69.784  1.00  0.00    -0.272 NA 
HETATM    5  C   UNL     1     -12.282  14.003  70.823  1.00  0.00    -0.367 A  
HETATM    6  C   UNL     1     -11.508  15.165  70.843  1.00  0.00    -0.323 A  
HETATM    7  C   UNL     1     -13.225  13.723  71.825  1.00  0.00    -0.467 A  
HETATM    8  C   UNL     1     -11.677  16.074  71.906  1.00  0.00    -0.594 A  
HETATM    9  C   UNL     1     -13.382  14.648  72.863  1.00  0.00    -0.585 A  
HETATM   10  C   UNL     1     -12.616  15.809  72.906  1.00  0.00    -0.571 A  
ENDBRANCH   1   2
BRANCH   1  11
HETATM   11  S   UNL     1     -10.804  15.238  66.201  1.00  0.00    -0.305 SA 
BRANCH  11  12
HETATM   12  C   UNL     1      -9.942  16.762  66.351  1.00  0.00    -0.304 A  
HETATM   13  C   UNL     1      -6.635  19.983  66.361  1.00  0.00    -0.228 A  
HETATM   14  C   UNL     1      -7.526  20.740  67.114  1.00  0.00    -0.366 A  
HETATM   15  N   UNL     1      -8.742  16.947  65.848  1.00  0.00    -0.524 NA 
HETATM   16  C   UNL     1      -8.793  20.247  67.437  1.00  0.00    -0.442 A  
HETATM   17  C   UNL     1      -8.266  18.190  66.220  1.00  0.00    -0.212 A  
HETATM   18  C   UNL     1      -9.143  18.965  66.981  1.00  0.00    -0.294 A  
HETATM   19  C   UNL     1      -6.994  18.709  65.908  1.00  0.00    -0.305 A  
HETATM   20  S   UNL     1     -10.604  18.085  67.216  1.00  0.00    -0.297 SA 
ENDBRANCH  11  12
ENDBRANCH   1  11
TORSDOF 3
ENDMDL
MODEL       14
REMARK 921   NORMALIZED FREE ENERGY PREDICTED BY IDOCK:   -6.13 KCAL/MOL
REMARK 922        TOTAL FREE ENERGY PREDICTED BY IDOCK:   -7.51 KCAL/MOL
REMARK 923 INTER-LIGAND FREE ENERGY PREDICTED BY IDOCK:   -7.15 KCAL/MOL
REMARK 924 INTRA-LIGAND FREE ENERGY PREDICTED BY IDOCK:   -0.36 KCAL/MOL
REMARK 927      BINDING AFFINITY PREDICTED BY RF-SCORE:    0.00 PKD
ROOT
HETATM    1  S   UNL     1     -10.145  13.364  67.661  1.00  0.00    -0.233 SA 
ENDROOT
BRANCH   1   2
HETATM    2  C   UNL     1     -10.963  14.041  69.065  1.00  0.00    -0.259 A  
HETATM    3  S   UNL     1     -10.291  15.353  69.941  1.00  0.00    -0.256 SA 
HETATM    4  N   UNL     1     -12.121  13.595  69.499  1.00  0.00    -0.326 NA 
HETATM    5  C   UNL     1     -11.656  15.350  70.990  1.00  0.00    -0.367 A  
HETATM    6  C   UNL     1     -12.531  14.338  70.590  1.00  0.00    -0.358 A  
HETATM    7  C   UNL     1     -11.933  16.179  72.090  1.00  0.00    -0.623 A  
HETATM    8  C   UNL     1     -13.728  14.153  71.310  1.00  0.00    -0.278 A  
HETATM    9  C   UNL     1     -13.122  15.966  72.795  1.00  0.00    -0.580 A  
HETATM   10  C   UNL     1     -14.012  14.968  72.410  1.00  0.00    -0.593 A  
ENDBRANCH   1   2
BRANCH   1  11
HETATM   11  S   UNL     1     -11.039  14.454  66.153  1.00  0.00    -0.336 SA 
BRANCH  11  12
HETATM   12  C   UNL     1     -10.325  16.030  66.462  1.00  0.00    -0.299 A  
HETATM   13  C   UNL     1      -9.753  20.549  67.207  1.00  0.00    -0.600 A  
HETATM   14  C   UNL     1      -8.415  20.319  66.905  1.00  0.00    -0.354 A  
HETATM   15  N   UNL     1     -11.039  17.067  66.839  1.00  0.00     0.144 NA 
HETATM   16  C   UNL     1      -7.960  19.035  66.590  1.00  0.00    -0.282 A  
HETATM   17  C   UNL     1     -10.238  18.192  66.889  1.00  0.00    -0.372 A  
HETATM   18  C   UNL     1      -8.892  17.983  66.586  1.00  0.00    -0.266 A  
HETATM   19  C   UNL     1     -10.672  19.494  67.204  1.00  0.00    -0.599 A  
HETATM   20  S   UNL     1      -8.651  16.315  66.235  1.00  0.00    -0.316 SA 
ENDBRANCH  11  12
ENDBRANCH   1  11
TORSDOF 3
ENDMDL
MODEL       15
REMARK 921   NORMALIZED FREE ENERGY PREDICTED BY IDOCK:   -6.11 KCAL/MOL
REMARK 922        TOTAL FREE ENERGY PREDICTED BY IDOCK:   -7.48 KCAL/MOL
REMARK 923 INTER-LIGAND FREE ENERGY PREDICTED BY IDOCK:   -7.46 KCAL/MOL
REMARK 924 INTRA-LIGAND FREE ENERGY PREDICTED BY IDOCK:   -0.03 KCAL/MOL
REMARK 927      BINDING AFFINITY PREDICTED BY RF-SCORE:    0.00 PKD
ROOT
HETATM    1  S   UNL     1      -9.198  16.359  68.563  1.00  0.00    -0.234 SA 
ENDROOT
BRANCH   1   2
HETATM    2  C   UNL     1     -10.463  15.724  69.609  1.00  0.00    -0.289 A  
HETATM    3  S   UNL     1     -11.037  14.117  69.441  1.00  0.00    -0.182 SA 
HETATM    4  N   UNL     1     -11.014  16.432  70.571  1.00  0.00    -0.246 NA 
HETATM    5  C   UNL     1     -12.108  14.362  70.766  1.00  0.00    -0.338 A  
HETATM    6  C   UNL     1     -11.947  15.664  71.244  1.00  0.00    -0.415 A  
HETATM    7  C   UNL     1     -13.028  13.469  71.340  1.00  0.00    -0.421 A  
HETATM    8  C   UNL     1     -12.727  16.086  72.338  1.00  0.00    -0.496 A  
HETATM    9  C   UNL     1     -13.799  13.917  72.418  1.00  0.00    -0.668 A  
HETATM   10  C   UNL     1     -13.650  15.209  72.915  1.00  0.00    -0.557 A  
ENDBRANCH   1   2
BRANCH   1  11
HETATM   11  S   UNL     1     -10.330  16.984  66.954  1.00  0.00    -0.278 SA 
BRANCH  11  12
HETATM   12  C   UNL     1     -10.442  15.473  66.065  1.00  0.00    -0.323 A  
HETATM   13  C   UNL     1     -11.941  12.031  63.377  1.00  0.00    -0.571 A  
HETATM   14  C   UNL     1     -10.943  11.272  63.980  1.00  0.00    -0.377 A  
HETATM   15  N   UNL     1     -11.338  15.272  65.123  1.00  0.00    -0.346 NA 
HETATM   16  C   UNL     1     -10.094  11.832  64.939  1.00  0.00    -0.298 A  
HETATM   17  C   UNL     1     -11.270  13.963  64.685  1.00  0.00    -0.378 A  
HETATM   18  C   UNL     1     -10.278  13.183  65.280  1.00  0.00    -0.286 A  
HETATM   19  C   UNL     1     -12.112  13.376  63.721  1.00  0.00    -0.516 A  
HETATM   20  S   UNL     1      -9.415  14.147  66.416  1.00  0.00    -0.235 SA 
ENDBRANCH  11  12
ENDBRANCH   1  11
TORSDOF 3
ENDMDL
MODEL       16
REMARK 921   NORMALIZED FREE ENERGY PREDICTED BY IDOCK:   -6.10 KCAL/MOL
REMARK 922        TOTAL FREE ENERGY PREDICTED BY IDOCK:   -7.48 KCAL/MOL
REMARK 923 INTER-LIGAND FREE ENERGY PREDICTED BY IDOCK:   -7.30 KCAL/MOL
REMARK 924 INTRA-LIGAND FREE ENERGY PREDICTED BY IDOCK:   -0.18 KCAL/MOL
REMARK 927      BINDING AFFINITY PREDICTED BY RF-SCORE:    0.00 PKD
ROOT
HETATM    1  S   UNL     1     -11.753  12.937  66.694  1.00  0.00    -0.397 SA 
ENDROOT
BRANCH   1   2
HETATM    2  C   UNL     1     -11.277  11.834  67.980  1.00  0.00    -0.263 A  
HETATM    3  S   UNL     1      -9.632  11.432  68.246  1.00  0.00    -0.197 SA 
HETATM    4  N   UNL     1     -12.143  11.283  68.802  1.00  0.00    -0.545 NA 
HETATM    5  C   UNL     1     -10.090  10.444  69.579  1.00  0.00    -0.219 A  
HETATM    6  C   UNL     1     -11.478  10.495  69.725  1.00  0.00    -0.294 A  
HETATM    7  C   UNL     1      -9.282   9.676  70.434  1.00  0.00    -0.258 A  
HETATM    8  C   UNL     1     -12.078   9.759  70.765  1.00  0.00    -0.364 A  
HETATM    9  C   UNL     1      -9.905   8.944  71.451  1.00  0.00    -0.376 A  
HETATM   10  C   UNL     1     -11.286   8.986  71.619  1.00  0.00    -0.431 A  
ENDBRANCH   1   2
BRANCH   1  11
HETATM   11  S   UNL     1     -10.651  14.603  67.211  1.00  0.00    -0.289 SA 
BRANCH  11  12
HETATM   12  C   UNL     1     -11.252  14.864  68.841  1.00  0.00    -0.269 A  
HETATM   13  C   UNL     1     -14.012  15.237  72.523  1.00  0.00    -0.609 A  
HETATM   14  C   UNL     1     -12.955  15.927  73.109  1.00  0.00    -0.653 A  
HETATM   15  N   UNL     1     -12.447  14.472  69.225  1.00  0.00    -0.132 NA 
HETATM   16  C   UNL     1     -11.756  16.126  72.418  1.00  0.00    -0.550 A  
HETATM   17  C   UNL     1     -12.694  14.913  70.510  1.00  0.00    -0.347 A  
HETATM   18  C   UNL     1     -11.648  15.611  71.116  1.00  0.00    -0.412 A  
HETATM   19  C   UNL     1     -13.892  14.725  71.227  1.00  0.00    -0.460 A  
HETATM   20  S   UNL     1     -10.325  15.697  70.017  1.00  0.00    -0.240 SA 
ENDBRANCH  11  12
ENDBRANCH   1  11
TORSDOF 3
ENDMDL
MODEL       17
REMARK 921   NORMALIZED FREE ENERGY PREDICTED BY IDOCK:   -6.10 KCAL/MOL
REMARK 922        TOTAL FREE ENERGY PREDICTED BY IDOCK:   -7.47 KCAL/MOL
REMARK 923 INTER-LIGAND FREE ENERGY PREDICTED BY IDOCK:   -7.18 KCAL/MOL
REMARK 924 INTRA-LIGAND FREE ENERGY PREDICTED BY IDOCK:   -0.30 KCAL/MOL
REMARK 927      BINDING AFFINITY PREDICTED BY RF-SCORE:    0.00 PKD
ROOT
HETATM    1  S   UNL     1      -9.524  12.694  67.256  1.00  0.00    -0.205 SA 
ENDROOT
BRANCH   1   2
HETATM    2  C   UNL     1     -10.444  11.956  68.562  1.00  0.00    -0.224 A  
HETATM    3  S   UNL     1     -11.725  12.793  69.334  1.00  0.00    -0.301 SA 
HETATM    4  N   UNL     1     -10.212  10.737  68.996  1.00  0.00    -0.206 NA 
HETATM    5  C   UNL     1     -12.019  11.422  70.333  1.00  0.00    -0.374 A  
HETATM    6  C   UNL     1     -11.109  10.417  69.999  1.00  0.00    -0.314 A  
HETATM    7  C   UNL     1     -12.981  11.247  71.341  1.00  0.00    -0.482 A  
HETATM    8  C   UNL     1     -11.167   9.192  70.692  1.00  0.00    -0.322 A  
HETATM    9  C   UNL     1     -13.010  10.026  72.022  1.00  0.00    -0.514 A  
HETATM   10  C   UNL     1     -12.117   9.007  71.701  1.00  0.00    -0.422 A  
ENDBRANCH   1   2
BRANCH   1  11
HETATM   11  S   UNL     1     -11.058  13.511  66.142  1.00  0.00    -0.294 SA 
BRANCH  11  12
HETATM   12  C   UNL     1     -10.727  15.220  66.389  1.00  0.00    -0.318 A  
HETATM   13  C   UNL     1     -10.089  19.358  68.332  1.00  0.00    -0.538 A  
HETATM   14  C   UNL     1     -10.225  19.863  67.043  1.00  0.00    -0.588 A  
HETATM   15  N   UNL     1     -10.474  15.726  67.576  1.00  0.00    -0.282 NA 
HETATM   16  C   UNL     1     -10.436  19.010  65.956  1.00  0.00    -0.530 A  
HETATM   17  C   UNL     1     -10.373  17.101  67.485  1.00  0.00    -0.341 A  
HETATM   18  C   UNL     1     -10.510  17.629  66.201  1.00  0.00    -0.295 A  
HETATM   19  C   UNL     1     -10.160  17.980  68.564  1.00  0.00    -0.399 A  
HETATM   20  S   UNL     1     -10.768  16.338  65.091  1.00  0.00    -0.227 SA 
ENDBRANCH  11  12
ENDBRANCH   1  11
TORSDOF 3
ENDMDL
MODEL       18
REMARK 921   NORMALIZED FREE ENERGY PREDICTED BY IDOCK:   -6.09 KCAL/MOL
REMARK 922        TOTAL FREE ENERGY PREDICTED BY IDOCK:   -7.46 KCAL/MOL
REMARK 923 INTER-LIGAND FREE ENERGY PREDICTED BY IDOCK:   -7.17 KCAL/MOL
REMARK 924 INTRA-LIGAND FREE ENERGY PREDICTED BY IDOCK:   -0.29 KCAL/MOL
REMARK 927      BINDING AFFINITY PREDICTED BY RF-SCORE:    0.00 PKD
ROOT
HETATM    1  S   UNL     1     -11.445  13.726  66.502  1.00  0.00    -0.364 SA 
ENDROOT
BRANCH   1   2
HETATM    2  C   UNL     1     -10.992  15.419  66.660  1.00  0.00    -0.275 A  
HETATM    3  S   UNL     1     -10.877  16.442  65.289  1.00  0.00    -0.159 SA 
HETATM    4  N   UNL     1     -10.739  15.984  67.820  1.00  0.00    -0.316 NA 
HETATM    5  C   UNL     1     -10.466  17.764  66.311  1.00  0.00    -0.307 A  
HETATM    6  C   UNL     1     -10.447  17.323  67.636  1.00  0.00    -0.363 A  
HETATM    7  C   UNL     1     -10.177  19.096  65.969  1.00  0.00    -0.494 A  
HETATM    8  C   UNL     1     -10.135  18.245  68.654  1.00  0.00    -0.407 A  
HETATM    9  C   UNL     1      -9.859  19.989  66.998  1.00  0.00    -0.566 A  
HETATM   10  C   UNL     1      -9.841  19.572  68.325  1.00  0.00    -0.512 A  
ENDBRANCH   1   2
BRANCH   1  11
HETATM   11  S   UNL     1      -9.814  12.824  67.391  1.00  0.00    -0.213 SA 
BRANCH  11  12
HETATM   12  C   UNL     1     -10.617  12.005  68.722  1.00  0.00    -0.209 A  
HETATM   13  C   UNL     1     -12.218   8.760  71.589  1.00  0.00    -0.399 A  
HETATM   14  C   UNL     1     -13.074   9.750  72.057  1.00  0.00    -0.546 A  
HETATM   15  N   UNL     1     -10.372  10.750  69.030  1.00  0.00    -0.207 NA 
HETATM   16  C   UNL     1     -13.031  11.045  71.531  1.00  0.00    -0.553 A  
HETATM   17  C   UNL     1     -11.229  10.340  70.034  1.00  0.00    -0.311 A  
HETATM   18  C   UNL     1     -12.100  11.318  70.515  1.00  0.00    -0.387 A  
HETATM   19  C   UNL     1     -11.291   9.043  70.580  1.00  0.00    -0.311 A  
HETATM   20  S   UNL     1     -11.811  12.789  69.668  1.00  0.00    -0.273 SA 
ENDBRANCH  11  12
ENDBRANCH   1  11
TORSDOF 3
ENDMDL
MODEL       19
REMARK 921   NORMALIZED FREE ENERGY PREDICTED BY IDOCK:   -6.09 KCAL/MOL
REMARK 922        TOTAL FREE ENERGY PREDICTED BY IDOCK:   -7.46 KCAL/MOL
REMARK 923 INTER-LIGAND FREE ENERGY PREDICTED BY IDOCK:   -7.18 KCAL/MOL
REMARK 924 INTRA-LIGAND FREE ENERGY PREDICTED BY IDOCK:   -0.28 KCAL/MOL
REMARK 927      BINDING AFFINITY PREDICTED BY RF-SCORE:    0.00 PKD
ROOT
HETATM    1  S   UNL     1     -12.392  13.882  66.205  1.00  0.00    -0.438 SA 
ENDROOT
BRANCH   1   2
HETATM    2  C   UNL     1     -11.308  12.638  65.593  1.00  0.00    -0.322 A  
HETATM    3  S   UNL     1     -10.780  11.347  66.591  1.00  0.00    -0.275 SA 
HETATM    4  N   UNL     1     -10.867  12.624  64.355  1.00  0.00    -0.332 NA 
HETATM    5  C   UNL     1      -9.892  10.692  65.270  1.00  0.00    -0.275 A  
HETATM    6  C   UNL     1     -10.066  11.514  64.155  1.00  0.00    -0.307 A  
HETATM    7  C   UNL     1      -9.095   9.536  65.222  1.00  0.00    -0.276 A  
HETATM    8  C   UNL     1      -9.427  11.165  62.949  1.00  0.00    -0.382 A  
HETATM    9  C   UNL     1      -8.462   9.219  64.016  1.00  0.00    -0.202 A  
HETATM   10  C   UNL     1      -8.627  10.020  62.890  1.00  0.00    -0.194 A  
ENDBRANCH   1   2
BRANCH   1  11
HETATM   11  S   UNL     1     -11.019  15.253  66.909  1.00  0.00    -0.288 SA 
BRANCH  11  12
HETATM   12  C   UNL     1     -11.378  15.177  68.628  1.00  0.00    -0.310 A  
HETATM   13  C   UNL     1     -13.251  14.088  72.704  1.00  0.00    -0.606 A  
HETATM   14  C   UNL     1     -12.622  15.235  73.177  1.00  0.00    -0.577 A  
HETATM   15  N   UNL     1     -12.110  14.221  69.155  1.00  0.00    -0.326 NA 
HETATM   16  C   UNL     1     -11.839  16.026  72.331  1.00  0.00    -0.639 A  
HETATM   17  C   UNL     1     -12.325  14.482  70.495  1.00  0.00    -0.337 A  
HETATM   18  C   UNL     1     -11.705  15.631  70.989  1.00  0.00    -0.403 A  
HETATM   19  C   UNL     1     -13.108  13.701  71.368  1.00  0.00    -0.396 A  
HETATM   20  S   UNL     1     -10.830  16.385  69.712  1.00  0.00    -0.298 SA 
ENDBRANCH  11  12
ENDBRANCH   1  11
TORSDOF 3
ENDMDL
MODEL       20
REMARK 921   NORMALIZED FREE ENERGY PREDICTED BY IDOCK:   -6.08 KCAL/MOL
REMARK 922        TOTAL FREE ENERGY PREDICTED BY IDOCK:   -7.45 KCAL/MOL
REMARK 923 INTER-LIGAND FREE ENERGY PREDICTED BY IDOCK:   -7.16 KCAL/MOL
REMARK 924 INTRA-LIGAND FREE ENERGY PREDICTED BY IDOCK:   -0.29 KCAL/MOL
REMARK 927      BINDING AFFINITY PREDICTED BY RF-SCORE:    0.00 PKD
ROOT
HETATM    1  S   UNL     1     -10.865  14.055  66.178  1.00  0.00    -0.295 SA 
ENDROOT
BRANCH   1   2
HETATM    2  C   UNL     1     -10.636  15.715  66.715  1.00  0.00    -0.307 A  
HETATM    3  S   UNL     1     -10.401  16.092  68.371  1.00  0.00    -0.270 SA 
HETATM    4  N   UNL     1     -10.617  16.735  65.885  1.00  0.00    -0.296 NA 
HETATM    5  C   UNL     1     -10.246  17.759  67.968  1.00  0.00    -0.377 A  
HETATM    6  C   UNL     1     -10.386  17.905  66.586  1.00  0.00    -0.361 A  
HETATM    7  C   UNL     1     -10.020  18.859  68.811  1.00  0.00    -0.466 A  
HETATM    8  C   UNL     1     -10.290  19.195  66.027  1.00  0.00    -0.538 A  
HETATM    9  C   UNL     1      -9.941  20.130  68.233  1.00  0.00    -0.452 A  
HETATM   10  C   UNL     1     -10.071  20.298  66.857  1.00  0.00    -0.565 A  
ENDBRANCH   1   2
BRANCH   1  11
HETATM   11  S   UNL     1      -9.296  13.133  67.153  1.00  0.00    -0.243 SA 
BRANCH  11  12
HETATM   12  C   UNL     1     -10.195  12.136  68.287  1.00  0.00    -0.208 A  
HETATM   13  C   UNL     1     -12.953  10.736  71.714  1.00  0.00    -0.568 A  
HETATM   14  C   UNL     1     -12.315   9.508  71.580  1.00  0.00    -0.480 A  
HETATM   15  N   UNL     1     -11.172  12.612  69.026  1.00  0.00    -0.268 NA 
HETATM   16  C   UNL     1     -11.321   9.316  70.616  1.00  0.00    -0.330 A  
HETATM   17  C   UNL     1     -11.612  11.639  69.902  1.00  0.00    -0.288 A  
HETATM   18  C   UNL     1     -10.982  10.399  69.787  1.00  0.00    -0.293 A  
HETATM   19  C   UNL     1     -12.612  11.807  70.881  1.00  0.00    -0.384 A  
HETATM   20  S   UNL     1      -9.809  10.484  68.530  1.00  0.00    -0.175 SA 
ENDBRANCH  11  12
ENDBRANCH   1  11
TORSDOF 3
ENDMDL
MODEL       21
REMARK 921   NORMALIZED FREE ENERGY PREDICTED BY IDOCK:   -6.06 KCAL/MOL
REMARK 922        TOTAL FREE ENERGY PREDICTED BY IDOCK:   -7.43 KCAL/MOL
REMARK 923 INTER-LIGAND FREE ENERGY PREDICTED BY IDOCK:   -7.14 KCAL/MOL
REMARK 924 INTRA-LIGAND FREE ENERGY PREDICTED BY IDOCK:   -0.29 KCAL/MOL
REMARK 927      BINDING AFFINITY PREDICTED BY RF-SCORE:    0.00 PKD
ROOT
HETATM    1  S   UNL     1     -11.021  15.023  66.953  1.00  0.00    -0.324 SA 
ENDROOT
BRANCH   1   2
HETATM    2  C   UNL     1     -11.602  14.851  68.605  1.00  0.00    -0.318 A  
HETATM    3  S   UNL     1     -12.109  13.332  69.219  1.00  0.00    -0.172 SA 
HETATM    4  N   UNL     1     -11.661  15.859  69.448  1.00  0.00    -0.360 NA 
HETATM    5  C   UNL     1     -12.429  14.057  70.747  1.00  0.00    -0.372 A  
HETATM    6  C   UNL     1     -12.122  15.418  70.675  1.00  0.00    -0.369 A  
HETATM    7  C   UNL     1     -12.920  13.468  71.924  1.00  0.00    -0.431 A  
HETATM    8  C   UNL     1     -12.305  16.215  71.822  1.00  0.00    -0.398 A  
HETATM    9  C   UNL     1     -13.104  14.285  73.044  1.00  0.00    -0.526 A  
HETATM   10  C   UNL     1     -12.798  15.642  72.998  1.00  0.00    -0.599 A  
ENDBRANCH   1   2
BRANCH   1  11
HETATM   11  S   UNL     1     -12.496  13.999  65.935  1.00  0.00    -0.432 SA 
BRANCH  11  12
HETATM   12  C   UNL     1     -11.548  12.661  65.305  1.00  0.00    -0.351 A  
HETATM   13  C   UNL     1      -8.738   9.014  64.964  1.00  0.00    -0.217 A  
HETATM   14  C   UNL     1      -8.698   9.309  63.605  1.00  0.00    -0.188 A  
HETATM   15  N   UNL     1     -11.046  11.724  66.079  1.00  0.00    -0.319 NA 
HETATM   16  C   UNL     1      -9.424  10.383  63.082  1.00  0.00    -0.362 A  
HETATM   17  C   UNL     1     -10.253  10.875  65.331  1.00  0.00    -0.277 A  
HETATM   18  C   UNL     1     -10.195  11.157  63.965  1.00  0.00    -0.361 A  
HETATM   19  C   UNL     1      -9.513   9.788  65.834  1.00  0.00    -0.285 A  
HETATM   20  S   UNL     1     -11.179  12.531  63.637  1.00  0.00    -0.475 SA 
ENDBRANCH  11  12
ENDBRANCH   1  11
TORSDOF 3
ENDMDL
MODEL       22
REMARK 921   NORMALIZED FREE ENERGY PREDICTED BY IDOCK:   -6.04 KCAL/MOL
REMARK 922        TOTAL FREE ENERGY PREDICTED BY IDOCK:   -7.41 KCAL/MOL
REMARK 923 INTER-LIGAND FREE ENERGY PREDICTED BY IDOCK:   -7.19 KCAL/MOL
REMARK 924 INTRA-LIGAND FREE ENERGY PREDICTED BY IDOCK:   -0.22 KCAL/MOL
REMARK 927      BINDING AFFINITY PREDICTED BY RF-SCORE:    0.00 PKD
ROOT
HETATM    1  S   UNL     1     -10.781  16.529  68.739  1.00  0.00    -0.353 SA 
ENDROOT
BRANCH   1   2
HETATM    2  C   UNL     1     -11.517  15.241  69.686  1.00  0.00    -0.305 A  
HETATM    3  S   UNL     1     -12.582  15.586  70.985  1.00  0.00    -0.464 SA 
HETATM    4  N   UNL     1     -11.306  13.966  69.440  1.00  0.00    -0.263 NA 
HETATM    5  C   UNL     1     -12.802  13.899  71.251  1.00  0.00    -0.360 A  
HETATM    6  C   UNL     1     -12.040  13.191  70.319  1.00  0.00    -0.328 A  
HETATM    7  C   UNL     1     -13.589  13.248  72.215  1.00  0.00    -0.703 A  
HETATM    8  C   UNL     1     -12.071  11.783  70.348  1.00  0.00    -0.440 A  
HETATM    9  C   UNL     1     -13.592  11.849  72.230  1.00  0.00    -0.109 A  
HETATM   10  C   UNL     1     -12.846  11.123  71.306  1.00  0.00    -0.515 A  
ENDBRANCH   1   2
BRANCH   1  11
HETATM   11  S   UNL     1      -9.056  15.585  68.111  1.00  0.00    -0.186 SA 
BRANCH  11  12
HETATM   12  C   UNL     1      -9.708  14.619  66.795  1.00  0.00    -0.257 A  
HETATM   13  C   UNL     1     -12.383  13.039  63.382  1.00  0.00    -0.478 A  
HETATM   14  C   UNL     1     -11.680  11.848  63.528  1.00  0.00    -0.550 A  
HETATM   15  N   UNL     1     -10.652  15.061  65.995  1.00  0.00    -0.308 NA 
HETATM   16  C   UNL     1     -10.657  11.730  64.473  1.00  0.00    -0.364 A  
HETATM   17  C   UNL     1     -11.049  14.052  65.139  1.00  0.00    -0.341 A  
HETATM   18  C   UNL     1     -10.359  12.847  65.272  1.00  0.00    -0.300 A  
HETATM   19  C   UNL     1     -12.076  14.147  64.179  1.00  0.00    -0.437 A  
HETATM   20  S   UNL     1      -9.178  13.014  66.514  1.00  0.00    -0.125 SA 
ENDBRANCH  11  12
ENDBRANCH   1  11
TORSDOF 3
ENDMDL
MODEL       23
REMARK 921   NORMALIZED FREE ENERGY PREDICTED BY IDOCK:   -6.03 KCAL/MOL
REMARK 922        TOTAL FREE ENERGY PREDICTED BY IDOCK:   -7.40 KCAL/MOL
REMARK 923 INTER-LIGAND FREE ENERGY PREDICTED BY IDOCK:   -7.15 KCAL/MOL
REMARK 924 INTRA-LIGAND FREE ENERGY PREDICTED BY IDOCK:   -0.25 KCAL/MOL
REMARK 927      BINDING AFFINITY PREDICTED BY RF-SCORE:    0.00 PKD
ROOT
HETATM    1  S   UNL     1     -10.292  16.893  66.807  1.00  0.00    -0.272 SA 
ENDROOT
BRANCH   1   2
HETATM    2  C   UNL     1     -10.641  15.445  65.870  1.00  0.00    -0.339 A  
HETATM    3  S   UNL     1     -11.887  15.424  64.693  1.00  0.00    -0.122 SA 
HETATM    4  N   UNL     1      -9.964  14.326  66.009  1.00  0.00    -0.307 NA 
HETATM    5  C   UNL     1     -11.500  13.790  64.314  1.00  0.00    -0.340 A  
HETATM    6  C   UNL     1     -10.438  13.378  65.121  1.00  0.00    -0.347 A  
HETATM    7  C   UNL     1     -12.094  12.932  63.373  1.00  0.00    -0.610 A  
HETATM    8  C   UNL     1      -9.947  12.065  64.978  1.00  0.00    -0.259 A  
HETATM    9  C   UNL     1     -11.596  11.629  63.260  1.00  0.00    -0.246 A  
HETATM   10  C   UNL     1     -10.533  11.199  64.050  1.00  0.00    -0.447 A  
ENDBRANCH   1   2
BRANCH   1  11
HETATM   11  S   UNL     1      -9.105  16.092  68.294  1.00  0.00    -0.195 SA 
BRANCH  11  12
HETATM   12  C   UNL     1     -10.351  15.543  69.406  1.00  0.00    -0.258 A  
HETATM   13  C   UNL     1     -13.153  15.148  73.053  1.00  0.00    -0.605 A  
HETATM   14  C   UNL     1     -13.417  13.870  72.574  1.00  0.00    -0.676 A  
HETATM   15  N   UNL     1     -10.776  16.278  70.409  1.00  0.00    -0.194 NA 
HETATM   16  C   UNL     1     -12.818  13.404  71.401  1.00  0.00    -0.420 A  
HETATM   17  C   UNL     1     -11.664  15.550  71.179  1.00  0.00    -0.391 A  
HETATM   18  C   UNL     1     -11.940  14.262  70.718  1.00  0.00    -0.320 A  
HETATM   19  C   UNL     1     -12.281  15.997  72.363  1.00  0.00    -0.603 A  
HETATM   20  S   UNL     1     -11.049  13.984  69.271  1.00  0.00    -0.199 SA 
ENDBRANCH  11  12
ENDBRANCH   1  11
TORSDOF 3
ENDMDL
MODEL       24
REMARK 921   NORMALIZED FREE ENERGY PREDICTED BY IDOCK:   -6.03 KCAL/MOL
REMARK 922        TOTAL FREE ENERGY PREDICTED BY IDOCK:   -7.39 KCAL/MOL
REMARK 923 INTER-LIGAND FREE ENERGY PREDICTED BY IDOCK:   -6.95 KCAL/MOL
REMARK 924 INTRA-LIGAND FREE ENERGY PREDICTED BY IDOCK:   -0.44 KCAL/MOL
REMARK 927      BINDING AFFINITY PREDICTED BY RF-SCORE:    0.00 PKD
ROOT
HETATM    1  S   UNL     1     -12.146  14.649  69.335  1.00  0.00    -0.246 SA 
ENDROOT
BRANCH   1   2
HETATM    2  C   UNL     1     -11.787  13.814  67.829  1.00  0.00    -0.369 A  
HETATM    3  S   UNL     1     -10.783  12.425  67.798  1.00  0.00    -0.229 SA 
HETATM    4  N   UNL     1     -12.277  14.194  66.669  1.00  0.00    -0.456 NA 
HETATM    5  C   UNL     1     -11.016  12.295  66.097  1.00  0.00    -0.293 A  
HETATM    6  C   UNL     1     -11.852  13.331  65.675  1.00  0.00    -0.380 A  
HETATM    7  C   UNL     1     -10.496  11.349  65.199  1.00  0.00    -0.351 A  
HETATM    8  C   UNL     1     -12.186  13.420  64.309  1.00  0.00    -0.450 A  
HETATM    9  C   UNL     1     -10.832  11.467  63.846  1.00  0.00    -0.463 A  
HETATM   10  C   UNL     1     -11.670  12.487  63.404  1.00  0.00    -0.567 A  
ENDBRANCH   1   2
BRANCH   1  11
HETATM   11  S   UNL     1     -10.234  14.978  70.039  1.00  0.00     0.057 SA 
BRANCH  11  12
HETATM   12  C   UNL     1      -9.794  16.372  69.064  1.00  0.00    -0.266 A  
HETATM   13  C   UNL     1      -9.989  20.160  66.432  1.00  0.00    -0.573 A  
HETATM   14  C   UNL     1      -8.658  19.889  66.133  1.00  0.00    -0.348 A  
HETATM   15  N   UNL     1     -10.652  17.320  68.758  1.00  0.00    -0.332 NA 
HETATM   16  C   UNL     1      -8.005  18.789  66.698  1.00  0.00    -0.278 A  
HETATM   17  C   UNL     1     -10.065  18.219  67.889  1.00  0.00    -0.361 A  
HETATM   18  C   UNL     1      -8.730  17.964  67.573  1.00  0.00    -0.243 A  
HETATM   19  C   UNL     1     -10.701  19.334  67.308  1.00  0.00    -0.594 A  
HETATM   20  S   UNL     1      -8.220  16.548  68.410  1.00  0.00    -0.204 SA 
ENDBRANCH  11  12
ENDBRANCH   1  11
TORSDOF 3
ENDMDL
MODEL       25
REMARK 921   NORMALIZED FREE ENERGY PREDICTED BY IDOCK:   -6.02 KCAL/MOL
REMARK 922        TOTAL FREE ENERGY PREDICTED BY IDOCK:   -7.38 KCAL/MOL
REMARK 923 INTER-LIGAND FREE ENERGY PREDICTED BY IDOCK:   -7.23 KCAL/MOL
REMARK 924 INTRA-LIGAND FREE ENERGY PREDICTED BY IDOCK:   -0.15 KCAL/MOL
REMARK 927      BINDING AFFINITY PREDICTED BY RF-SCORE:    0.00 PKD
ROOT
HETATM    1  S   UNL     1     -11.420  13.938  68.111  1.00  0.00    -0.334 SA 
ENDROOT
BRANCH   1   2
HETATM    2  C   UNL     1     -11.009  15.646  68.011  1.00  0.00    -0.318 A  
HETATM    3  S   UNL     1     -10.626  16.554  69.414  1.00  0.00    -0.321 SA 
HETATM    4  N   UNL     1     -10.960  16.302  66.873  1.00  0.00    -0.143 NA 
HETATM    5  C   UNL     1     -10.355  17.946  68.438  1.00  0.00    -0.374 A  
HETATM    6  C   UNL     1     -10.578  17.611  67.101  1.00  0.00    -0.276 A  
HETATM    7  C   UNL     1      -9.975  19.242  68.825  1.00  0.00    -0.511 A  
HETATM    8  C   UNL     1     -10.410  18.604  66.116  1.00  0.00    -0.481 A  
HETATM    9  C   UNL     1      -9.826  20.212  67.829  1.00  0.00    -0.547 A  
HETATM   10  C   UNL     1     -10.037  19.899  66.490  1.00  0.00    -0.607 A  
ENDBRANCH   1   2
BRANCH   1  11
HETATM   11  S   UNL     1     -12.271  13.872  69.990  1.00  0.00    -0.329 SA 
BRANCH  11  12
HETATM   12  C   UNL     1     -12.157  12.147  70.308  1.00  0.00    -0.302 A  
HETATM   13  C   UNL     1     -12.456   7.995  72.302  1.00  0.00    -0.302 A  
HETATM   14  C   UNL     1     -11.523   7.592  71.353  1.00  0.00    -0.290 A  
HETATM   15  N   UNL     1     -12.831  11.560  71.272  1.00  0.00    -0.399 NA 
HETATM   16  C   UNL     1     -11.037   8.490  70.397  1.00  0.00    -0.246 A  
HETATM   17  C   UNL     1     -12.456  10.234  71.363  1.00  0.00    -0.424 A  
HETATM   18  C   UNL     1     -11.517   9.810  70.422  1.00  0.00    -0.280 A  
HETATM   19  C   UNL     1     -12.931   9.311  72.316  1.00  0.00    -0.488 A  
HETATM   20  S   UNL     1     -11.112  11.136  69.401  1.00  0.00    -0.253 SA 
ENDBRANCH  11  12
ENDBRANCH   1  11
TORSDOF 3
ENDMDL
MODEL       26
REMARK 921   NORMALIZED FREE ENERGY PREDICTED BY IDOCK:   -6.02 KCAL/MOL
REMARK 922        TOTAL FREE ENERGY PREDICTED BY IDOCK:   -7.38 KCAL/MOL
REMARK 923 INTER-LIGAND FREE ENERGY PREDICTED BY IDOCK:   -7.03 KCAL/MOL
REMARK 924 INTRA-LIGAND FREE ENERGY PREDICTED BY IDOCK:   -0.35 KCAL/MOL
REMARK 927      BINDING AFFINITY PREDICTED BY RF-SCORE:    0.00 PKD
ROOT
HETATM    1  S   UNL     1     -12.267  13.054  65.684  1.00  0.00    -0.447 SA 
ENDROOT
BRANCH   1   2
HETATM    2  C   UNL     1     -11.525  14.556  66.221  1.00  0.00    -0.358 A  
HETATM    3  S   UNL     1     -10.867  15.676  65.102  1.00  0.00    -0.419 SA 
HETATM    4  N   UNL     1     -11.452  14.901  67.488  1.00  0.00    -0.346 NA 
HETATM    5  C   UNL     1     -10.453  16.729  66.400  1.00  0.00    -0.269 A  
HETATM    6  C   UNL     1     -10.852  16.142  67.603  1.00  0.00    -0.297 A  
HETATM    7  C   UNL     1      -9.819  17.981  66.360  1.00  0.00    -0.340 A  
HETATM    8  C   UNL     1     -10.614  16.834  68.807  1.00  0.00    -0.348 A  
HETATM    9  C   UNL     1      -9.583  18.642  67.570  1.00  0.00    -0.317 A  
HETATM   10  C   UNL     1      -9.979  18.079  68.780  1.00  0.00    -0.380 A  
ENDBRANCH   1   2
BRANCH   1  11
HETATM   11  S   UNL     1     -10.670  11.761  65.885  1.00  0.00    -0.290 SA 
BRANCH  11  12
HETATM   12  C   UNL     1     -11.071  11.033  67.433  1.00  0.00    -0.305 A  
HETATM   13  C   UNL     1     -12.649  10.353  71.717  1.00  0.00    -0.468 A  
HETATM   14  C   UNL     1     -11.820   9.236  71.729  1.00  0.00    -0.454 A  
HETATM   15  N   UNL     1     -11.935  11.571  68.265  1.00  0.00    -0.590 NA 
HETATM   16  C   UNL     1     -11.048   8.903  70.612  1.00  0.00    -0.306 A  
HETATM   17  C   UNL     1     -11.960  10.851  69.444  1.00  0.00    -0.322 A  
HETATM   18  C   UNL     1     -11.131   9.728  69.478  1.00  0.00    -0.192 A  
HETATM   19  C   UNL     1     -12.728  11.165  70.581  1.00  0.00    -0.350 A  
HETATM   20  S   UNL     1     -10.311   9.594  67.970  1.00  0.00    -0.231 SA 
ENDBRANCH  11  12
ENDBRANCH   1  11
TORSDOF 3
ENDMDL
MODEL       27
REMARK 921   NORMALIZED FREE ENERGY PREDICTED BY IDOCK:   -5.99 KCAL/MOL
REMARK 922        TOTAL FREE ENERGY PREDICTED BY IDOCK:   -7.35 KCAL/MOL
REMARK 923 INTER-LIGAND FREE ENERGY PREDICTED BY IDOCK:   -7.13 KCAL/MOL
REMARK 924 INTRA-LIGAND FREE ENERGY PREDICTED BY IDOCK:   -0.22 KCAL/MOL
REMARK 927      BINDING AFFINITY PREDICTED BY RF-SCORE:    0.00 PKD
ROOT
HETATM    1  S   UNL     1      -9.716  12.678  67.779  1.00  0.00    -0.212 SA 
ENDROOT
BRANCH   1   2
HETATM    2  C   UNL     1     -10.472  11.592  68.939  1.00  0.00    -0.175 A  
HETATM    3  S   UNL     1      -9.849  10.021  69.228  1.00  0.00    -0.226 SA 
HETATM    4  N   UNL     1     -11.529  11.929  69.646  1.00  0.00    -0.284 NA 
HETATM    5  C   UNL     1     -11.075   9.752  70.406  1.00  0.00    -0.307 A  
HETATM    6  C   UNL     1     -11.876  10.892  70.493  1.00  0.00    -0.360 A  
HETATM    7  C   UNL     1     -11.314   8.615  71.195  1.00  0.00    -0.329 A  
HETATM    8  C   UNL     1     -12.950  10.899  71.405  1.00  0.00    -0.527 A  
HETATM    9  C   UNL     1     -12.394   8.643  72.084  1.00  0.00    -0.452 A  
HETATM   10  C   UNL     1     -13.202   9.771  72.192  1.00  0.00    -0.530 A  
ENDBRANCH   1   2
BRANCH   1  11
HETATM   11  S   UNL     1     -11.389  13.567  66.960  1.00  0.00    -0.339 SA 
BRANCH  11  12
HETATM   12  C   UNL     1     -10.874  15.247  66.982  1.00  0.00    -0.321 A  
HETATM   13  C   UNL     1      -9.841  19.532  68.354  1.00  0.00    -0.521 A  
HETATM   14  C   UNL     1      -9.866  19.854  67.001  1.00  0.00    -0.540 A  
HETATM   15  N   UNL     1     -10.612  15.891  68.098  1.00  0.00    -0.270 NA 
HETATM   16  C   UNL     1     -10.131  18.879  66.035  1.00  0.00    -0.372 A  
HETATM   17  C   UNL     1     -10.349  17.219  67.820  1.00  0.00    -0.356 A  
HETATM   18  C   UNL     1     -10.373  17.564  66.468  1.00  0.00    -0.325 A  
HETATM   19  C   UNL     1     -10.079  18.219  68.774  1.00  0.00    -0.393 A  
HETATM   20  S   UNL     1     -10.734  16.160  65.539  1.00  0.00    -0.292 SA 
ENDBRANCH  11  12
ENDBRANCH   1  11
TORSDOF 3
ENDMDL
MODEL       28
REMARK 921   NORMALIZED FREE ENERGY PREDICTED BY IDOCK:   -5.98 KCAL/MOL
REMARK 922        TOTAL FREE ENERGY PREDICTED BY IDOCK:   -7.34 KCAL/MOL
REMARK 923 INTER-LIGAND FREE ENERGY PREDICTED BY IDOCK:   -7.11 KCAL/MOL
REMARK 924 INTRA-LIGAND FREE ENERGY PREDICTED BY IDOCK:   -0.23 KCAL/MOL
REMARK 927      BINDING AFFINITY PREDICTED BY RF-SCORE:    0.00 PKD
ROOT
HETATM    1  S   UNL     1     -11.182  13.992  67.831  1.00  0.00    -0.287 SA 
ENDROOT
BRANCH   1   2
HETATM    2  C   UNL     1     -10.859  15.721  67.762  1.00  0.00    -0.316 A  
HETATM    3  S   UNL     1     -10.502  16.618  69.179  1.00  0.00    -0.344 SA 
HETATM    4  N   UNL     1     -10.859  16.401  66.637  1.00  0.00    -0.165 NA 
HETATM    5  C   UNL     1     -10.314  18.041  68.229  1.00  0.00    -0.380 A  
HETATM    6  C   UNL     1     -10.540  17.723  66.889  1.00  0.00    -0.244 A  
HETATM    7  C   UNL     1      -9.994  19.346  68.639  1.00  0.00    -0.527 A  
HETATM    8  C   UNL     1     -10.436  18.744  65.923  1.00  0.00    -0.424 A  
HETATM    9  C   UNL     1      -9.909  20.344  67.661  1.00  0.00    -0.538 A  
HETATM   10  C   UNL     1     -10.124  20.048  66.318  1.00  0.00    -0.603 A  
ENDBRANCH   1   2
BRANCH   1  11
HETATM   11  S   UNL     1     -12.349  13.768  66.144  1.00  0.00    -0.428 SA 
BRANCH  11  12
HETATM   12  C   UNL     1     -11.442  12.509  65.319  1.00  0.00    -0.333 A  
HETATM   13  C   UNL     1      -8.593   8.991  64.413  1.00  0.00    -0.174 A  
HETATM   14  C   UNL     1      -8.709   9.382  63.084  1.00  0.00    -0.222 A  
HETATM   15  N   UNL     1     -10.834  11.538  65.965  1.00  0.00    -0.286 NA 
HETATM   16  C   UNL     1      -9.516  10.465  62.721  1.00  0.00    -0.351 A  
HETATM   17  C   UNL     1     -10.106  10.771  65.076  1.00  0.00    -0.313 A  
HETATM   18  C   UNL     1     -10.205  11.148  63.736  1.00  0.00    -0.377 A  
HETATM   19  C   UNL     1      -9.287   9.676  65.416  1.00  0.00    -0.320 A  
HETATM   20  S   UNL     1     -11.255  12.508  63.616  1.00  0.00    -0.475 SA 
ENDBRANCH  11  12
ENDBRANCH   1  11
TORSDOF 3
ENDMDL
MODEL       29
REMARK 921   NORMALIZED FREE ENERGY PREDICTED BY IDOCK:   -5.96 KCAL/MOL
REMARK 922        TOTAL FREE ENERGY PREDICTED BY IDOCK:   -7.31 KCAL/MOL
REMARK 923 INTER-LIGAND FREE ENERGY PREDICTED BY IDOCK:   -7.05 KCAL/MOL
REMARK 924 INTRA-LIGAND FREE ENERGY PREDICTED BY IDOCK:   -0.26 KCAL/MOL
REMARK 927      BINDING AFFINITY PREDICTED BY RF-SCORE:    0.00 PKD
ROOT
HETATM    1  S   UNL     1      -8.398  13.988  67.275  1.00  0.00    -0.168 SA 
ENDROOT
BRANCH   1   2
HETATM    2  C   UNL     1      -8.858  15.677  67.095  1.00  0.00    -0.208 A  
HETATM    3  S   UNL     1      -9.932  16.181  65.858  1.00  0.00    -0.356 SA 
HETATM    4  N   UNL     1      -8.423  16.623  67.898  1.00  0.00    -0.191 NA 
HETATM    5  C   UNL     1      -9.831  17.801  66.432  1.00  0.00    -0.324 A  
HETATM    6  C   UNL     1      -8.978  17.837  67.536  1.00  0.00    -0.244 A  
HETATM    7  C   UNL     1     -10.458  18.958  65.940  1.00  0.00    -0.450 A  
HETATM    8  C   UNL     1      -8.748  19.071  68.175  1.00  0.00    -0.351 A  
HETATM    9  C   UNL     1     -10.204  20.173  66.586  1.00  0.00    -0.556 A  
HETATM   10  C   UNL     1      -9.362  20.231  67.692  1.00  0.00    -0.481 A  
ENDBRANCH   1   2
BRANCH   1  11
HETATM   11  S   UNL     1     -10.162  13.065  66.731  1.00  0.00    -0.250 SA 
BRANCH  11  12
HETATM   12  C   UNL     1     -10.966  13.017  68.293  1.00  0.00    -0.260 A  
HETATM   13  C   UNL     1     -13.221  11.582  72.056  1.00  0.00    -0.443 A  
HETATM   14  C   UNL     1     -13.462  12.931  72.294  1.00  0.00    -0.631 A  
HETATM   15  N   UNL     1     -11.230  11.890  68.917  1.00  0.00    -0.235 NA 
HETATM   16  C   UNL     1     -12.969  13.911  71.428  1.00  0.00    -0.430 A  
HETATM   17  C   UNL     1     -11.969  12.149  70.055  1.00  0.00    -0.315 A  
HETATM   18  C   UNL     1     -12.225  13.497  70.310  1.00  0.00    -0.347 A  
HETATM   19  C   UNL     1     -12.475  11.180  70.943  1.00  0.00    -0.509 A  
HETATM   20  S   UNL     1     -11.502  14.447  69.070  1.00  0.00    -0.302 SA 
ENDBRANCH  11  12
ENDBRANCH   1  11
TORSDOF 3
ENDMDL
MODEL       30
REMARK 921   NORMALIZED FREE ENERGY PREDICTED BY IDOCK:   -5.93 KCAL/MOL
REMARK 922        TOTAL FREE ENERGY PREDICTED BY IDOCK:   -7.28 KCAL/MOL
REMARK 923 INTER-LIGAND FREE ENERGY PREDICTED BY IDOCK:   -7.03 KCAL/MOL
REMARK 924 INTRA-LIGAND FREE ENERGY PREDICTED BY IDOCK:   -0.25 KCAL/MOL
REMARK 927      BINDING AFFINITY PREDICTED BY RF-SCORE:    0.00 PKD
ROOT
HETATM    1  S   UNL     1     -10.109  13.152  66.607  1.00  0.00    -0.270 SA 
ENDROOT
BRANCH   1   2
HETATM    2  C   UNL     1     -10.964  12.891  68.123  1.00  0.00    -0.248 A  
HETATM    3  S   UNL     1     -11.582  14.205  69.035  1.00  0.00    -0.326 SA 
HETATM    4  N   UNL     1     -11.184  11.694  68.620  1.00  0.00    -0.227 NA 
HETATM    5  C   UNL     1     -12.214  13.101  70.195  1.00  0.00    -0.290 A  
HETATM    6  C   UNL     1     -11.904  11.799  69.796  1.00  0.00    -0.349 A  
HETATM    7  C   UNL     1     -12.930  13.365  71.374  1.00  0.00    -0.412 A  
HETATM    8  C   UNL     1     -12.331  10.724  70.600  1.00  0.00    -0.465 A  
HETATM    9  C   UNL     1     -13.331  12.280  72.161  1.00  0.00    -0.473 A  
HETATM   10  C   UNL     1     -13.039  10.974  71.779  1.00  0.00    -0.554 A  
ENDBRANCH   1   2
BRANCH   1  11
HETATM   11  S   UNL     1      -8.354  13.981  67.311  1.00  0.00    -0.168 SA 
BRANCH  11  12
HETATM   12  C   UNL     1      -8.852  15.661  67.447  1.00  0.00    -0.191 A  
HETATM   13  C   UNL     1     -10.470  19.878  66.496  1.00  0.00    -0.589 A  
HETATM   14  C   UNL     1      -9.839  20.267  67.672  1.00  0.00    -0.563 A  
HETATM   15  N   UNL     1      -9.604  16.250  66.544  1.00  0.00    -0.247 NA 
HETATM   16  C   UNL     1      -9.147  19.339  68.457  1.00  0.00    -0.425 A  
HETATM   17  C   UNL     1      -9.735  17.591  66.848  1.00  0.00    -0.291 A  
HETATM   18  C   UNL     1      -9.105  18.004  68.023  1.00  0.00    -0.272 A  
HETATM   19  C   UNL     1     -10.426  18.544  66.075  1.00  0.00    -0.433 A  
HETATM   20  S   UNL     1      -8.337  16.645  68.751  1.00  0.00    -0.241 SA 
ENDBRANCH  11  12
ENDBRANCH   1  11
TORSDOF 3
ENDMDL
MODEL       31
REMARK 921   NORMALIZED FREE ENERGY PREDICTED BY IDOCK:   -5.91 KCAL/MOL
REMARK 922        TOTAL FREE ENERGY PREDICTED BY IDOCK:   -7.26 KCAL/MOL
REMARK 923 INTER-LIGAND FREE ENERGY PREDICTED BY IDOCK:   -7.10 KCAL/MOL
REMARK 924 INTRA-LIGAND FREE ENERGY PREDICTED BY IDOCK:   -0.16 KCAL/MOL
REMARK 927      BINDING AFFINITY PREDICTED BY RF-SCORE:    0.00 PKD
ROOT
HETATM    1  S   UNL     1      -9.284  15.769  68.209  1.00  0.00    -0.191 SA 
ENDROOT
BRANCH   1   2
HETATM    2  C   UNL     1      -9.834  14.681  66.939  1.00  0.00    -0.249 A  
HETATM    3  S   UNL     1      -9.086  13.160  66.683  1.00  0.00    -0.117 SA 
HETATM    4  N   UNL     1     -10.841  14.966  66.144  1.00  0.00    -0.321 NA 
HETATM    5  C   UNL     1     -10.196  12.829  65.410  1.00  0.00    -0.283 A  
HETATM    6  C   UNL     1     -11.064  13.915  65.274  1.00  0.00    -0.318 A  
HETATM    7  C   UNL     1     -10.293  11.694  64.588  1.00  0.00    -0.341 A  
HETATM    8  C   UNL     1     -12.067  13.861  64.286  1.00  0.00    -0.477 A  
HETATM    9  C   UNL     1     -11.289  11.671  63.607  1.00  0.00    -0.485 A  
HETATM   10  C   UNL     1     -12.170  12.739  63.458  1.00  0.00    -0.613 A  
ENDBRANCH   1   2
BRANCH   1  11
HETATM   11  S   UNL     1     -11.092  16.535  68.846  1.00  0.00    -0.258 SA 
BRANCH  11  12
HETATM   12  C   UNL     1     -11.666  15.180  69.807  1.00  0.00    -0.319 A  
HETATM   13  C   UNL     1     -12.797  10.934  71.222  1.00  0.00    -0.536 A  
HETATM   14  C   UNL     1     -13.547  11.577  72.201  1.00  0.00    -0.105 A  
HETATM   15  N   UNL     1     -11.390  13.931  69.504  1.00  0.00    -0.256 NA 
HETATM   16  C   UNL     1     -13.577  12.973  72.281  1.00  0.00    -0.643 A  
HETATM   17  C   UNL     1     -12.067  13.082  70.358  1.00  0.00    -0.314 A  
HETATM   18  C   UNL     1     -12.829  13.708  71.346  1.00  0.00    -0.360 A  
HETATM   19  C   UNL     1     -12.053  11.675  70.298  1.00  0.00    -0.443 A  
HETATM   20  S   UNL     1     -12.669  15.414  71.177  1.00  0.00    -0.469 SA 
ENDBRANCH  11  12
ENDBRANCH   1  11
TORSDOF 3
ENDMDL
MODEL       32
REMARK 921   NORMALIZED FREE ENERGY PREDICTED BY IDOCK:   -5.91 KCAL/MOL
REMARK 922        TOTAL FREE ENERGY PREDICTED BY IDOCK:   -7.25 KCAL/MOL
REMARK 923 INTER-LIGAND FREE ENERGY PREDICTED BY IDOCK:   -6.88 KCAL/MOL
REMARK 924 INTRA-LIGAND FREE ENERGY PREDICTED BY IDOCK:   -0.37 KCAL/MOL
REMARK 927      BINDING AFFINITY PREDICTED BY RF-SCORE:    0.00 PKD
ROOT
HETATM    1  S   UNL     1      -9.581  11.251  68.355  1.00  0.00    -0.199 SA 
ENDROOT
BRANCH   1   2
HETATM    2  C   UNL     1     -10.081   9.849  69.294  1.00  0.00    -0.203 A  
HETATM    3  S   UNL     1     -10.209   8.296  68.579  1.00  0.00    -0.203 SA 
HETATM    4  N   UNL     1     -10.361   9.915  70.577  1.00  0.00    -0.277 NA 
HETATM    5  C   UNL     1     -10.666   7.634  70.101  1.00  0.00    -0.240 A  
HETATM    6  C   UNL     1     -10.687   8.657  71.051  1.00  0.00    -0.228 A  
HETATM    7  C   UNL     1     -10.988   6.307  70.432  1.00  0.00    -0.385 A  
HETATM    8  C   UNL     1     -11.035   8.342  72.380  1.00  0.00    -0.438 A  
HETATM    9  C   UNL     1     -11.341   6.023  71.755  1.00  0.00    -0.324 A  
HETATM   10  C   UNL     1     -11.362   7.026  72.720  1.00  0.00    -0.256 A  
ENDBRANCH   1   2
BRANCH   1  11
HETATM   11  S   UNL     1     -11.424  12.050  67.878  1.00  0.00    -0.340 SA 
BRANCH  11  12
HETATM   12  C   UNL     1     -11.644  13.128  69.249  1.00  0.00    -0.314 A  
HETATM   13  C   UNL     1     -13.211  15.072  73.131  1.00  0.00    -0.587 A  
HETATM   14  C   UNL     1     -12.510  16.201  72.720  1.00  0.00    -0.557 A  
HETATM   15  N   UNL     1     -12.360  12.797  70.300  1.00  0.00    -0.253 NA 
HETATM   16  C   UNL     1     -11.774  16.196  71.531  1.00  0.00    -0.533 A  
HETATM   17  C   UNL     1     -12.456  13.876  71.158  1.00  0.00    -0.372 A  
HETATM   18  C   UNL     1     -11.763  15.021  70.762  1.00  0.00    -0.320 A  
HETATM   19  C   UNL     1     -13.190  13.905  72.360  1.00  0.00    -0.587 A  
HETATM   20  S   UNL     1     -10.971  14.704  69.266  1.00  0.00    -0.261 SA 
ENDBRANCH  11  12
ENDBRANCH   1  11
TORSDOF 3
ENDMDL
MODEL       33
REMARK 921   NORMALIZED FREE ENERGY PREDICTED BY IDOCK:   -5.89 KCAL/MOL
REMARK 922        TOTAL FREE ENERGY PREDICTED BY IDOCK:   -7.22 KCAL/MOL
REMARK 923 INTER-LIGAND FREE ENERGY PREDICTED BY IDOCK:   -6.91 KCAL/MOL
REMARK 924 INTRA-LIGAND FREE ENERGY PREDICTED BY IDOCK:   -0.32 KCAL/MOL
REMARK 927      BINDING AFFINITY PREDICTED BY RF-SCORE:    0.00 PKD
ROOT
HETATM    1  S   UNL     1     -11.073  10.482  68.413  1.00  0.00    -0.280 SA 
ENDROOT
BRANCH   1   2
HETATM    2  C   UNL     1     -11.801  11.653  69.506  1.00  0.00    -0.348 A  
HETATM    3  S   UNL     1     -12.611  11.158  70.934  1.00  0.00    -0.367 SA 
HETATM    4  N   UNL     1     -11.747  12.951  69.297  1.00  0.00    -0.308 NA 
HETATM    5  C   UNL     1     -12.916  12.805  71.331  1.00  0.00    -0.266 A  
HETATM    6  C   UNL     1     -12.371  13.619  70.335  1.00  0.00    -0.345 A  
HETATM    7  C   UNL     1     -13.591  13.341  72.440  1.00  0.00    -0.694 A  
HETATM    8  C   UNL     1     -12.500  15.017  70.456  1.00  0.00    -0.425 A  
HETATM    9  C   UNL     1     -13.716  14.731  72.530  1.00  0.00    -0.572 A  
HETATM   10  C   UNL     1     -13.175  15.562  71.552  1.00  0.00    -0.589 A  
ENDBRANCH   1   2
BRANCH   1  11
HETATM   11  S   UNL     1      -9.293  10.118  69.394  1.00  0.00    -0.206 SA 
BRANCH  11  12
HETATM   12  C   UNL     1      -9.834   8.916  70.556  1.00  0.00    -0.200 A  
HETATM   13  C   UNL     1     -10.224   6.278  74.324  1.00  0.00    -0.351 A  
HETATM   14  C   UNL     1     -11.013   5.451  73.531  1.00  0.00    -0.323 A  
HETATM   15  N   UNL     1      -9.453   8.927  71.814  1.00  0.00    -0.289 NA 
HETATM   16  C   UNL     1     -11.279   5.776  72.198  1.00  0.00    -0.327 A  
HETATM   17  C   UNL     1      -9.934   7.804  72.458  1.00  0.00    -0.225 A  
HETATM   18  C   UNL     1     -10.726   6.959  71.679  1.00  0.00    -0.222 A  
HETATM   19  C   UNL     1      -9.681   7.456  73.800  1.00  0.00    -0.330 A  
HETATM   20  S   UNL     1     -10.858   7.621  70.095  1.00  0.00    -0.238 SA 
ENDBRANCH  11  12
ENDBRANCH   1  11
TORSDOF 3
ENDMDL
MODEL       34
REMARK 921   NORMALIZED FREE ENERGY PREDICTED BY IDOCK:   -5.87 KCAL/MOL
REMARK 922        TOTAL FREE ENERGY PREDICTED BY IDOCK:   -7.21 KCAL/MOL
REMARK 923 INTER-LIGAND FREE ENERGY PREDICTED BY IDOCK:   -6.94 KCAL/MOL
REMARK 924 INTRA-LIGAND FREE ENERGY PREDICTED BY IDOCK:   -0.26 KCAL/MOL
REMARK 927      BINDING AFFINITY PREDICTED BY RF-SCORE:    0.00 PKD
ROOT
HETATM    1  S   UNL     1     -11.344  13.873  66.629  1.00  0.00    -0.345 SA 
ENDROOT
BRANCH   1   2
HETATM    2  C   UNL     1     -10.924  15.539  67.005  1.00  0.00    -0.283 A  
HETATM    3  S   UNL     1     -10.681  16.054  68.622  1.00  0.00    -0.300 SA 
HETATM    4  N   UNL     1     -10.760  16.459  66.079  1.00  0.00    -0.245 NA 
HETATM    5  C   UNL     1     -10.311  17.639  68.061  1.00  0.00    -0.375 A  
HETATM    6  C   UNL     1     -10.402  17.658  66.667  1.00  0.00    -0.333 A  
HETATM    7  C   UNL     1      -9.970  18.785  68.797  1.00  0.00    -0.442 A  
HETATM    8  C   UNL     1     -10.135  18.862  65.986  1.00  0.00    -0.372 A  
HETATM    9  C   UNL     1      -9.722  19.971  68.098  1.00  0.00    -0.463 A  
HETATM   10  C   UNL     1      -9.799  20.011  66.709  1.00  0.00    -0.574 A  
ENDBRANCH   1   2
BRANCH   1  11
HETATM   11  S   UNL     1      -9.674  12.899  67.353  1.00  0.00    -0.206 SA 
BRANCH  11  12
HETATM   12  C   UNL     1     -10.409  11.981  68.659  1.00  0.00    -0.196 A  
HETATM   13  C   UNL     1     -11.485   8.616  71.630  1.00  0.00    -0.375 A  
HETATM   14  C   UNL     1     -12.623   9.368  71.901  1.00  0.00    -0.481 A  
HETATM   15  N   UNL     1      -9.892  10.860  69.112  1.00  0.00    -0.184 NA 
HETATM   16  C   UNL     1     -12.846  10.590  71.260  1.00  0.00    -0.532 A  
HETATM   17  C   UNL     1     -10.739  10.300  70.049  1.00  0.00    -0.292 A  
HETATM   18  C   UNL     1     -11.889  11.038  70.333  1.00  0.00    -0.367 A  
HETATM   19  C   UNL     1     -10.537   9.072  70.708  1.00  0.00    -0.300 A  
HETATM   20  S   UNL     1     -11.880  12.475  69.385  1.00  0.00    -0.280 SA 
ENDBRANCH  11  12
ENDBRANCH   1  11
TORSDOF 3
ENDMDL
MODEL       35
REMARK 921   NORMALIZED FREE ENERGY PREDICTED BY IDOCK:   -5.87 KCAL/MOL
REMARK 922        TOTAL FREE ENERGY PREDICTED BY IDOCK:   -7.21 KCAL/MOL
REMARK 923 INTER-LIGAND FREE ENERGY PREDICTED BY IDOCK:   -7.05 KCAL/MOL
REMARK 924 INTRA-LIGAND FREE ENERGY PREDICTED BY IDOCK:   -0.16 KCAL/MOL
REMARK 927      BINDING AFFINITY PREDICTED BY RF-SCORE:    0.00 PKD
ROOT
HETATM    1  S   UNL     1     -11.416  13.288  68.281  1.00  0.00    -0.340 SA 
ENDROOT
BRANCH   1   2
HETATM    2  C   UNL     1     -11.457  11.827  69.262  1.00  0.00    -0.306 A  
HETATM    3  S   UNL     1     -10.271  10.601  69.084  1.00  0.00    -0.212 SA 
HETATM    4  N   UNL     1     -12.374  11.610  70.179  1.00  0.00    -0.252 NA 
HETATM    5  C   UNL     1     -11.021   9.695  70.341  1.00  0.00    -0.299 A  
HETATM    6  C   UNL     1     -12.131  10.403  70.808  1.00  0.00    -0.364 A  
HETATM    7  C   UNL     1     -10.658   8.448  70.876  1.00  0.00    -0.243 A  
HETATM    8  C   UNL     1     -12.901   9.847  71.850  1.00  0.00    -0.524 A  
HETATM    9  C   UNL     1     -11.446   7.913  71.900  1.00  0.00    -0.328 A  
HETATM   10  C   UNL     1     -12.553   8.604  72.385  1.00  0.00    -0.426 A  
ENDBRANCH   1   2
BRANCH   1  11
HETATM   11  S   UNL     1     -11.424  14.726  69.761  1.00  0.00    -0.306 SA 
BRANCH  11  12
HETATM   12  C   UNL     1     -10.880  16.114  68.830  1.00  0.00    -0.305 A  
HETATM   13  C   UNL     1      -9.796  20.408  67.528  1.00  0.00    -0.564 A  
HETATM   14  C   UNL     1      -9.792  19.898  66.234  1.00  0.00    -0.570 A  
HETATM   15  N   UNL     1     -10.626  17.279  69.383  1.00  0.00    -0.215 NA 
HETATM   16  C   UNL     1     -10.057  18.547  65.994  1.00  0.00    -0.309 A  
HETATM   17  C   UNL     1     -10.335  18.208  68.402  1.00  0.00    -0.356 A  
HETATM   18  C   UNL     1     -10.330  17.717  67.095  1.00  0.00    -0.353 A  
HETATM   19  C   UNL     1     -10.064  19.573  68.618  1.00  0.00    -0.535 A  
HETATM   20  S   UNL     1     -10.699  16.036  67.128  1.00  0.00    -0.239 SA 
ENDBRANCH  11  12
ENDBRANCH   1  11
TORSDOF 3
ENDMDL
MODEL       36
REMARK 921   NORMALIZED FREE ENERGY PREDICTED BY IDOCK:   -5.86 KCAL/MOL
REMARK 922        TOTAL FREE ENERGY PREDICTED BY IDOCK:   -7.20 KCAL/MOL
REMARK 923 INTER-LIGAND FREE ENERGY PREDICTED BY IDOCK:   -6.84 KCAL/MOL
REMARK 924 INTRA-LIGAND FREE ENERGY PREDICTED BY IDOCK:   -0.36 KCAL/MOL
REMARK 927      BINDING AFFINITY PREDICTED BY RF-SCORE:    0.00 PKD
ROOT
HETATM    1  S   UNL     1     -10.925  10.533  68.371  1.00  0.00    -0.276 SA 
ENDROOT
BRANCH   1   2
HETATM    2  C   UNL     1     -11.629  11.832  69.326  1.00  0.00    -0.315 A  
HETATM    3  S   UNL     1     -11.537  13.466  68.815  1.00  0.00    -0.348 SA 
HETATM    4  N   UNL     1     -12.267  11.620  70.456  1.00  0.00    -0.369 NA 
HETATM    5  C   UNL     1     -12.431  13.950  70.204  1.00  0.00    -0.292 A  
HETATM    6  C   UNL     1     -12.737  12.818  70.962  1.00  0.00    -0.243 A  
HETATM    7  C   UNL     1     -12.831  15.237  70.598  1.00  0.00    -0.462 A  
HETATM    8  C   UNL     1     -13.475  12.977  72.152  1.00  0.00    -0.638 A  
HETATM    9  C   UNL     1     -13.552  15.370  71.790  1.00  0.00    -0.596 A  
HETATM   10  C   UNL     1     -13.874  14.254  72.557  1.00  0.00    -0.575 A  
ENDBRANCH   1   2
BRANCH   1  11
HETATM   11  S   UNL     1      -9.181  10.204  69.424  1.00  0.00    -0.199 SA 
BRANCH  11  12
HETATM   12  C   UNL     1      -9.742   8.979  70.553  1.00  0.00    -0.216 A  
HETATM   13  C   UNL     1     -10.158   6.225  74.234  1.00  0.00    -0.349 A  
HETATM   14  C   UNL     1     -10.984   5.451  73.426  1.00  0.00    -0.349 A  
HETATM   15  N   UNL     1      -9.342   8.935  71.804  1.00  0.00    -0.313 NA 
HETATM   16  C   UNL     1     -11.259   5.829  72.108  1.00  0.00    -0.327 A  
HETATM   17  C   UNL     1      -9.848   7.805  72.417  1.00  0.00    -0.206 A  
HETATM   18  C   UNL     1     -10.677   7.012  71.622  1.00  0.00    -0.220 A  
HETATM   19  C   UNL     1      -9.587   7.403  73.742  1.00  0.00    -0.333 A  
HETATM   20  S   UNL     1     -10.811   7.732  70.064  1.00  0.00    -0.214 SA 
ENDBRANCH  11  12
ENDBRANCH   1  11
TORSDOF 3
ENDMDL
MODEL       37
REMARK 921   NORMALIZED FREE ENERGY PREDICTED BY IDOCK:   -5.86 KCAL/MOL
REMARK 922        TOTAL FREE ENERGY PREDICTED BY IDOCK:   -7.19 KCAL/MOL
REMARK 923 INTER-LIGAND FREE ENERGY PREDICTED BY IDOCK:   -7.04 KCAL/MOL
REMARK 924 INTRA-LIGAND FREE ENERGY PREDICTED BY IDOCK:   -0.15 KCAL/MOL
REMARK 927      BINDING AFFINITY PREDICTED BY RF-SCORE:    0.00 PKD
ROOT
HETATM    1  S   UNL     1     -12.145  13.619  69.456  1.00  0.00    -0.279 SA 
ENDROOT
BRANCH   1   2
HETATM    2  C   UNL     1     -11.909  11.919  69.847  1.00  0.00    -0.343 A  
HETATM    3  S   UNL     1     -10.901  10.916  68.889  1.00  0.00    -0.238 SA 
HETATM    4  N   UNL     1     -12.470  11.343  70.887  1.00  0.00    -0.390 NA 
HETATM    5  C   UNL     1     -11.218   9.593  69.944  1.00  0.00    -0.207 A  
HETATM    6  C   UNL     1     -12.077  10.019  70.959  1.00  0.00    -0.373 A  
HETATM    7  C   UNL     1     -10.745   8.272  69.879  1.00  0.00    -0.234 A  
HETATM    8  C   UNL     1     -12.471   9.095  71.946  1.00  0.00    -0.459 A  
HETATM    9  C   UNL     1     -11.161   7.371  70.865  1.00  0.00    -0.283 A  
HETATM   10  C   UNL     1     -12.011   7.776  71.889  1.00  0.00    -0.340 A  
ENDBRANCH   1   2
BRANCH   1  11
HETATM   11  S   UNL     1     -10.782  13.836  67.920  1.00  0.00    -0.252 SA 
BRANCH  11  12
HETATM   12  C   UNL     1     -10.652  15.588  67.885  1.00  0.00    -0.274 A  
HETATM   13  C   UNL     1     -10.048  19.944  66.480  1.00  0.00    -0.607 A  
HETATM   14  C   UNL     1      -9.918  20.247  67.831  1.00  0.00    -0.492 A  
HETATM   15  N   UNL     1     -10.654  16.274  66.763  1.00  0.00    -0.290 NA 
HETATM   16  C   UNL     1     -10.033  19.250  68.805  1.00  0.00    -0.511 A  
HETATM   17  C   UNL     1     -10.419  17.609  67.031  1.00  0.00    -0.305 A  
HETATM   18  C   UNL     1     -10.282  17.934  68.382  1.00  0.00    -0.394 A  
HETATM   19  C   UNL     1     -10.299  18.631  66.069  1.00  0.00    -0.436 A  
HETATM   20  S   UNL     1     -10.463  16.503  69.321  1.00  0.00    -0.331 SA 
ENDBRANCH  11  12
ENDBRANCH   1  11
TORSDOF 3
ENDMDL
MODEL       38
REMARK 921   NORMALIZED FREE ENERGY PREDICTED BY IDOCK:   -5.83 KCAL/MOL
REMARK 922        TOTAL FREE ENERGY PREDICTED BY IDOCK:   -7.16 KCAL/MOL
REMARK 923 INTER-LIGAND FREE ENERGY PREDICTED BY IDOCK:   -6.91 KCAL/MOL
REMARK 924 INTRA-LIGAND FREE ENERGY PREDICTED BY IDOCK:   -0.26 KCAL/MOL
REMARK 927      BINDING AFFINITY PREDICTED BY RF-SCORE:    0.00 PKD
ROOT
HETATM    1  S   UNL     1     -10.943   8.565  72.048  1.00  0.00    -0.360 SA 
ENDROOT
BRANCH   1   2
HETATM    2  C   UNL     1     -10.611   7.411  70.762  1.00  0.00    -0.223 A  
HETATM    3  S   UNL     1      -9.927   5.876  71.096  1.00  0.00    -0.195 SA 
HETATM    4  N   UNL     1     -10.882   7.656  69.498  1.00  0.00    -0.208 NA 
HETATM    5  C   UNL     1     -10.000   5.479  69.423  1.00  0.00    -0.208 A  
HETATM    6  C   UNL     1     -10.547   6.559  68.726  1.00  0.00    -0.243 A  
HETATM    7  C   UNL     1      -9.600   4.301  68.771  1.00  0.00    -0.219 A  
HETATM    8  C   UNL     1     -10.707   6.454  67.330  1.00  0.00    -0.411 A  
HETATM    9  C   UNL     1      -9.757   4.228  67.383  1.00  0.00    -0.210 A  
HETATM   10  C   UNL     1     -10.307   5.289  66.669  1.00  0.00    -0.330 A  
ENDBRANCH   1   2
BRANCH   1  11
HETATM   11  S   UNL     1     -12.914   9.020  71.637  1.00  0.00    -0.376 SA 
BRANCH  11  12
HETATM   12  C   UNL     1     -12.790  10.765  71.478  1.00  0.00    -0.462 A  
HETATM   13  C   UNL     1     -13.520  15.303  71.912  1.00  0.00    -0.547 A  
HETATM   14  C   UNL     1     -12.730  15.429  70.774  1.00  0.00    -0.516 A  
HETATM   15  N   UNL     1     -13.395  11.595  72.299  1.00  0.00    -0.280 NA 
HETATM   16  C   UNL     1     -12.172  14.304  70.159  1.00  0.00    -0.407 A  
HETATM   17  C   UNL     1     -13.219  12.894  71.864  1.00  0.00    -0.423 A  
HETATM   18  C   UNL     1     -12.432  13.043  70.721  1.00  0.00    -0.302 A  
HETATM   19  C   UNL     1     -13.770  14.043  72.466  1.00  0.00    -0.651 A  
HETATM   20  S   UNL     1     -11.906  11.488  70.200  1.00  0.00    -0.339 SA 
ENDBRANCH  11  12
ENDBRANCH   1  11
TORSDOF 3
ENDMDL
MODEL       39
REMARK 921   NORMALIZED FREE ENERGY PREDICTED BY IDOCK:   -5.83 KCAL/MOL
REMARK 922        TOTAL FREE ENERGY PREDICTED BY IDOCK:   -7.16 KCAL/MOL
REMARK 923 INTER-LIGAND FREE ENERGY PREDICTED BY IDOCK:   -6.84 KCAL/MOL
REMARK 924 INTRA-LIGAND FREE ENERGY PREDICTED BY IDOCK:   -0.32 KCAL/MOL
REMARK 927      BINDING AFFINITY PREDICTED BY RF-SCORE:    0.00 PKD
ROOT
HETATM    1  S   UNL     1     -11.621  12.625  67.759  1.00  0.00    -0.358 SA 
ENDROOT
BRANCH   1   2
HETATM    2  C   UNL     1     -11.809  13.598  69.213  1.00  0.00    -0.346 A  
HETATM    3  S   UNL     1     -11.118  15.162  69.335  1.00  0.00    -0.295 SA 
HETATM    4  N   UNL     1     -12.494  13.190  70.259  1.00  0.00    -0.217 NA 
HETATM    5  C   UNL     1     -11.788  15.334  70.911  1.00  0.00    -0.341 A  
HETATM    6  C   UNL     1     -12.497  14.175  71.230  1.00  0.00    -0.370 A  
HETATM    7  C   UNL     1     -11.692  16.415  71.804  1.00  0.00    -0.395 A  
HETATM    8  C   UNL     1     -13.138  14.095  72.482  1.00  0.00    -0.554 A  
HETATM    9  C   UNL     1     -12.327  16.305  73.045  1.00  0.00    -0.581 A  
HETATM   10  C   UNL     1     -13.045  15.162  73.381  1.00  0.00    -0.588 A  
ENDBRANCH   1   2
BRANCH   1  11
HETATM   11  S   UNL     1      -9.826  11.691  68.170  1.00  0.00    -0.195 SA 
BRANCH  11  12
HETATM   12  C   UNL     1     -10.417  10.281  69.037  1.00  0.00    -0.217 A  
HETATM   13  C   UNL     1     -11.751   7.390  72.379  1.00  0.00    -0.306 A  
HETATM   14  C   UNL     1     -11.629   6.393  71.416  1.00  0.00    -0.368 A  
HETATM   15  N   UNL     1     -10.798  10.332  70.294  1.00  0.00    -0.298 NA 
HETATM   16  C   UNL     1     -11.242   6.702  70.109  1.00  0.00    -0.416 A  
HETATM   17  C   UNL     1     -11.097   9.061  70.744  1.00  0.00    -0.272 A  
HETATM   18  C   UNL     1     -10.977   8.045  69.794  1.00  0.00    -0.137 A  
HETATM   19  C   UNL     1     -11.489   8.725  72.054  1.00  0.00    -0.441 A  
HETATM   20  S   UNL     1     -10.479   8.736  68.298  1.00  0.00    -0.149 SA 
ENDBRANCH  11  12
ENDBRANCH   1  11
TORSDOF 3
ENDMDL
MODEL       40
REMARK 921   NORMALIZED FREE ENERGY PREDICTED BY IDOCK:   -5.78 KCAL/MOL
REMARK 922        TOTAL FREE ENERGY PREDICTED BY IDOCK:   -7.10 KCAL/MOL
REMARK 923 INTER-LIGAND FREE ENERGY PREDICTED BY IDOCK:   -6.84 KCAL/MOL
REMARK 924 INTRA-LIGAND FREE ENERGY PREDICTED BY IDOCK:   -0.26 KCAL/MOL
REMARK 927      BINDING AFFINITY PREDICTED BY RF-SCORE:    0.00 PKD
ROOT
HETATM    1  S   UNL     1     -12.483  13.695  66.026  1.00  0.00    -0.386 SA 
ENDROOT
BRANCH   1   2
HETATM    2  C   UNL     1     -11.469  12.505  65.217  1.00  0.00    -0.333 A  
HETATM    3  S   UNL     1     -11.296  12.495  63.511  1.00  0.00    -0.442 SA 
HETATM    4  N   UNL     1     -10.790  11.587  65.868  1.00  0.00    -0.275 NA 
HETATM    5  C   UNL     1     -10.213  11.163  63.630  1.00  0.00    -0.387 A  
HETATM    6  C   UNL     1     -10.062  10.821  64.976  1.00  0.00    -0.313 A  
HETATM    7  C   UNL     1      -9.546  10.466  62.609  1.00  0.00    -0.274 A  
HETATM    8  C   UNL     1      -9.210   9.751  65.313  1.00  0.00    -0.294 A  
HETATM    9  C   UNL     1      -8.716   9.399  62.969  1.00  0.00    -0.225 A  
HETATM   10  C   UNL     1      -8.545   9.046  64.304  1.00  0.00    -0.171 A  
ENDBRANCH   1   2
BRANCH   1  11
HETATM   11  S   UNL     1     -11.373  14.022  67.736  1.00  0.00    -0.321 SA 
BRANCH  11  12
HETATM   12  C   UNL     1     -10.870  15.682  67.450  1.00  0.00    -0.315 A  
HETATM   13  C   UNL     1      -9.853  20.148  68.022  1.00  0.00    -0.498 A  
HETATM   14  C   UNL     1      -9.898  20.224  66.634  1.00  0.00    -0.562 A  
HETATM   15  N   UNL     1     -10.599  16.516  68.430  1.00  0.00    -0.305 NA 
HETATM   16  C   UNL     1     -10.168  19.091  65.861  1.00  0.00    -0.369 A  
HETATM   17  C   UNL     1     -10.350  17.774  67.916  1.00  0.00    -0.386 A  
HETATM   18  C   UNL     1     -10.394  17.873  66.524  1.00  0.00    -0.362 A  
HETATM   19  C   UNL     1     -10.076  18.930  68.673  1.00  0.00    -0.447 A  
HETATM   20  S   UNL     1     -10.756  16.324  65.866  1.00  0.00    -0.170 SA 
ENDBRANCH  11  12
ENDBRANCH   1  11
TORSDOF 3
ENDMDL
MODEL       41
REMARK 921   NORMALIZED FREE ENERGY PREDICTED BY IDOCK:   -5.76 KCAL/MOL
REMARK 922        TOTAL FREE ENERGY PREDICTED BY IDOCK:   -7.07 KCAL/MOL
REMARK 923 INTER-LIGAND FREE ENERGY PREDICTED BY IDOCK:   -6.76 KCAL/MOL
REMARK 924 INTRA-LIGAND FREE ENERGY PREDICTED BY IDOCK:   -0.32 KCAL/MOL
REMARK 927      BINDING AFFINITY PREDICTED BY RF-SCORE:    0.00 PKD
ROOT
HETATM    1  S   UNL     1      -8.602  10.206  69.325  1.00  0.00    -0.179 SA 
ENDROOT
BRANCH   1   2
HETATM    2  C   UNL     1     -10.072   9.542  70.027  1.00  0.00    -0.242 A  
HETATM    3  S   UNL     1     -10.404   7.860  69.975  1.00  0.00    -0.226 SA 
HETATM    4  N   UNL     1     -10.972  10.285  70.632  1.00  0.00    -0.285 NA 
HETATM    5  C   UNL     1     -11.867   8.123  70.843  1.00  0.00    -0.218 A  
HETATM    6  C   UNL     1     -11.995   9.487  71.110  1.00  0.00    -0.348 A  
HETATM    7  C   UNL     1     -12.834   7.192  71.255  1.00  0.00    -0.399 A  
HETATM    8  C   UNL     1     -13.127   9.936  71.820  1.00  0.00    -0.553 A  
HETATM    9  C   UNL     1     -13.954   7.664  71.948  1.00  0.00    -0.400 A  
HETATM   10  C   UNL     1     -14.099   9.019  72.231  1.00  0.00    -0.485 A  
ENDBRANCH   1   2
BRANCH   1  11
HETATM   11  S   UNL     1      -8.500   9.112  67.578  1.00  0.00    -0.115 SA 
BRANCH  11  12
HETATM   12  C   UNL     1      -9.453  10.145  66.523  1.00  0.00    -0.169 A  
HETATM   13  C   UNL     1     -12.636  13.074  64.911  1.00  0.00    -0.490 A  
HETATM   14  C   UNL     1     -12.258  12.621  63.651  1.00  0.00    -0.624 A  
HETATM   15  N   UNL     1     -10.295  11.042  66.986  1.00  0.00    -0.218 NA 
HETATM   16  C   UNL     1     -11.248  11.665  63.505  1.00  0.00    -0.462 A  
HETATM   17  C   UNL     1     -10.987  11.618  65.938  1.00  0.00    -0.280 A  
HETATM   18  C   UNL     1     -10.626  11.174  64.665  1.00  0.00    -0.318 A  
HETATM   19  C   UNL     1     -12.007  12.581  66.059  1.00  0.00    -0.456 A  
HETATM   20  S   UNL     1      -9.373  10.002  64.818  1.00  0.00    -0.288 SA 
ENDBRANCH  11  12
ENDBRANCH   1  11
TORSDOF 3
ENDMDL
MODEL       42
REMARK 921   NORMALIZED FREE ENERGY PREDICTED BY IDOCK:   -5.70 KCAL/MOL
REMARK 922        TOTAL FREE ENERGY PREDICTED BY IDOCK:   -7.01 KCAL/MOL
REMARK 923 INTER-LIGAND FREE ENERGY PREDICTED BY IDOCK:   -6.85 KCAL/MOL
REMARK 924 INTRA-LIGAND FREE ENERGY PREDICTED BY IDOCK:   -0.16 KCAL/MOL
REMARK 927      BINDING AFFINITY PREDICTED BY RF-SCORE:    0.00 PKD
ROOT
HETATM    1  S   UNL     1     -11.601  15.842  68.736  1.00  0.00    -0.337 SA 
ENDROOT
BRANCH   1   2
HETATM    2  C   UNL     1     -11.860  14.229  69.388  1.00  0.00    -0.326 A  
HETATM    3  S   UNL     1     -11.262  12.836  68.586  1.00  0.00    -0.301 SA 
HETATM    4  N   UNL     1     -12.500  14.010  70.516  1.00  0.00    -0.350 NA 
HETATM    5  C   UNL     1     -11.891  11.843  69.843  1.00  0.00    -0.343 A  
HETATM    6  C   UNL     1     -12.516  12.655  70.791  1.00  0.00    -0.270 A  
HETATM    7  C   UNL     1     -11.839  10.446  69.980  1.00  0.00    -0.351 A  
HETATM    8  C   UNL     1     -13.105  12.050  71.919  1.00  0.00    -0.475 A  
HETATM    9  C   UNL     1     -12.442   9.869  71.104  1.00  0.00    -0.464 A  
HETATM   10  C   UNL     1     -13.065  10.660  72.065  1.00  0.00    -0.501 A  
ENDBRANCH   1   2
BRANCH   1  11
HETATM   11  S   UNL     1     -10.467  15.390  67.072  1.00  0.00    -0.299 SA 
BRANCH  11  12
HETATM   12  C   UNL     1      -9.589  16.902  66.890  1.00  0.00    -0.254 A  
HETATM   13  C   UNL     1      -6.401  20.052  65.787  1.00  0.00    -0.237 A  
HETATM   14  C   UNL     1      -7.034  20.862  66.723  1.00  0.00    -0.320 A  
HETATM   15  N   UNL     1      -8.583  17.039  66.055  1.00  0.00    -0.518 NA 
HETATM   16  C   UNL     1      -8.159  20.411  67.420  1.00  0.00    -0.367 A  
HETATM   17  C   UNL     1      -8.013  18.288  66.211  1.00  0.00    -0.234 A  
HETATM   18  C   UNL     1      -8.632  19.116  67.149  1.00  0.00    -0.285 A  
HETATM   19  C   UNL     1      -6.882  18.766  65.522  1.00  0.00    -0.251 A  
HETATM   20  S   UNL     1      -9.969  18.278  67.838  1.00  0.00    -0.365 SA 
ENDBRANCH  11  12
ENDBRANCH   1  11
TORSDOF 3
ENDMDL
MODEL       43
REMARK 921   NORMALIZED FREE ENERGY PREDICTED BY IDOCK:   -5.70 KCAL/MOL
REMARK 922        TOTAL FREE ENERGY PREDICTED BY IDOCK:   -7.00 KCAL/MOL
REMARK 923 INTER-LIGAND FREE ENERGY PREDICTED BY IDOCK:   -6.63 KCAL/MOL
REMARK 924 INTRA-LIGAND FREE ENERGY PREDICTED BY IDOCK:   -0.37 KCAL/MOL
REMARK 927      BINDING AFFINITY PREDICTED BY RF-SCORE:    0.00 PKD
ROOT
HETATM    1  S   UNL     1     -10.455  12.942  67.209  1.00  0.00    -0.234 SA 
ENDROOT
BRANCH   1   2
HETATM    2  C   UNL     1     -11.350  13.482  68.625  1.00  0.00    -0.288 A  
HETATM    3  S   UNL     1     -11.694  15.142  68.882  1.00  0.00    -0.321 SA 
HETATM    4  N   UNL     1     -11.809  12.654  69.536  1.00  0.00    -0.318 NA 
HETATM    5  C   UNL     1     -12.540  14.742  70.326  1.00  0.00    -0.315 A  
HETATM    6  C   UNL     1     -12.497  13.358  70.507  1.00  0.00    -0.279 A  
HETATM    7  C   UNL     1     -13.192  15.589  71.237  1.00  0.00    -0.588 A  
HETATM    8  C   UNL     1     -13.134  12.801  71.633  1.00  0.00    -0.428 A  
HETATM    9  C   UNL     1     -13.806  15.012  72.354  1.00  0.00    -0.596 A  
HETATM   10  C   UNL     1     -13.782  13.635  72.550  1.00  0.00    -0.663 A  
ENDBRANCH   1   2
BRANCH   1  11
HETATM   11  S   UNL     1      -8.752  12.201  68.110  1.00  0.00    -0.184 SA 
BRANCH  11  12
HETATM   12  C   UNL     1      -9.230  10.523  68.316  1.00  0.00    -0.152 A  
HETATM   13  C   UNL     1     -10.999   6.317  67.614  1.00  0.00    -0.438 A  
HETATM   14  C   UNL     1     -10.862   6.149  68.987  1.00  0.00    -0.416 A  
HETATM   15  N   UNL     1      -9.630   9.774  67.312  1.00  0.00    -0.153 NA 
HETATM   16  C   UNL     1     -10.326   7.164  69.785  1.00  0.00    -0.224 A  
HETATM   17  C   UNL     1     -10.054   8.547  67.785  1.00  0.00    -0.211 A  
HETATM   18  C   UNL     1      -9.929   8.359  69.162  1.00  0.00    -0.196 A  
HETATM   19  C   UNL     1     -10.597   7.509  67.002  1.00  0.00    -0.409 A  
HETATM   20  S   UNL     1      -9.252   9.780  69.860  1.00  0.00    -0.220 SA 
ENDBRANCH  11  12
ENDBRANCH   1  11
TORSDOF 3
ENDMDL
MODEL       44
REMARK 921   NORMALIZED FREE ENERGY PREDICTED BY IDOCK:   -5.69 KCAL/MOL
REMARK 922        TOTAL FREE ENERGY PREDICTED BY IDOCK:   -7.00 KCAL/MOL
REMARK 923 INTER-LIGAND FREE ENERGY PREDICTED BY IDOCK:   -6.84 KCAL/MOL
REMARK 924 INTRA-LIGAND FREE ENERGY PREDICTED BY IDOCK:   -0.15 KCAL/MOL
REMARK 927      BINDING AFFINITY PREDICTED BY RF-SCORE:    0.00 PKD
ROOT
HETATM    1  S   UNL     1     -12.660   9.135  71.401  1.00  0.00    -0.313 SA 
ENDROOT
BRANCH   1   2
HETATM    2  C   UNL     1     -12.713  10.888  71.261  1.00  0.00    -0.437 A  
HETATM    3  S   UNL     1     -11.883  11.707  70.004  1.00  0.00    -0.336 SA 
HETATM    4  N   UNL     1     -13.394  11.648  72.090  1.00  0.00    -0.394 NA 
HETATM    5  C   UNL     1     -12.481  13.211  70.591  1.00  0.00    -0.286 A  
HETATM    6  C   UNL     1     -13.278  12.974  71.713  1.00  0.00    -0.392 A  
HETATM    7  C   UNL     1     -12.260  14.508  70.099  1.00  0.00    -0.399 A  
HETATM    8  C   UNL     1     -13.880  14.070  72.361  1.00  0.00    -0.653 A  
HETATM    9  C   UNL     1     -12.860  15.580  70.768  1.00  0.00    -0.513 A  
HETATM   10  C   UNL     1     -13.663  15.366  71.884  1.00  0.00    -0.603 A  
ENDBRANCH   1   2
BRANCH   1  11
HETATM   11  S   UNL     1     -10.625   8.840  71.585  1.00  0.00    -0.357 SA 
BRANCH  11  12
HETATM   12  C   UNL     1     -10.590   7.089  71.726  1.00  0.00    -0.210 A  
HETATM   13  C   UNL     1     -10.800   2.787  73.388  1.00  0.00    -0.293 A  
HETATM   14  C   UNL     1     -10.126   2.422  72.227  1.00  0.00    -0.225 A  
HETATM   15  N   UNL     1     -11.089   6.454  72.763  1.00  0.00    -0.254 NA 
HETATM   16  C   UNL     1      -9.782   3.377  71.265  1.00  0.00    -0.227 A  
HETATM   17  C   UNL     1     -10.814   5.103  72.660  1.00  0.00    -0.247 A  
HETATM   18  C   UNL     1     -10.135   4.716  71.504  1.00  0.00    -0.185 A  
HETATM   19  C   UNL     1     -11.150   4.123  73.614  1.00  0.00    -0.337 A  
HETATM   20  S   UNL     1      -9.849   6.108  70.532  1.00  0.00    -0.182 SA 
ENDBRANCH  11  12
ENDBRANCH   1  11
TORSDOF 3
ENDMDL
MODEL       45
REMARK 921   NORMALIZED FREE ENERGY PREDICTED BY IDOCK:   -5.69 KCAL/MOL
REMARK 922        TOTAL FREE ENERGY PREDICTED BY IDOCK:   -6.99 KCAL/MOL
REMARK 923 INTER-LIGAND FREE ENERGY PREDICTED BY IDOCK:   -6.71 KCAL/MOL
REMARK 924 INTRA-LIGAND FREE ENERGY PREDICTED BY IDOCK:   -0.28 KCAL/MOL
REMARK 927      BINDING AFFINITY PREDICTED BY RF-SCORE:    0.00 PKD
ROOT
HETATM    1  S   UNL     1     -10.674  16.735  68.453  1.00  0.00    -0.360 SA 
ENDROOT
BRANCH   1   2
HETATM    2  C   UNL     1      -9.471  17.864  67.842  1.00  0.00    -0.272 A  
HETATM    3  S   UNL     1      -9.308  19.438  68.503  1.00  0.00    -0.395 SA 
HETATM    4  N   UNL     1      -8.636  17.560  66.873  1.00  0.00    -0.238 NA 
HETATM    5  C   UNL     1      -8.006  19.756  67.423  1.00  0.00    -0.283 A  
HETATM    6  C   UNL     1      -7.789  18.626  66.631  1.00  0.00    -0.255 A  
HETATM    7  C   UNL     1      -7.232  20.920  67.283  1.00  0.00    -0.408 A  
HETATM    8  C   UNL     1      -6.759  18.659  65.670  1.00  0.00    -0.309 A  
HETATM    9  C   UNL     1      -6.224  20.931  66.313  1.00  0.00    -0.309 A  
HETATM   10  C   UNL     1      -5.986  19.814  65.518  1.00  0.00    -0.217 A  
ENDBRANCH   1   2
BRANCH   1  11
HETATM   11  S   UNL     1      -9.542  15.011  68.557  1.00  0.00    -0.216 SA 
BRANCH  11  12
HETATM   12  C   UNL     1     -10.276  14.095  67.250  1.00  0.00    -0.256 A  
HETATM   13  C   UNL     1     -10.934  11.742  63.333  1.00  0.00    -0.458 A  
HETATM   14  C   UNL     1     -12.288  11.971  63.550  1.00  0.00    -0.661 A  
HETATM   15  N   UNL     1      -9.564  13.447  66.354  1.00  0.00    -0.272 NA 
HETATM   16  C   UNL     1     -12.726  12.673  64.677  1.00  0.00    -0.458 A  
HETATM   17  C   UNL     1     -10.397  12.921  65.386  1.00  0.00    -0.296 A  
HETATM   18  C   UNL     1     -11.761  13.143  65.583  1.00  0.00    -0.364 A  
HETATM   19  C   UNL     1      -9.981  12.210  64.243  1.00  0.00    -0.262 A  
HETATM   20  S   UNL     1     -11.976  14.037  67.039  1.00  0.00    -0.422 SA 
ENDBRANCH  11  12
ENDBRANCH   1  11
TORSDOF 3
ENDMDL
MODEL       46
REMARK 921   NORMALIZED FREE ENERGY PREDICTED BY IDOCK:   -5.68 KCAL/MOL
REMARK 922        TOTAL FREE ENERGY PREDICTED BY IDOCK:   -6.99 KCAL/MOL
REMARK 923 INTER-LIGAND FREE ENERGY PREDICTED BY IDOCK:   -6.74 KCAL/MOL
REMARK 924 INTRA-LIGAND FREE ENERGY PREDICTED BY IDOCK:   -0.24 KCAL/MOL
REMARK 927      BINDING AFFINITY PREDICTED BY RF-SCORE:    0.00 PKD
ROOT
HETATM    1  S   UNL     1     -12.448  13.798  66.306  1.00  0.00    -0.325 SA 
ENDROOT
BRANCH   1   2
HETATM    2  C   UNL     1     -11.447  12.603  65.490  1.00  0.00    -0.340 A  
HETATM    3  S   UNL     1     -11.255  12.613  63.787  1.00  0.00    -0.469 SA 
HETATM    4  N   UNL     1     -10.789  11.664  66.136  1.00  0.00    -0.286 NA 
HETATM    5  C   UNL     1     -10.196  11.260  63.898  1.00  0.00    -0.365 A  
HETATM    6  C   UNL     1     -10.065  10.898  65.241  1.00  0.00    -0.280 A  
HETATM    7  C   UNL     1      -9.531  10.566  62.875  1.00  0.00    -0.360 A  
HETATM    8  C   UNL     1      -9.235   9.809  65.572  1.00  0.00    -0.270 A  
HETATM    9  C   UNL     1      -8.722   9.481  63.229  1.00  0.00    -0.238 A  
HETATM   10  C   UNL     1      -8.572   9.107  64.561  1.00  0.00    -0.198 A  
ENDBRANCH   1   2
BRANCH   1  11
HETATM   11  S   UNL     1     -11.442  13.959  68.101  1.00  0.00    -0.334 SA 
BRANCH  11  12
HETATM   12  C   UNL     1     -11.083  15.679  68.089  1.00  0.00    -0.330 A  
HETATM   13  C   UNL     1      -9.947  19.943  66.734  1.00  0.00    -0.569 A  
HETATM   14  C   UNL     1      -9.743  20.201  68.085  1.00  0.00    -0.423 A  
HETATM   15  N   UNL     1     -11.024  16.380  66.978  1.00  0.00    -0.133 NA 
HETATM   16  C   UNL     1      -9.963  19.210  69.047  1.00  0.00    -0.422 A  
HETATM   17  C   UNL     1     -10.608  17.667  67.260  1.00  0.00    -0.296 A  
HETATM   18  C   UNL     1     -10.394  17.946  68.610  1.00  0.00    -0.337 A  
HETATM   19  C   UNL     1     -10.380  18.682  66.310  1.00  0.00    -0.483 A  
HETATM   20  S   UNL     1     -10.737  16.533  69.533  1.00  0.00    -0.287 SA 
ENDBRANCH  11  12
ENDBRANCH   1  11
TORSDOF 3
ENDMDL
MODEL       47
REMARK 921   NORMALIZED FREE ENERGY PREDICTED BY IDOCK:   -5.67 KCAL/MOL
REMARK 922        TOTAL FREE ENERGY PREDICTED BY IDOCK:   -6.96 KCAL/MOL
REMARK 923 INTER-LIGAND FREE ENERGY PREDICTED BY IDOCK:   -6.80 KCAL/MOL
REMARK 924 INTRA-LIGAND FREE ENERGY PREDICTED BY IDOCK:   -0.17 KCAL/MOL
REMARK 927      BINDING AFFINITY PREDICTED BY RF-SCORE:    0.00 PKD
ROOT
HETATM    1  S   UNL     1     -11.036   8.630  70.425  1.00  0.00    -0.225 SA 
ENDROOT
BRANCH   1   2
HETATM    2  C   UNL     1     -10.786   7.012  71.069  1.00  0.00    -0.233 A  
HETATM    3  S   UNL     1      -9.921   5.825  70.185  1.00  0.00    -0.214 SA 
HETATM    4  N   UNL     1     -11.227   6.639  72.251  1.00  0.00    -0.256 NA 
HETATM    5  C   UNL     1     -10.131   4.709  71.479  1.00  0.00    -0.185 A  
HETATM    6  C   UNL     1     -10.852   5.332  72.500  1.00  0.00    -0.245 A  
HETATM    7  C   UNL     1      -9.694   3.378  71.585  1.00  0.00    -0.234 A  
HETATM    8  C   UNL     1     -11.140   4.601  73.670  1.00  0.00    -0.379 A  
HETATM    9  C   UNL     1     -10.004   2.671  72.751  1.00  0.00    -0.208 A  
HETATM   10  C   UNL     1     -10.715   3.274  73.784  1.00  0.00    -0.298 A  
ENDBRANCH   1   2
BRANCH   1  11
HETATM   11  S   UNL     1     -12.823   9.118  71.337  1.00  0.00    -0.290 SA 
BRANCH  11  12
HETATM   12  C   UNL     1     -12.732  10.871  71.251  1.00  0.00    -0.437 A  
HETATM   13  C   UNL     1     -13.575  15.371  71.841  1.00  0.00    -0.590 A  
HETATM   14  C   UNL     1     -12.753  15.559  70.735  1.00  0.00    -0.511 A  
HETATM   15  N   UNL     1     -13.381  11.653  72.084  1.00  0.00    -0.394 NA 
HETATM   16  C   UNL     1     -12.152  14.472  70.094  1.00  0.00    -0.394 A  
HETATM   17  C   UNL     1     -13.220  12.973  71.707  1.00  0.00    -0.392 A  
HETATM   18  C   UNL     1     -12.401  13.184  70.597  1.00  0.00    -0.326 A  
HETATM   19  C   UNL     1     -13.814  14.084  72.336  1.00  0.00    -0.653 A  
HETATM   20  S   UNL     1     -11.825  11.662  70.032  1.00  0.00    -0.336 SA 
ENDBRANCH  11  12
ENDBRANCH   1  11
TORSDOF 3
ENDMDL
MODEL       48
REMARK 921   NORMALIZED FREE ENERGY PREDICTED BY IDOCK:   -5.65 KCAL/MOL
REMARK 922        TOTAL FREE ENERGY PREDICTED BY IDOCK:   -6.94 KCAL/MOL
REMARK 923 INTER-LIGAND FREE ENERGY PREDICTED BY IDOCK:   -6.62 KCAL/MOL
REMARK 924 INTRA-LIGAND FREE ENERGY PREDICTED BY IDOCK:   -0.33 KCAL/MOL
REMARK 927      BINDING AFFINITY PREDICTED BY RF-SCORE:    0.00 PKD
ROOT
HETATM    1  S   UNL     1     -10.363  14.478  69.176  1.00  0.00    -0.140 SA 
ENDROOT
BRANCH   1   2
HETATM    2  C   UNL     1     -10.576  13.760  67.584  1.00  0.00    -0.242 A  
HETATM    3  S   UNL     1      -9.404  12.699  66.920  1.00  0.00    -0.232 SA 
HETATM    4  N   UNL     1     -11.636  13.983  66.838  1.00  0.00    -0.365 NA 
HETATM    5  C   UNL     1     -10.383  12.497  65.518  1.00  0.00    -0.280 A  
HETATM    6  C   UNL     1     -11.542  13.262  65.662  1.00  0.00    -0.335 A  
HETATM    7  C   UNL     1     -10.142  11.722  64.372  1.00  0.00    -0.319 A  
HETATM    8  C   UNL     1     -12.498  13.245  64.627  1.00  0.00    -0.408 A  
HETATM    9  C   UNL     1     -11.101  11.733  63.353  1.00  0.00    -0.448 A  
HETATM   10  C   UNL     1     -12.268  12.482  63.479  1.00  0.00    -0.652 A  
ENDBRANCH   1   2
BRANCH   1  11
HETATM   11  S   UNL     1     -11.508  16.183  68.968  1.00  0.00    -0.280 SA 
BRANCH  11  12
HETATM   12  C   UNL     1     -10.254  17.329  68.516  1.00  0.00    -0.358 A  
HETATM   13  C   UNL     1      -6.261  19.630  68.250  1.00  0.00    -0.267 A  
HETATM   14  C   UNL     1      -6.999  20.619  67.608  1.00  0.00    -0.376 A  
HETATM   15  N   UNL     1      -8.989  17.152  68.827  1.00  0.00    -0.258 NA 
HETATM   16  C   UNL     1      -8.368  20.457  67.375  1.00  0.00    -0.380 A  
HETATM   17  C   UNL     1      -8.256  18.261  68.451  1.00  0.00    -0.311 A  
HETATM   18  C   UNL     1      -8.978  19.268  67.809  1.00  0.00    -0.307 A  
HETATM   19  C   UNL     1      -6.878  18.448  68.674  1.00  0.00    -0.275 A  
HETATM   20  S   UNL     1     -10.624  18.779  67.681  1.00  0.00    -0.386 SA 
ENDBRANCH  11  12
ENDBRANCH   1  11
TORSDOF 3
ENDMDL
MODEL       49
REMARK 921   NORMALIZED FREE ENERGY PREDICTED BY IDOCK:   -5.64 KCAL/MOL
REMARK 922        TOTAL FREE ENERGY PREDICTED BY IDOCK:   -6.94 KCAL/MOL
REMARK 923 INTER-LIGAND FREE ENERGY PREDICTED BY IDOCK:   -6.63 KCAL/MOL
REMARK 924 INTRA-LIGAND FREE ENERGY PREDICTED BY IDOCK:   -0.31 KCAL/MOL
REMARK 927      BINDING AFFINITY PREDICTED BY RF-SCORE:    0.00 PKD
ROOT
HETATM    1  S   UNL     1     -13.189   8.417  71.779  1.00  0.00    -0.358 SA 
ENDROOT
BRANCH   1   2
HETATM    2  C   UNL     1     -12.967  10.146  71.539  1.00  0.00    -0.444 A  
HETATM    3  S   UNL     1     -12.013  10.752  70.250  1.00  0.00    -0.380 SA 
HETATM    4  N   UNL     1     -13.527  11.050  72.313  1.00  0.00    -0.167 NA 
HETATM    5  C   UNL     1     -12.373  12.362  70.741  1.00  0.00    -0.286 A  
HETATM    6  C   UNL     1     -13.203  12.318  71.863  1.00  0.00    -0.376 A  
HETATM    7  C   UNL     1     -11.950  13.578  70.179  1.00  0.00    -0.399 A  
HETATM    8  C   UNL     1     -13.632  13.530  72.438  1.00  0.00    -0.709 A  
HETATM    9  C   UNL     1     -12.379  14.767  70.777  1.00  0.00    -0.397 A  
HETATM   10  C   UNL     1     -13.213  14.747  71.891  1.00  0.00    -0.436 A  
ENDBRANCH   1   2
BRANCH   1  11
HETATM   11  S   UNL     1     -11.295   7.886  72.405  1.00  0.00    -0.396 SA 
BRANCH  11  12
HETATM   12  C   UNL     1     -10.781   6.935  71.020  1.00  0.00    -0.231 A  
HETATM   13  C   UNL     1     -10.449   5.114  66.791  1.00  0.00    -0.306 A  
HETATM   14  C   UNL     1      -9.678   4.126  67.395  1.00  0.00    -0.202 A  
HETATM   15  N   UNL     1     -11.162   7.211  69.792  1.00  0.00    -0.214 NA 
HETATM   16  C   UNL     1      -9.405   4.166  68.765  1.00  0.00    -0.222 A  
HETATM   17  C   UNL     1     -10.705   6.233  68.930  1.00  0.00    -0.299 A  
HETATM   18  C   UNL     1      -9.932   5.230  69.517  1.00  0.00    -0.227 A  
HETATM   19  C   UNL     1     -10.966   6.171  67.547  1.00  0.00    -0.404 A  
HETATM   20  S   UNL     1      -9.786   5.552  71.202  1.00  0.00    -0.181 SA 
ENDBRANCH  11  12
ENDBRANCH   1  11
TORSDOF 3
ENDMDL
MODEL       50
REMARK 921   NORMALIZED FREE ENERGY PREDICTED BY IDOCK:   -5.64 KCAL/MOL
REMARK 922        TOTAL FREE ENERGY PREDICTED BY IDOCK:   -6.94 KCAL/MOL
REMARK 923 INTER-LIGAND FREE ENERGY PREDICTED BY IDOCK:   -6.65 KCAL/MOL
REMARK 924 INTRA-LIGAND FREE ENERGY PREDICTED BY IDOCK:   -0.29 KCAL/MOL
REMARK 927      BINDING AFFINITY PREDICTED BY RF-SCORE:    0.00 PKD
ROOT
HETATM    1  S   UNL     1      -9.223  10.306  69.383  1.00  0.00    -0.156 SA 
ENDROOT
BRANCH   1   2
HETATM    2  C   UNL     1      -9.370  10.521  67.643  1.00  0.00    -0.149 A  
HETATM    3  S   UNL     1      -8.807   9.328  66.547  1.00  0.00    -0.137 SA 
HETATM    4  N   UNL     1      -9.926  11.582  67.100  1.00  0.00    -0.197 NA 
HETATM    5  C   UNL     1      -9.353  10.286  65.225  1.00  0.00    -0.215 A  
HETATM    6  C   UNL     1      -9.931  11.456  65.723  1.00  0.00    -0.230 A  
HETATM    7  C   UNL     1      -9.275  10.026  63.847  1.00  0.00    -0.317 A  
HETATM    8  C   UNL     1     -10.454  12.395  64.812  1.00  0.00    -0.333 A  
HETATM    9  C   UNL     1      -9.791  10.980  62.964  1.00  0.00    -0.370 A  
HETATM   10  C   UNL     1     -10.377  12.150  63.438  1.00  0.00    -0.438 A  
ENDBRANCH   1   2
BRANCH   1  11
HETATM   11  S   UNL     1     -11.077   9.507  69.814  1.00  0.00    -0.146 SA 
BRANCH  11  12
HETATM   12  C   UNL     1     -11.899  10.952  70.383  1.00  0.00    -0.357 A  
HETATM   13  C   UNL     1     -13.064  15.348  71.172  1.00  0.00    -0.565 A  
HETATM   14  C   UNL     1     -13.848  14.842  72.204  1.00  0.00    -0.576 A  
HETATM   15  N   UNL     1     -11.674  12.141  69.870  1.00  0.00    -0.311 NA 
HETATM   16  C   UNL     1     -13.908  13.467  72.452  1.00  0.00    -0.687 A  
HETATM   17  C   UNL     1     -12.365  13.098  70.588  1.00  0.00    -0.326 A  
HETATM   18  C   UNL     1     -13.154  12.611  71.631  1.00  0.00    -0.323 A  
HETATM   19  C   UNL     1     -12.321  14.487  70.358  1.00  0.00    -0.400 A  
HETATM   20  S   UNL     1     -13.011  10.896  71.686  1.00  0.00    -0.417 SA 
ENDBRANCH  11  12
ENDBRANCH   1  11
TORSDOF 3
ENDMDL
MODEL       51
REMARK 921   NORMALIZED FREE ENERGY PREDICTED BY IDOCK:   -5.64 KCAL/MOL
REMARK 922        TOTAL FREE ENERGY PREDICTED BY IDOCK:   -6.93 KCAL/MOL
REMARK 923 INTER-LIGAND FREE ENERGY PREDICTED BY IDOCK:   -6.64 KCAL/MOL
REMARK 924 INTRA-LIGAND FREE ENERGY PREDICTED BY IDOCK:   -0.29 KCAL/MOL
REMARK 927      BINDING AFFINITY PREDICTED BY RF-SCORE:    0.00 PKD
ROOT
HETATM    1  S   UNL     1     -10.258  14.244  67.383  1.00  0.00    -0.248 SA 
ENDROOT
BRANCH   1   2
HETATM    2  C   UNL     1     -11.001  14.560  68.947  1.00  0.00    -0.256 A  
HETATM    3  S   UNL     1     -10.725  16.030  69.784  1.00  0.00    -0.345 SA 
HETATM    4  N   UNL     1     -11.807  13.706  69.539  1.00  0.00    -0.318 NA 
HETATM    5  C   UNL     1     -11.773  15.508  71.046  1.00  0.00    -0.381 A  
HETATM    6  C   UNL     1     -12.261  14.238  70.731  1.00  0.00    -0.353 A  
HETATM    7  C   UNL     1     -12.137  16.170  72.230  1.00  0.00    -0.616 A  
HETATM    8  C   UNL     1     -13.149  13.611  71.628  1.00  0.00    -0.455 A  
HETATM    9  C   UNL     1     -13.009  15.521  73.109  1.00  0.00    -0.634 A  
HETATM   10  C   UNL     1     -13.513  14.258  72.813  1.00  0.00    -0.590 A  
ENDBRANCH   1   2
BRANCH   1  11
HETATM   11  S   UNL     1      -8.263  14.264  67.912  1.00  0.00    -0.172 SA 
BRANCH  11  12
HETATM   12  C   UNL     1      -7.887  15.950  67.588  1.00  0.00    -0.146 A  
HETATM   13  C   UNL     1      -6.403  20.302  68.001  1.00  0.00    -0.307 A  
HETATM   14  C   UNL     1      -7.210  20.567  66.899  1.00  0.00    -0.344 A  
HETATM   15  N   UNL     1      -7.055  16.644  68.333  1.00  0.00    -0.160 NA 
HETATM   16  C   UNL     1      -7.947  19.548  66.288  1.00  0.00    -0.332 A  
HETATM   17  C   UNL     1      -7.045  17.962  67.919  1.00  0.00    -0.210 A  
HETATM   18  C   UNL     1      -7.852  18.250  66.817  1.00  0.00    -0.235 A  
HETATM   19  C   UNL     1      -6.312  19.005  68.517  1.00  0.00    -0.256 A  
HETATM   20  S   UNL     1      -8.631  16.803  66.302  1.00  0.00    -0.280 SA 
ENDBRANCH  11  12
ENDBRANCH   1  11
TORSDOF 3
ENDMDL
MODEL       52
REMARK 921   NORMALIZED FREE ENERGY PREDICTED BY IDOCK:   -5.61 KCAL/MOL
REMARK 922        TOTAL FREE ENERGY PREDICTED BY IDOCK:   -6.90 KCAL/MOL
REMARK 923 INTER-LIGAND FREE ENERGY PREDICTED BY IDOCK:   -6.61 KCAL/MOL
REMARK 924 INTRA-LIGAND FREE ENERGY PREDICTED BY IDOCK:   -0.30 KCAL/MOL
REMARK 927      BINDING AFFINITY PREDICTED BY RF-SCORE:    0.00 PKD
ROOT
HETATM    1  S   UNL     1      -8.340   9.110  67.710  1.00  0.00    -0.116 SA 
ENDROOT
BRANCH   1   2
HETATM    2  C   UNL     1      -9.318  10.119  66.650  1.00  0.00    -0.162 A  
HETATM    3  S   UNL     1      -9.268   9.933  64.947  1.00  0.00    -0.263 SA 
HETATM    4  N   UNL     1     -10.138  11.042  67.103  1.00  0.00    -0.188 NA 
HETATM    5  C   UNL     1     -10.446  11.177  64.777  1.00  0.00    -0.323 A  
HETATM    6  C   UNL     1     -10.794  11.646  66.045  1.00  0.00    -0.289 A  
HETATM    7  C   UNL     1     -11.020  11.703  63.608  1.00  0.00    -0.507 A  
HETATM    8  C   UNL     1     -11.754  12.672  66.149  1.00  0.00    -0.461 A  
HETATM    9  C   UNL     1     -11.961  12.730  63.738  1.00  0.00    -0.585 A  
HETATM   10  C   UNL     1     -12.328  13.208  64.992  1.00  0.00    -0.511 A  
ENDBRANCH   1   2
BRANCH   1  11
HETATM   11  S   UNL     1      -8.568  10.122  69.495  1.00  0.00    -0.137 SA 
BRANCH  11  12
HETATM   12  C   UNL     1     -10.086   9.424  70.040  1.00  0.00    -0.226 A  
HETATM   13  C   UNL     1     -14.165   8.789  72.108  1.00  0.00    -0.504 A  
HETATM   14  C   UNL     1     -13.974   7.440  71.828  1.00  0.00    -0.469 A  
HETATM   15  N   UNL     1     -11.038  10.145  70.591  1.00  0.00    -0.323 NA 
HETATM   16  C   UNL     1     -12.833   7.002  71.149  1.00  0.00    -0.328 A  
HETATM   17  C   UNL     1     -12.056   9.319  71.027  1.00  0.00    -0.280 A  
HETATM   18  C   UNL     1     -11.883   7.961  70.759  1.00  0.00    -0.176 A  
HETATM   19  C   UNL     1     -13.215   9.737  71.711  1.00  0.00    -0.532 A  
HETATM   20  S   UNL     1     -10.390   7.741  69.930  1.00  0.00    -0.227 SA 
ENDBRANCH  11  12
ENDBRANCH   1  11
TORSDOF 3
ENDMDL
MODEL       53
REMARK 921   NORMALIZED FREE ENERGY PREDICTED BY IDOCK:   -5.61 KCAL/MOL
REMARK 922        TOTAL FREE ENERGY PREDICTED BY IDOCK:   -6.90 KCAL/MOL
REMARK 923 INTER-LIGAND FREE ENERGY PREDICTED BY IDOCK:   -6.55 KCAL/MOL
REMARK 924 INTRA-LIGAND FREE ENERGY PREDICTED BY IDOCK:   -0.34 KCAL/MOL
REMARK 927      BINDING AFFINITY PREDICTED BY RF-SCORE:    0.00 PKD
ROOT
HETATM    1  S   UNL     1     -11.786  15.862  69.049  1.00  0.00    -0.308 SA 
ENDROOT
BRANCH   1   2
HETATM    2  C   UNL     1     -10.421  16.901  68.657  1.00  0.00    -0.352 A  
HETATM    3  S   UNL     1      -8.805  16.367  68.868  1.00  0.00    -0.241 SA 
HETATM    4  N   UNL     1     -10.565  18.115  68.174  1.00  0.00    -0.347 NA 
HETATM    5  C   UNL     1      -8.230  17.870  68.255  1.00  0.00    -0.290 A  
HETATM    6  C   UNL     1      -9.324  18.675  67.932  1.00  0.00    -0.298 A  
HETATM    7  C   UNL     1      -6.908  18.308  68.076  1.00  0.00    -0.212 A  
HETATM    8  C   UNL     1      -9.088  19.960  67.404  1.00  0.00    -0.436 A  
HETATM    9  C   UNL     1      -6.701  19.593  67.563  1.00  0.00    -0.242 A  
HETATM   10  C   UNL     1      -7.776  20.410  67.227  1.00  0.00    -0.372 A  
ENDBRANCH   1   2
BRANCH   1  11
HETATM   11  S   UNL     1     -10.818  14.054  69.282  1.00  0.00    -0.099 SA 
BRANCH  11  12
HETATM   12  C   UNL     1     -10.883  13.466  67.627  1.00  0.00    -0.259 A  
HETATM   13  C   UNL     1     -12.383  12.139  63.468  1.00  0.00    -0.682 A  
HETATM   14  C   UNL     1     -11.137  11.537  63.331  1.00  0.00    -0.370 A  
HETATM   15  N   UNL     1     -11.945  13.613  66.866  1.00  0.00    -0.405 NA 
HETATM   16  C   UNL     1     -10.181  11.625  64.347  1.00  0.00    -0.346 A  
HETATM   17  C   UNL     1     -11.756  12.953  65.667  1.00  0.00    -0.387 A  
HETATM   18  C   UNL     1     -10.513  12.338  65.511  1.00  0.00    -0.264 A  
HETATM   19  C   UNL     1     -12.702  12.850  64.629  1.00  0.00    -0.403 A  
HETATM   20  S   UNL     1      -9.571  12.616  66.925  1.00  0.00    -0.237 SA 
ENDBRANCH  11  12
ENDBRANCH   1  11
TORSDOF 3
ENDMDL
MODEL       54
REMARK 921   NORMALIZED FREE ENERGY PREDICTED BY IDOCK:   -5.60 KCAL/MOL
REMARK 922        TOTAL FREE ENERGY PREDICTED BY IDOCK:   -6.89 KCAL/MOL
REMARK 923 INTER-LIGAND FREE ENERGY PREDICTED BY IDOCK:   -6.98 KCAL/MOL
REMARK 924 INTRA-LIGAND FREE ENERGY PREDICTED BY IDOCK:    0.09 KCAL/MOL
REMARK 927      BINDING AFFINITY PREDICTED BY RF-SCORE:    0.00 PKD
ROOT
HETATM    1  S   UNL     1     -10.400  10.802  69.149  1.00  0.00    -0.204 SA 
ENDROOT
BRANCH   1   2
HETATM    2  C   UNL     1     -10.646  12.034  67.916  1.00  0.00    -0.202 A  
HETATM    3  S   UNL     1      -9.468  13.243  67.616  1.00  0.00    -0.219 SA 
HETATM    4  N   UNL     1     -11.722  12.080  67.161  1.00  0.00    -0.566 NA 
HETATM    5  C   UNL     1     -10.454  13.891  66.362  1.00  0.00    -0.284 A  
HETATM    6  C   UNL     1     -11.620  13.129  66.265  1.00  0.00    -0.356 A  
HETATM    7  C   UNL     1     -10.217  14.995  65.527  1.00  0.00    -0.406 A  
HETATM    8  C   UNL     1     -12.580  13.479  65.294  1.00  0.00    -0.517 A  
HETATM    9  C   UNL     1     -11.191  15.329  64.580  1.00  0.00    -0.291 A  
HETATM   10  C   UNL     1     -12.357  14.579  64.460  1.00  0.00    -0.434 A  
ENDBRANCH   1   2
BRANCH   1  11
HETATM   11  S   UNL     1     -12.326  10.610  69.867  1.00  0.00    -0.152 SA 
BRANCH  11  12
HETATM   12  C   UNL     1     -12.486  12.147  70.704  1.00  0.00    -0.242 A  
HETATM   13  C   UNL     1     -11.864  16.505  72.092  1.00  0.00    -0.360 A  
HETATM   14  C   UNL     1     -12.636  16.150  73.193  1.00  0.00    -0.599 A  
HETATM   15  N   UNL     1     -11.914  13.249  70.273  1.00  0.00    -0.327 NA 
HETATM   16  C   UNL     1     -13.158  14.859  73.318  1.00  0.00    -0.585 A  
HETATM   17  C   UNL     1     -12.111  14.266  71.187  1.00  0.00    -0.336 A  
HETATM   18  C   UNL     1     -12.880  13.930  72.302  1.00  0.00    -0.292 A  
HETATM   19  C   UNL     1     -11.597  15.574  71.083  1.00  0.00    -0.446 A  
HETATM   20  S   UNL     1     -13.362  12.282  72.171  1.00  0.00    -0.162 SA 
ENDBRANCH  11  12
ENDBRANCH   1  11
TORSDOF 3
ENDMDL
MODEL       55
REMARK 921   NORMALIZED FREE ENERGY PREDICTED BY IDOCK:   -5.60 KCAL/MOL
REMARK 922        TOTAL FREE ENERGY PREDICTED BY IDOCK:   -6.89 KCAL/MOL
REMARK 923 INTER-LIGAND FREE ENERGY PREDICTED BY IDOCK:   -6.67 KCAL/MOL
REMARK 924 INTRA-LIGAND FREE ENERGY PREDICTED BY IDOCK:   -0.22 KCAL/MOL
REMARK 927      BINDING AFFINITY PREDICTED BY RF-SCORE:    0.00 PKD
ROOT
HETATM    1  S   UNL     1     -12.613  14.488  70.089  1.00  0.00    -0.219 SA 
ENDROOT
BRANCH   1   2
HETATM    2  C   UNL     1     -12.495  12.806  70.594  1.00  0.00    -0.246 A  
HETATM    3  S   UNL     1     -13.375  12.216  71.942  1.00  0.00    -0.159 SA 
HETATM    4  N   UNL     1     -11.752  11.923  69.963  1.00  0.00    -0.312 NA 
HETATM    5  C   UNL     1     -12.731  10.643  71.673  1.00  0.00    -0.426 A  
HETATM    6  C   UNL     1     -11.884  10.684  70.563  1.00  0.00    -0.357 A  
HETATM    7  C   UNL     1     -12.953   9.457  72.392  1.00  0.00    -0.427 A  
HETATM    8  C   UNL     1     -11.244   9.498  70.153  1.00  0.00    -0.275 A  
HETATM    9  C   UNL     1     -12.296   8.296  71.972  1.00  0.00    -0.395 A  
HETATM   10  C   UNL     1     -11.454   8.313  70.864  1.00  0.00    -0.296 A  
ENDBRANCH   1   2
BRANCH   1  11
HETATM   11  S   UNL     1     -10.699  14.794  69.379  1.00  0.00    -0.215 SA 
BRANCH  11  12
HETATM   12  C   UNL     1     -10.837  14.020  67.808  1.00  0.00    -0.247 A  
HETATM   13  C   UNL     1     -12.523  12.150  63.939  1.00  0.00    -0.581 A  
HETATM   14  C   UNL     1     -11.254  11.604  63.779  1.00  0.00    -0.498 A  
HETATM   15  N   UNL     1     -11.954  14.022  67.115  1.00  0.00    -0.422 NA 
HETATM   16  C   UNL     1     -10.240  11.859  64.707  1.00  0.00    -0.314 A  
HETATM   17  C   UNL     1     -11.804  13.242  65.985  1.00  0.00    -0.395 A  
HETATM   18  C   UNL     1     -10.538  12.681  65.807  1.00  0.00    -0.272 A  
HETATM   19  C   UNL     1     -12.809  12.971  65.035  1.00  0.00    -0.365 A  
HETATM   20  S   UNL     1      -9.524  13.168  67.110  1.00  0.00    -0.247 SA 
ENDBRANCH  11  12
ENDBRANCH   1  11
TORSDOF 3
ENDMDL
MODEL       56
REMARK 921   NORMALIZED FREE ENERGY PREDICTED BY IDOCK:   -5.57 KCAL/MOL
REMARK 922        TOTAL FREE ENERGY PREDICTED BY IDOCK:   -6.86 KCAL/MOL
REMARK 923 INTER-LIGAND FREE ENERGY PREDICTED BY IDOCK:   -6.62 KCAL/MOL
REMARK 924 INTRA-LIGAND FREE ENERGY PREDICTED BY IDOCK:   -0.24 KCAL/MOL
REMARK 927      BINDING AFFINITY PREDICTED BY RF-SCORE:    0.00 PKD
ROOT
HETATM    1  S   UNL     1     -10.095  11.595  67.747  1.00  0.00    -0.191 SA 
ENDROOT
BRANCH   1   2
HETATM    2  C   UNL     1     -11.121  12.349  68.961  1.00  0.00    -0.235 A  
HETATM    3  S   UNL     1     -11.948  11.413  70.136  1.00  0.00    -0.382 SA 
HETATM    4  N   UNL     1     -11.292  13.651  69.040  1.00  0.00    -0.271 NA 
HETATM    5  C   UNL     1     -12.588  12.852  70.830  1.00  0.00    -0.270 A  
HETATM    6  C   UNL     1     -12.119  13.951  70.108  1.00  0.00    -0.349 A  
HETATM    7  C   UNL     1     -13.447  13.001  71.932  1.00  0.00    -0.498 A  
HETATM    8  C   UNL     1     -12.516  15.244  70.504  1.00  0.00    -0.454 A  
HETATM    9  C   UNL     1     -13.835  14.294  72.298  1.00  0.00    -0.622 A  
HETATM   10  C   UNL     1     -13.374  15.404  71.596  1.00  0.00    -0.578 A  
ENDBRANCH   1   2
BRANCH   1  11
HETATM   11  S   UNL     1     -11.028  12.240  66.023  1.00  0.00    -0.306 SA 
BRANCH  11  12
HETATM   12  C   UNL     1     -10.472  13.907  65.990  1.00  0.00    -0.298 A  
HETATM   13  C   UNL     1      -8.011  17.756  66.653  1.00  0.00    -0.283 A  
HETATM   14  C   UNL     1      -9.157  18.429  66.246  1.00  0.00    -0.213 A  
HETATM   15  N   UNL     1      -9.252  14.252  66.337  1.00  0.00    -0.240 NA 
HETATM   16  C   UNL     1     -10.309  17.729  65.876  1.00  0.00    -0.257 A  
HETATM   17  C   UNL     1      -9.136  15.629  66.329  1.00  0.00    -0.341 A  
HETATM   18  C   UNL     1     -10.277  16.325  65.927  1.00  0.00    -0.364 A  
HETATM   19  C   UNL     1      -7.988  16.358  66.697  1.00  0.00    -0.323 A  
HETATM   20  S   UNL     1     -11.517  15.192  65.549  1.00  0.00    -0.144 SA 
ENDBRANCH  11  12
ENDBRANCH   1  11
TORSDOF 3
ENDMDL
MODEL       57
REMARK 921   NORMALIZED FREE ENERGY PREDICTED BY IDOCK:   -5.54 KCAL/MOL
REMARK 922        TOTAL FREE ENERGY PREDICTED BY IDOCK:   -6.82 KCAL/MOL
REMARK 923 INTER-LIGAND FREE ENERGY PREDICTED BY IDOCK:   -6.66 KCAL/MOL
REMARK 924 INTRA-LIGAND FREE ENERGY PREDICTED BY IDOCK:   -0.16 KCAL/MOL
REMARK 927      BINDING AFFINITY PREDICTED BY RF-SCORE:    0.00 PKD
ROOT
HETATM    1  S   UNL     1     -10.194  10.251  69.530  1.00  0.00    -0.229 SA 
ENDROOT
BRANCH   1   2
HETATM    2  C   UNL     1     -10.697  11.076  68.060  1.00  0.00    -0.217 A  
HETATM    3  S   UNL     1     -11.701  12.465  68.115  1.00  0.00    -0.331 SA 
HETATM    4  N   UNL     1     -10.321  10.688  66.861  1.00  0.00    -0.227 NA 
HETATM    5  C   UNL     1     -11.632  12.582  66.399  1.00  0.00    -0.391 A  
HETATM    6  C   UNL     1     -10.839  11.544  65.906  1.00  0.00    -0.260 A  
HETATM    7  C   UNL     1     -12.237  13.522  65.548  1.00  0.00    -0.490 A  
HETATM    8  C   UNL     1     -10.639  11.445  64.515  1.00  0.00    -0.390 A  
HETATM    9  C   UNL     1     -12.032  13.395  64.171  1.00  0.00    -0.505 A  
HETATM   10  C   UNL     1     -11.240  12.372  63.658  1.00  0.00    -0.544 A  
ENDBRANCH   1   2
BRANCH   1  11
HETATM   11  S   UNL     1     -11.999  10.144  70.528  1.00  0.00    -0.309 SA 
BRANCH  11  12
HETATM   12  C   UNL     1     -11.701   8.730  71.529  1.00  0.00    -0.309 A  
HETATM   13  C   UNL     1      -9.759   5.683  74.401  1.00  0.00    -0.202 A  
HETATM   14  C   UNL     1     -10.706   4.787  73.916  1.00  0.00    -0.362 A  
HETATM   15  N   UNL     1     -10.749   8.694  72.435  1.00  0.00    -0.308 NA 
HETATM   16  C   UNL     1     -11.647   5.183  72.961  1.00  0.00    -0.301 A  
HETATM   17  C   UNL     1     -10.671   7.427  72.980  1.00  0.00    -0.364 A  
HETATM   18  C   UNL     1     -11.609   6.510  72.504  1.00  0.00    -0.208 A  
HETATM   19  C   UNL     1      -9.733   7.004  73.942  1.00  0.00    -0.331 A  
HETATM   20  S   UNL     1     -12.611   7.291  71.341  1.00  0.00    -0.384 SA 
ENDBRANCH  11  12
ENDBRANCH   1  11
TORSDOF 3
ENDMDL
MODEL       58
REMARK 921   NORMALIZED FREE ENERGY PREDICTED BY IDOCK:   -5.54 KCAL/MOL
REMARK 922        TOTAL FREE ENERGY PREDICTED BY IDOCK:   -6.81 KCAL/MOL
REMARK 923 INTER-LIGAND FREE ENERGY PREDICTED BY IDOCK:   -6.64 KCAL/MOL
REMARK 924 INTRA-LIGAND FREE ENERGY PREDICTED BY IDOCK:   -0.17 KCAL/MOL
REMARK 927      BINDING AFFINITY PREDICTED BY RF-SCORE:    0.00 PKD
ROOT
HETATM    1  S   UNL     1     -10.438   9.638  69.154  1.00  0.00    -0.221 SA 
ENDROOT
BRANCH   1   2
HETATM    2  C   UNL     1     -10.521   8.493  70.487  1.00  0.00    -0.204 A  
HETATM    3  S   UNL     1     -11.409   7.033  70.354  1.00  0.00    -0.307 SA 
HETATM    4  N   UNL     1      -9.903   8.687  71.632  1.00  0.00    -0.252 NA 
HETATM    5  C   UNL     1     -10.932   6.598  71.950  1.00  0.00    -0.244 A  
HETATM    6  C   UNL     1     -10.122   7.609  72.471  1.00  0.00    -0.229 A  
HETATM    7  C   UNL     1     -11.252   5.448  72.691  1.00  0.00    -0.333 A  
HETATM    8  C   UNL     1      -9.608   7.463  73.775  1.00  0.00    -0.333 A  
HETATM    9  C   UNL     1     -10.739   5.333  73.987  1.00  0.00    -0.286 A  
HETATM   10  C   UNL     1      -9.924   6.325  74.524  1.00  0.00    -0.356 A  
ENDBRANCH   1   2
BRANCH   1  11
HETATM   11  S   UNL     1     -11.571  11.183  69.922  1.00  0.00    -0.349 SA 
BRANCH  11  12
HETATM   12  C   UNL     1     -11.773  12.153  68.471  1.00  0.00    -0.330 A  
HETATM   13  C   UNL     1     -12.023  13.513  64.066  1.00  0.00    -0.501 A  
HETATM   14  C   UNL     1     -11.928  14.805  64.573  1.00  0.00    -0.451 A  
HETATM   15  N   UNL     1     -11.923  11.619  67.279  1.00  0.00    -0.602 NA 
HETATM   16  C   UNL     1     -11.836  15.031  65.950  1.00  0.00    -0.021 A  
HETATM   17  C   UNL     1     -11.938  12.614  66.320  1.00  0.00    -0.374 A  
HETATM   18  C   UNL     1     -11.841  13.918  66.807  1.00  0.00    -0.424 A  
HETATM   19  C   UNL     1     -12.030  12.412  64.929  1.00  0.00    -0.458 A  
HETATM   20  S   UNL     1     -11.733  13.865  68.525  1.00  0.00    -0.372 SA 
ENDBRANCH  11  12
ENDBRANCH   1  11
TORSDOF 3
ENDMDL
MODEL       59
REMARK 921   NORMALIZED FREE ENERGY PREDICTED BY IDOCK:   -5.53 KCAL/MOL
REMARK 922        TOTAL FREE ENERGY PREDICTED BY IDOCK:   -6.81 KCAL/MOL
REMARK 923 INTER-LIGAND FREE ENERGY PREDICTED BY IDOCK:   -6.52 KCAL/MOL
REMARK 924 INTRA-LIGAND FREE ENERGY PREDICTED BY IDOCK:   -0.29 KCAL/MOL
REMARK 927      BINDING AFFINITY PREDICTED BY RF-SCORE:    0.00 PKD
ROOT
HETATM    1  S   UNL     1      -7.991  11.320  68.244  1.00  0.00    -0.141 SA 
ENDROOT
BRANCH   1   2
HETATM    2  C   UNL     1      -9.068  11.761  66.925  1.00  0.00    -0.192 A  
HETATM    3  S   UNL     1      -9.275  10.741  65.562  1.00  0.00    -0.211 SA 
HETATM    4  N   UNL     1      -9.774  12.871  66.922  1.00  0.00    -0.233 NA 
HETATM    5  C   UNL     1     -10.410  11.853  64.902  1.00  0.00    -0.286 A  
HETATM    6  C   UNL     1     -10.550  12.931  65.779  1.00  0.00    -0.275 A  
HETATM    7  C   UNL     1     -11.125  11.781  63.695  1.00  0.00    -0.518 A  
HETATM    8  C   UNL     1     -11.439  13.970  65.440  1.00  0.00    -0.315 A  
HETATM    9  C   UNL     1     -11.992  12.832  63.376  1.00  0.00    -0.613 A  
HETATM   10  C   UNL     1     -12.152  13.912  64.239  1.00  0.00    -0.477 A  
ENDBRANCH   1   2
BRANCH   1  11
HETATM   11  S   UNL     1      -8.361   9.292  68.359  1.00  0.00    -0.120 SA 
BRANCH  11  12
HETATM   12  C   UNL     1      -9.826   9.312  69.329  1.00  0.00    -0.172 A  
HETATM   13  C   UNL     1     -13.410  10.696  71.889  1.00  0.00    -0.454 A  
HETATM   14  C   UNL     1     -13.531   9.358  72.247  1.00  0.00    -0.539 A  
HETATM   15  N   UNL     1     -10.490  10.417  69.583  1.00  0.00    -0.243 NA 
HETATM   16  C   UNL     1     -12.662   8.394  71.729  1.00  0.00    -0.373 A  
HETATM   17  C   UNL     1     -11.523  10.151  70.461  1.00  0.00    -0.337 A  
HETATM   18  C   UNL     1     -11.660   8.813  70.837  1.00  0.00    -0.277 A  
HETATM   19  C   UNL     1     -12.412  11.103  70.996  1.00  0.00    -0.506 A  
HETATM   20  S   UNL     1     -10.446   7.884  70.045  1.00  0.00    -0.234 SA 
ENDBRANCH  11  12
ENDBRANCH   1  11
TORSDOF 3
ENDMDL
MODEL       60
REMARK 921   NORMALIZED FREE ENERGY PREDICTED BY IDOCK:   -5.52 KCAL/MOL
REMARK 922        TOTAL FREE ENERGY PREDICTED BY IDOCK:   -6.79 KCAL/MOL
REMARK 923 INTER-LIGAND FREE ENERGY PREDICTED BY IDOCK:   -6.49 KCAL/MOL
REMARK 924 INTRA-LIGAND FREE ENERGY PREDICTED BY IDOCK:   -0.30 KCAL/MOL
REMARK 927      BINDING AFFINITY PREDICTED BY RF-SCORE:    0.00 PKD
ROOT
HETATM    1  S   UNL     1     -12.988   8.983  71.772  1.00  0.00    -0.404 SA 
ENDROOT
BRANCH   1   2
HETATM    2  C   UNL     1     -12.894  10.723  71.527  1.00  0.00    -0.462 A  
HETATM    3  S   UNL     1     -11.960  11.395  70.257  1.00  0.00    -0.370 SA 
HETATM    4  N   UNL     1     -13.539  11.585  72.283  1.00  0.00    -0.108 NA 
HETATM    5  C   UNL     1     -12.454  12.975  70.731  1.00  0.00    -0.302 A  
HETATM    6  C   UNL     1     -13.304  12.871  71.834  1.00  0.00    -0.435 A  
HETATM    7  C   UNL     1     -12.113  14.217  70.171  1.00  0.00    -0.403 A  
HETATM    8  C   UNL     1     -13.837  14.050  72.392  1.00  0.00    -0.653 A  
HETATM    9  C   UNL     1     -12.646  15.373  70.752  1.00  0.00    -0.497 A  
HETATM   10  C   UNL     1     -13.500  15.292  71.847  1.00  0.00    -0.547 A  
ENDBRANCH   1   2
BRANCH   1  11
HETATM   11  S   UNL     1     -10.998   8.550  72.108  1.00  0.00    -0.349 SA 
BRANCH  11  12
HETATM   12  C   UNL     1     -10.583   7.838  70.556  1.00  0.00    -0.226 A  
HETATM   13  C   UNL     1      -8.981   7.207  66.272  1.00  0.00    -0.181 A  
HETATM   14  C   UNL     1      -9.797   6.081  66.250  1.00  0.00    -0.102 A  
HETATM   15  N   UNL     1      -9.722   8.392  69.731  1.00  0.00    -0.178 NA 
HETATM   16  C   UNL     1     -10.569   5.731  67.361  1.00  0.00    -0.340 A  
HETATM   17  C   UNL     1      -9.684   7.681  68.547  1.00  0.00    -0.158 A  
HETATM   18  C   UNL     1     -10.500   6.549  68.502  1.00  0.00    -0.220 A  
HETATM   19  C   UNL     1      -8.915   8.012  67.415  1.00  0.00    -0.141 A  
HETATM   20  S   UNL     1     -11.324   6.394  70.006  1.00  0.00    -0.417 SA 
ENDBRANCH  11  12
ENDBRANCH   1  11
TORSDOF 3
ENDMDL
MODEL       61
REMARK 921   NORMALIZED FREE ENERGY PREDICTED BY IDOCK:   -5.49 KCAL/MOL
REMARK 922        TOTAL FREE ENERGY PREDICTED BY IDOCK:   -6.76 KCAL/MOL
REMARK 923 INTER-LIGAND FREE ENERGY PREDICTED BY IDOCK:   -6.47 KCAL/MOL
REMARK 924 INTRA-LIGAND FREE ENERGY PREDICTED BY IDOCK:   -0.29 KCAL/MOL
REMARK 927      BINDING AFFINITY PREDICTED BY RF-SCORE:    0.00 PKD
ROOT
HETATM    1  S   UNL     1      -9.288  10.029  69.349  1.00  0.00    -0.228 SA 
ENDROOT
BRANCH   1   2
HETATM    2  C   UNL     1      -9.647   8.639  70.367  1.00  0.00    -0.173 A  
HETATM    3  S   UNL     1     -10.478   8.815  71.857  1.00  0.00    -0.347 SA 
HETATM    4  N   UNL     1      -9.319   7.409  70.036  1.00  0.00    -0.152 NA 
HETATM    5  C   UNL     1     -10.414   7.111  72.093  1.00  0.00    -0.206 A  
HETATM    6  C   UNL     1      -9.759   6.528  71.007  1.00  0.00    -0.175 A  
HETATM    7  C   UNL     1     -10.905   6.344  73.162  1.00  0.00    -0.282 A  
HETATM    8  C   UNL     1      -9.594   5.129  70.986  1.00  0.00    -0.229 A  
HETATM    9  C   UNL     1     -10.718   4.959  73.123  1.00  0.00    -0.315 A  
HETATM   10  C   UNL     1     -10.073   4.356  72.047  1.00  0.00    -0.256 A  
ENDBRANCH   1   2
BRANCH   1  11
HETATM   11  S   UNL     1     -11.139  10.346  68.492  1.00  0.00    -0.252 SA 
BRANCH  11  12
HETATM   12  C   UNL     1     -11.651  11.757  69.405  1.00  0.00    -0.322 A  
HETATM   13  C   UNL     1     -13.748  14.528  72.444  1.00  0.00    -0.583 A  
HETATM   14  C   UNL     1     -13.333  15.568  71.618  1.00  0.00    -0.585 A  
HETATM   15  N   UNL     1     -12.293  11.664  70.549  1.00  0.00    -0.341 NA 
HETATM   16  C   UNL     1     -12.588  15.313  70.463  1.00  0.00    -0.450 A  
HETATM   17  C   UNL     1     -12.672  12.922  70.976  1.00  0.00    -0.251 A  
HETATM   18  C   UNL     1     -12.269  13.979  70.159  1.00  0.00    -0.359 A  
HETATM   19  C   UNL     1     -13.422  13.204  72.135  1.00  0.00    -0.653 A  
HETATM   20  S   UNL     1     -11.385  13.347  68.823  1.00  0.00    -0.313 SA 
ENDBRANCH  11  12
ENDBRANCH   1  11
TORSDOF 3
ENDMDL
MODEL       62
REMARK 921   NORMALIZED FREE ENERGY PREDICTED BY IDOCK:   -5.49 KCAL/MOL
REMARK 922        TOTAL FREE ENERGY PREDICTED BY IDOCK:   -6.76 KCAL/MOL
REMARK 923 INTER-LIGAND FREE ENERGY PREDICTED BY IDOCK:   -6.56 KCAL/MOL
REMARK 924 INTRA-LIGAND FREE ENERGY PREDICTED BY IDOCK:   -0.20 KCAL/MOL
REMARK 927      BINDING AFFINITY PREDICTED BY RF-SCORE:    0.00 PKD
ROOT
HETATM    1  S   UNL     1     -10.483  17.435  67.491  1.00  0.00    -0.334 SA 
ENDROOT
BRANCH   1   2
HETATM    2  C   UNL     1      -9.119  18.507  67.196  1.00  0.00    -0.277 A  
HETATM    3  S   UNL     1      -8.512  19.536  68.426  1.00  0.00    -0.328 SA 
HETATM    4  N   UNL     1      -8.493  18.563  66.041  1.00  0.00    -0.501 NA 
HETATM    5  C   UNL     1      -7.298  20.107  67.347  1.00  0.00    -0.288 A  
HETATM    6  C   UNL     1      -7.447  19.464  66.117  1.00  0.00    -0.284 A  
HETATM    7  C   UNL     1      -6.287  21.057  67.570  1.00  0.00    -0.413 A  
HETATM    8  C   UNL     1      -6.551  19.776  65.075  1.00  0.00    -0.289 A  
HETATM    9  C   UNL     1      -5.419  21.359  66.516  1.00  0.00    -0.331 A  
HETATM   10  C   UNL     1      -5.545  20.725  65.283  1.00  0.00    -0.250 A  
ENDBRANCH   1   2
BRANCH   1  11
HETATM   11  S   UNL     1     -10.314  16.169  65.870  1.00  0.00    -0.375 SA 
BRANCH  11  12
HETATM   12  C   UNL     1     -10.721  14.643  66.641  1.00  0.00    -0.305 A  
HETATM   13  C   UNL     1     -11.930  11.449  69.746  1.00  0.00    -0.422 A  
HETATM   14  C   UNL     1     -11.444  10.526  68.826  1.00  0.00    -0.291 A  
HETATM   15  N   UNL     1     -11.304  14.580  67.818  1.00  0.00    -0.302 NA 
HETATM   16  C   UNL     1     -10.925  10.944  67.597  1.00  0.00    -0.350 A  
HETATM   17  C   UNL     1     -11.392  13.262  68.225  1.00  0.00    -0.300 A  
HETATM   18  C   UNL     1     -10.906  12.320  67.317  1.00  0.00    -0.245 A  
HETATM   19  C   UNL     1     -11.911  12.817  69.456  1.00  0.00    -0.379 A  
HETATM   20  S   UNL     1     -10.331  13.140  65.916  1.00  0.00    -0.293 SA 
ENDBRANCH  11  12
ENDBRANCH   1  11
TORSDOF 3
ENDMDL
MODEL       63
REMARK 921   NORMALIZED FREE ENERGY PREDICTED BY IDOCK:   -5.48 KCAL/MOL
REMARK 922        TOTAL FREE ENERGY PREDICTED BY IDOCK:   -6.75 KCAL/MOL
REMARK 923 INTER-LIGAND FREE ENERGY PREDICTED BY IDOCK:   -6.40 KCAL/MOL
REMARK 924 INTRA-LIGAND FREE ENERGY PREDICTED BY IDOCK:   -0.35 KCAL/MOL
REMARK 927      BINDING AFFINITY PREDICTED BY RF-SCORE:    0.00 PKD
ROOT
HETATM    1  S   UNL     1     -10.492  14.719  66.865  1.00  0.00    -0.282 SA 
ENDROOT
BRANCH   1   2
HETATM    2  C   UNL     1     -11.342  14.391  68.370  1.00  0.00    -0.287 A  
HETATM    3  S   UNL     1     -11.430  12.806  69.018  1.00  0.00    -0.324 SA 
HETATM    4  N   UNL     1     -11.931  15.332  69.075  1.00  0.00    -0.307 NA 
HETATM    5  C   UNL     1     -12.318  13.407  70.365  1.00  0.00    -0.312 A  
HETATM    6  C   UNL     1     -12.483  14.786  70.219  1.00  0.00    -0.340 A  
HETATM    7  C   UNL     1     -12.835  12.711  71.470  1.00  0.00    -0.368 A  
HETATM    8  C   UNL     1     -13.183  15.494  71.216  1.00  0.00    -0.588 A  
HETATM    9  C   UNL     1     -13.537  13.435  72.439  1.00  0.00    -0.708 A  
HETATM   10  C   UNL     1     -13.708  14.811  72.317  1.00  0.00    -0.560 A  
ENDBRANCH   1   2
BRANCH   1  11
HETATM   11  S   UNL     1      -8.590  14.098  67.373  1.00  0.00    -0.221 SA 
BRANCH  11  12
HETATM   12  C   UNL     1      -7.904  15.632  67.885  1.00  0.00    -0.133 A  
HETATM   13  C   UNL     1      -5.351  18.838  70.010  1.00  0.00    -0.221 A  
HETATM   14  C   UNL     1      -6.308  19.742  69.561  1.00  0.00    -0.372 A  
HETATM   15  N   UNL     1      -6.775  15.713  68.555  1.00  0.00    -0.111 NA 
HETATM   16  C   UNL     1      -7.395  19.314  68.793  1.00  0.00    -0.381 A  
HETATM   17  C   UNL     1      -6.544  17.024  68.925  1.00  0.00    -0.196 A  
HETATM   18  C   UNL     1      -7.495  17.947  68.487  1.00  0.00    -0.270 A  
HETATM   19  C   UNL     1      -5.458  17.479  69.697  1.00  0.00    -0.207 A  
HETATM   20  S   UNL     1      -8.703  17.117  67.582  1.00  0.00    -0.215 SA 
ENDBRANCH  11  12
ENDBRANCH   1  11
TORSDOF 3
ENDMDL
MODEL       64
REMARK 921   NORMALIZED FREE ENERGY PREDICTED BY IDOCK:   -5.44 KCAL/MOL
REMARK 922        TOTAL FREE ENERGY PREDICTED BY IDOCK:   -6.70 KCAL/MOL
REMARK 923 INTER-LIGAND FREE ENERGY PREDICTED BY IDOCK:   -6.52 KCAL/MOL
REMARK 924 INTRA-LIGAND FREE ENERGY PREDICTED BY IDOCK:   -0.18 KCAL/MOL
REMARK 927      BINDING AFFINITY PREDICTED BY RF-SCORE:    0.00 PKD
ROOT
HETATM    1  S   UNL     1     -11.374  15.661  68.284  1.00  0.00    -0.341 SA 
ENDROOT
BRANCH   1   2
HETATM    2  C   UNL     1     -10.209  16.958  68.047  1.00  0.00    -0.310 A  
HETATM    3  S   UNL     1     -10.239  17.937  66.640  1.00  0.00    -0.371 SA 
HETATM    4  N   UNL     1      -9.280  17.251  68.930  1.00  0.00    -0.228 NA 
HETATM    5  C   UNL     1      -8.909  18.848  67.246  1.00  0.00    -0.281 A  
HETATM    6  C   UNL     1      -8.538  18.332  68.490  1.00  0.00    -0.306 A  
HETATM    7  C   UNL     1      -8.240  19.937  66.664  1.00  0.00    -0.359 A  
HETATM    8  C   UNL     1      -7.465  18.931  69.179  1.00  0.00    -0.243 A  
HETATM    9  C   UNL     1      -7.169  20.505  67.363  1.00  0.00    -0.370 A  
HETATM   10  C   UNL     1      -6.787  20.012  68.607  1.00  0.00    -0.336 A  
ENDBRANCH   1   2
BRANCH   1  11
HETATM   11  S   UNL     1     -10.422  14.123  67.290  1.00  0.00    -0.273 SA 
BRANCH  11  12
HETATM   12  C   UNL     1     -10.875  12.776  68.323  1.00  0.00    -0.248 A  
HETATM   13  C   UNL     1     -12.707  10.228  71.709  1.00  0.00    -0.535 A  
HETATM   14  C   UNL     1     -11.793   9.254  71.322  1.00  0.00    -0.415 A  
HETATM   15  N   UNL     1     -11.840  12.861  69.212  1.00  0.00    -0.314 NA 
HETATM   16  C   UNL     1     -10.915   9.474  70.256  1.00  0.00    -0.317 A  
HETATM   17  C   UNL     1     -11.893  11.697  69.956  1.00  0.00    -0.355 A  
HETATM   18  C   UNL     1     -10.981  10.708  69.587  1.00  0.00    -0.278 A  
HETATM   19  C   UNL     1     -12.767  11.451  71.032  1.00  0.00    -0.447 A  
HETATM   20  S   UNL     1     -10.043  11.279  68.261  1.00  0.00    -0.195 SA 
ENDBRANCH  11  12
ENDBRANCH   1  11
TORSDOF 3
ENDMDL
MODEL       65
REMARK 921   NORMALIZED FREE ENERGY PREDICTED BY IDOCK:   -5.43 KCAL/MOL
REMARK 922        TOTAL FREE ENERGY PREDICTED BY IDOCK:   -6.68 KCAL/MOL
REMARK 923 INTER-LIGAND FREE ENERGY PREDICTED BY IDOCK:   -6.46 KCAL/MOL
REMARK 924 INTRA-LIGAND FREE ENERGY PREDICTED BY IDOCK:   -0.23 KCAL/MOL
REMARK 927      BINDING AFFINITY PREDICTED BY RF-SCORE:    0.00 PKD
ROOT
HETATM    1  S   UNL     1     -10.499  12.366  67.525  1.00  0.00    -0.217 SA 
ENDROOT
BRANCH   1   2
HETATM    2  C   UNL     1     -10.869  11.246  68.831  1.00  0.00    -0.208 A  
HETATM    3  S   UNL     1      -9.668  10.214  69.488  1.00  0.00    -0.211 SA 
HETATM    4  N   UNL     1     -12.063  11.156  69.375  1.00  0.00    -0.341 NA 
HETATM    5  C   UNL     1     -10.818   9.590  70.607  1.00  0.00    -0.306 A  
HETATM    6  C   UNL     1     -12.044  10.222  70.395  1.00  0.00    -0.286 A  
HETATM    7  C   UNL     1     -10.649   8.610  71.599  1.00  0.00    -0.374 A  
HETATM    8  C   UNL     1     -13.140   9.867  71.207  1.00  0.00    -0.487 A  
HETATM    9  C   UNL     1     -11.755   8.267  72.384  1.00  0.00    -0.463 A  
HETATM   10  C   UNL     1     -12.986   8.889  72.194  1.00  0.00    -0.473 A  
ENDBRANCH   1   2
BRANCH   1  11
HETATM   11  S   UNL     1     -11.864  13.862  67.924  1.00  0.00    -0.366 SA 
BRANCH  11  12
HETATM   12  C   UNL     1     -10.764  15.213  68.155  1.00  0.00    -0.254 A  
HETATM   13  C   UNL     1      -9.027  19.467  68.602  1.00  0.00    -0.419 A  
HETATM   14  C   UNL     1      -7.791  18.867  68.389  1.00  0.00    -0.359 A  
HETATM   15  N   UNL     1     -11.186  16.430  68.419  1.00  0.00    -0.361 NA 
HETATM   16  C   UNL     1      -7.687  17.487  68.192  1.00  0.00    -0.231 A  
HETATM   17  C   UNL     1     -10.115  17.303  68.430  1.00  0.00    -0.333 A  
HETATM   18  C   UNL     1      -8.865  16.722  68.214  1.00  0.00    -0.228 A  
HETATM   19  C   UNL     1     -10.194  18.696  68.627  1.00  0.00    -0.359 A  
HETATM   20  S   UNL     1      -9.068  15.026  67.997  1.00  0.00    -0.182 SA 
ENDBRANCH  11  12
ENDBRANCH   1  11
TORSDOF 3
ENDMDL
MODEL       66
REMARK 921   NORMALIZED FREE ENERGY PREDICTED BY IDOCK:   -5.42 KCAL/MOL
REMARK 922        TOTAL FREE ENERGY PREDICTED BY IDOCK:   -6.68 KCAL/MOL
REMARK 923 INTER-LIGAND FREE ENERGY PREDICTED BY IDOCK:   -6.38 KCAL/MOL
REMARK 924 INTRA-LIGAND FREE ENERGY PREDICTED BY IDOCK:   -0.30 KCAL/MOL
REMARK 927      BINDING AFFINITY PREDICTED BY RF-SCORE:    0.00 PKD
ROOT
HETATM    1  S   UNL     1      -8.957   8.775  66.639  1.00  0.00    -0.147 SA 
ENDROOT
BRANCH   1   2
HETATM    2  C   UNL     1      -9.839  10.139  65.961  1.00  0.00    -0.246 A  
HETATM    3  S   UNL     1      -9.808  10.474  64.280  1.00  0.00    -0.330 SA 
HETATM    4  N   UNL     1     -10.570  10.950  66.694  1.00  0.00    -0.254 NA 
HETATM    5  C   UNL     1     -10.866  11.809  64.527  1.00  0.00    -0.321 A  
HETATM    6  C   UNL     1     -11.168  11.900  65.888  1.00  0.00    -0.322 A  
HETATM    7  C   UNL     1     -11.390  12.713  63.589  1.00  0.00    -0.544 A  
HETATM    8  C   UNL     1     -12.029  12.927  66.324  1.00  0.00    -0.472 A  
HETATM    9  C   UNL     1     -12.232  13.730  64.049  1.00  0.00    -0.429 A  
HETATM   10  C   UNL     1     -12.552  13.836  65.400  1.00  0.00    -0.534 A  
ENDBRANCH   1   2
BRANCH   1  11
HETATM   11  S   UNL     1     -10.517   7.473  67.005  1.00  0.00    -0.321 SA 
BRANCH  11  12
HETATM   12  C   UNL     1     -10.406   7.361  68.756  1.00  0.00    -0.199 A  
HETATM   13  C   UNL     1     -10.723   5.875  73.115  1.00  0.00    -0.288 A  
HETATM   14  C   UNL     1     -10.470   7.196  73.469  1.00  0.00    -0.422 A  
HETATM   15  N   UNL     1     -10.586   6.231  69.404  1.00  0.00    -0.239 NA 
HETATM   16  C   UNL     1     -10.259   8.174  72.492  1.00  0.00    -0.383 A  
HETATM   17  C   UNL     1     -10.558   6.465  70.765  1.00  0.00    -0.238 A  
HETATM   18  C   UNL     1     -10.310   7.786  71.142  1.00  0.00    -0.200 A  
HETATM   19  C   UNL     1     -10.767   5.498  71.768  1.00  0.00    -0.289 A  
HETATM   20  S   UNL     1     -10.104   8.741  69.725  1.00  0.00    -0.202 SA 
ENDBRANCH  11  12
ENDBRANCH   1  11
TORSDOF 3
ENDMDL
MODEL       67
REMARK 921   NORMALIZED FREE ENERGY PREDICTED BY IDOCK:   -5.38 KCAL/MOL
REMARK 922        TOTAL FREE ENERGY PREDICTED BY IDOCK:   -6.62 KCAL/MOL
REMARK 923 INTER-LIGAND FREE ENERGY PREDICTED BY IDOCK:   -6.31 KCAL/MOL
REMARK 924 INTRA-LIGAND FREE ENERGY PREDICTED BY IDOCK:   -0.31 KCAL/MOL
REMARK 927      BINDING AFFINITY PREDICTED BY RF-SCORE:    0.00 PKD
ROOT
HETATM    1  S   UNL     1     -10.342   7.352  67.150  1.00  0.00    -0.333 SA 
ENDROOT
BRANCH   1   2
HETATM    2  C   UNL     1     -10.242   7.374  68.907  1.00  0.00    -0.196 A  
HETATM    3  S   UNL     1     -11.377   6.528  69.874  1.00  0.00    -0.396 SA 
HETATM    4  N   UNL     1      -9.298   8.016  69.559  1.00  0.00    -0.156 NA 
HETATM    5  C   UNL     1     -10.547   7.040  71.293  1.00  0.00    -0.218 A  
HETATM    6  C   UNL     1      -9.455   7.826  70.919  1.00  0.00    -0.160 A  
HETATM    7  C   UNL     1     -10.841   6.771  72.640  1.00  0.00    -0.282 A  
HETATM    8  C   UNL     1      -8.623   8.355  71.927  1.00  0.00    -0.248 A  
HETATM    9  C   UNL     1     -10.007   7.318  73.621  1.00  0.00    -0.377 A  
HETATM   10  C   UNL     1      -8.909   8.098  73.271  1.00  0.00    -0.324 A  
ENDBRANCH   1   2
BRANCH   1  11
HETATM   11  S   UNL     1      -8.908   8.761  66.682  1.00  0.00    -0.137 SA 
BRANCH  11  12
HETATM   12  C   UNL     1      -9.946  10.092  66.194  1.00  0.00    -0.246 A  
HETATM   13  C   UNL     1     -11.978  13.444  63.755  1.00  0.00    -0.517 A  
HETATM   14  C   UNL     1     -12.443  13.905  64.982  1.00  0.00    -0.447 A  
HETATM   15  N   UNL     1     -10.095  10.449  64.938  1.00  0.00    -0.334 NA 
HETATM   16  C   UNL     1     -12.135  13.231  66.167  1.00  0.00    -0.477 A  
HETATM   17  C   UNL     1     -10.868  11.591  64.864  1.00  0.00    -0.283 A  
HETATM   18  C   UNL     1     -11.342  12.074  66.085  1.00  0.00    -0.351 A  
HETATM   19  C   UNL     1     -11.192  12.289  63.684  1.00  0.00    -0.539 A  
HETATM   20  S   UNL     1     -10.789  11.040  67.346  1.00  0.00    -0.291 SA 
ENDBRANCH  11  12
ENDBRANCH   1  11
TORSDOF 3
ENDMDL
MODEL       68
REMARK 921   NORMALIZED FREE ENERGY PREDICTED BY IDOCK:   -5.36 KCAL/MOL
REMARK 922        TOTAL FREE ENERGY PREDICTED BY IDOCK:   -6.61 KCAL/MOL
REMARK 923 INTER-LIGAND FREE ENERGY PREDICTED BY IDOCK:   -6.31 KCAL/MOL
REMARK 924 INTRA-LIGAND FREE ENERGY PREDICTED BY IDOCK:   -0.30 KCAL/MOL
REMARK 927      BINDING AFFINITY PREDICTED BY RF-SCORE:    0.00 PKD
ROOT
HETATM    1  S   UNL     1     -13.029  10.710  70.222  1.00  0.00     0.091 SA 
ENDROOT
BRANCH   1   2
HETATM    2  C   UNL     1     -11.973   9.661  71.161  1.00  0.00    -0.367 A  
HETATM    3  S   UNL     1     -12.608   8.531  72.283  1.00  0.00    -0.355 SA 
HETATM    4  N   UNL     1     -10.664   9.677  71.041  1.00  0.00    -0.331 NA 
HETATM    5  C   UNL     1     -11.013   7.995  72.645  1.00  0.00    -0.382 A  
HETATM    6  C   UNL     1     -10.105   8.725  71.875  1.00  0.00    -0.339 A  
HETATM    7  C   UNL     1     -10.592   7.004  73.547  1.00  0.00    -0.405 A  
HETATM    8  C   UNL     1      -8.730   8.450  72.006  1.00  0.00    -0.267 A  
HETATM    9  C   UNL     1      -9.220   6.759  73.667  1.00  0.00    -0.179 A  
HETATM   10  C   UNL     1      -8.298   7.469  72.904  1.00  0.00    -0.154 A  
ENDBRANCH   1   2
BRANCH   1  11
HETATM   11  S   UNL     1     -11.795  12.346  69.971  1.00  0.00    -0.216 SA 
BRANCH  11  12
HETATM   12  C   UNL     1     -11.609  12.314  68.224  1.00  0.00    -0.331 A  
HETATM   13  C   UNL     1     -12.192  13.062  63.706  1.00  0.00    -0.536 A  
HETATM   14  C   UNL     1     -11.381  11.947  63.528  1.00  0.00    -0.516 A  
HETATM   15  N   UNL     1     -12.198  13.184  67.435  1.00  0.00    -0.236 NA 
HETATM   16  C   UNL     1     -10.852  11.260  64.624  1.00  0.00    -0.335 A  
HETATM   17  C   UNL     1     -11.972  12.846  66.114  1.00  0.00    -0.429 A  
HETATM   18  C   UNL     1     -11.163  11.726  65.913  1.00  0.00    -0.290 A  
HETATM   19  C   UNL     1     -12.492  13.521  64.993  1.00  0.00    -0.462 A  
HETATM   20  S   UNL     1     -10.682  11.102  67.444  1.00  0.00    -0.266 SA 
ENDBRANCH  11  12
ENDBRANCH   1  11
TORSDOF 3
ENDMDL
MODEL       69
REMARK 921   NORMALIZED FREE ENERGY PREDICTED BY IDOCK:   -5.36 KCAL/MOL
REMARK 922        TOTAL FREE ENERGY PREDICTED BY IDOCK:   -6.60 KCAL/MOL
REMARK 923 INTER-LIGAND FREE ENERGY PREDICTED BY IDOCK:   -6.45 KCAL/MOL
REMARK 924 INTRA-LIGAND FREE ENERGY PREDICTED BY IDOCK:   -0.15 KCAL/MOL
REMARK 927      BINDING AFFINITY PREDICTED BY RF-SCORE:    0.00 PKD
ROOT
HETATM    1  S   UNL     1     -11.127   9.634  70.064  1.00  0.00    -0.247 SA 
ENDROOT
BRANCH   1   2
HETATM    2  C   UNL     1     -11.888  11.140  70.564  1.00  0.00    -0.351 A  
HETATM    3  S   UNL     1     -13.086  11.169  71.790  1.00  0.00    -0.327 SA 
HETATM    4  N   UNL     1     -11.571  12.305  70.043  1.00  0.00    -0.219 NA 
HETATM    5  C   UNL     1     -13.198  12.880  71.637  1.00  0.00    -0.324 A  
HETATM    6  C   UNL     1     -12.304  13.306  70.653  1.00  0.00    -0.339 A  
HETATM    7  C   UNL     1     -14.019  13.782  72.334  1.00  0.00    -0.651 A  
HETATM    8  C   UNL     1     -12.222  14.682  70.360  1.00  0.00    -0.391 A  
HETATM    9  C   UNL     1     -13.928  15.141  72.016  1.00  0.00    -0.629 A  
HETATM   10  C   UNL     1     -13.039  15.589  71.043  1.00  0.00    -0.551 A  
ENDBRANCH   1   2
BRANCH   1  11
HETATM   11  S   UNL     1     -11.925   8.337  71.458  1.00  0.00    -0.308 SA 
BRANCH  11  12
HETATM   12  C   UNL     1     -11.183   6.836  70.927  1.00  0.00    -0.292 A  
HETATM   13  C   UNL     1      -8.915   2.815  70.850  1.00  0.00    -0.163 A  
HETATM   14  C   UNL     1      -8.855   3.000  69.473  1.00  0.00    -0.147 A  
HETATM   15  N   UNL     1     -10.804   5.898  71.768  1.00  0.00    -0.252 NA 
HETATM   16  C   UNL     1      -9.432   4.123  68.873  1.00  0.00    -0.238 A  
HETATM   17  C   UNL     1     -10.149   4.893  71.083  1.00  0.00    -0.207 A  
HETATM   18  C   UNL     1     -10.074   5.061  69.699  1.00  0.00    -0.251 A  
HETATM   19  C   UNL     1      -9.561   3.753  71.664  1.00  0.00    -0.227 A  
HETATM   20  S   UNL     1     -10.862   6.531  69.272  1.00  0.00    -0.333 SA 
ENDBRANCH  11  12
ENDBRANCH   1  11
TORSDOF 3
ENDMDL
MODEL       70
REMARK 921   NORMALIZED FREE ENERGY PREDICTED BY IDOCK:   -5.36 KCAL/MOL
REMARK 922        TOTAL FREE ENERGY PREDICTED BY IDOCK:   -6.60 KCAL/MOL
REMARK 923 INTER-LIGAND FREE ENERGY PREDICTED BY IDOCK:   -6.31 KCAL/MOL
REMARK 924 INTRA-LIGAND FREE ENERGY PREDICTED BY IDOCK:   -0.29 KCAL/MOL
REMARK 927      BINDING AFFINITY PREDICTED BY RF-SCORE:    0.00 PKD
ROOT
HETATM    1  S   UNL     1     -11.792  12.203  69.796  1.00  0.00    -0.287 SA 
ENDROOT
BRANCH   1   2
HETATM    2  C   UNL     1     -11.548  12.115  68.056  1.00  0.00    -0.348 A  
HETATM    3  S   UNL     1     -10.396  11.047  67.370  1.00  0.00    -0.218 SA 
HETATM    4  N   UNL     1     -12.238  12.840  67.202  1.00  0.00    -0.383 NA 
HETATM    5  C   UNL     1     -10.848  11.572  65.794  1.00  0.00    -0.262 A  
HETATM    6  C   UNL     1     -11.855  12.533  65.909  1.00  0.00    -0.430 A  
HETATM    7  C   UNL     1     -10.347  11.168  64.546  1.00  0.00    -0.400 A  
HETATM    8  C   UNL     1     -12.384  13.104  64.735  1.00  0.00    -0.477 A  
HETATM    9  C   UNL     1     -10.881  11.760  63.396  1.00  0.00    -0.460 A  
HETATM   10  C   UNL     1     -11.890  12.714  63.487  1.00  0.00    -0.619 A  
ENDBRANCH   1   2
BRANCH   1  11
HETATM   11  S   UNL     1     -13.020  10.569  70.080  1.00  0.00     0.214 SA 
BRANCH  11  12
HETATM   12  C   UNL     1     -11.976   9.586  71.097  1.00  0.00    -0.348 A  
HETATM   13  C   UNL     1      -8.287   7.503  72.931  1.00  0.00    -0.154 A  
HETATM   14  C   UNL     1      -9.206   6.669  73.558  1.00  0.00    -0.156 A  
HETATM   15  N   UNL     1     -10.668   9.718  71.103  1.00  0.00    -0.291 NA 
HETATM   16  C   UNL     1     -10.581   6.846  73.375  1.00  0.00    -0.372 A  
HETATM   17  C   UNL     1     -10.104   8.741  71.901  1.00  0.00    -0.339 A  
HETATM   18  C   UNL     1     -11.009   7.890  72.537  1.00  0.00    -0.350 A  
HETATM   19  C   UNL     1      -8.724   8.542  72.102  1.00  0.00    -0.267 A  
HETATM   20  S   UNL     1     -12.610   8.356  72.107  1.00  0.00    -0.359 SA 
ENDBRANCH  11  12
ENDBRANCH   1  11
TORSDOF 3
ENDMDL
MODEL       71
REMARK 921   NORMALIZED FREE ENERGY PREDICTED BY IDOCK:   -5.32 KCAL/MOL
REMARK 922        TOTAL FREE ENERGY PREDICTED BY IDOCK:   -6.56 KCAL/MOL
REMARK 923 INTER-LIGAND FREE ENERGY PREDICTED BY IDOCK:   -6.34 KCAL/MOL
REMARK 924 INTRA-LIGAND FREE ENERGY PREDICTED BY IDOCK:   -0.22 KCAL/MOL
REMARK 927      BINDING AFFINITY PREDICTED BY RF-SCORE:    0.00 PKD
ROOT
HETATM    1  S   UNL     1     -10.764  17.892  67.285  1.00  0.00    -0.189 SA 
ENDROOT
BRANCH   1   2
HETATM    2  C   UNL     1      -9.252  18.750  67.552  1.00  0.00    -0.283 A  
HETATM    3  S   UNL     1      -8.481  19.613  66.287  1.00  0.00    -0.344 SA 
HETATM    4  N   UNL     1      -8.652  18.789  68.722  1.00  0.00    -0.317 NA 
HETATM    5  C   UNL     1      -7.240  20.099  67.376  1.00  0.00    -0.276 A  
HETATM    6  C   UNL     1      -7.509  19.562  68.637  1.00  0.00    -0.345 A  
HETATM    7  C   UNL     1      -6.107  20.895  67.135  1.00  0.00    -0.332 A  
HETATM    8  C   UNL     1      -6.619  19.836  69.695  1.00  0.00    -0.378 A  
HETATM    9  C   UNL     1      -5.233  21.141  68.199  1.00  0.00    -0.321 A  
HETATM   10  C   UNL     1      -5.486  20.622  69.465  1.00  0.00    -0.391 A  
ENDBRANCH   1   2
BRANCH   1  11
HETATM   11  S   UNL     1     -10.108  16.358  66.069  1.00  0.00    -0.355 SA 
BRANCH  11  12
HETATM   12  C   UNL     1     -10.539  14.980  67.070  1.00  0.00    -0.293 A  
HETATM   13  C   UNL     1     -11.591  10.719  68.503  1.00  0.00    -0.325 A  
HETATM   14  C   UNL     1     -12.068  11.341  69.652  1.00  0.00    -0.391 A  
HETATM   15  N   UNL     1     -10.414  13.738  66.655  1.00  0.00    -0.270 NA 
HETATM   16  C   UNL     1     -11.993  12.729  69.801  1.00  0.00    -0.362 A  
HETATM   17  C   UNL     1     -10.938  12.875  67.598  1.00  0.00    -0.247 A  
HETATM   18  C   UNL     1     -11.426  13.479  68.758  1.00  0.00    -0.311 A  
HETATM   19  C   UNL     1     -11.023  11.475  67.472  1.00  0.00    -0.308 A  
HETATM   20  S   UNL     1     -11.202  15.182  68.637  1.00  0.00    -0.304 SA 
ENDBRANCH  11  12
ENDBRANCH   1  11
TORSDOF 3
ENDMDL
MODEL       72
REMARK 921   NORMALIZED FREE ENERGY PREDICTED BY IDOCK:   -5.32 KCAL/MOL
REMARK 922        TOTAL FREE ENERGY PREDICTED BY IDOCK:   -6.55 KCAL/MOL
REMARK 923 INTER-LIGAND FREE ENERGY PREDICTED BY IDOCK:   -6.29 KCAL/MOL
REMARK 924 INTRA-LIGAND FREE ENERGY PREDICTED BY IDOCK:   -0.27 KCAL/MOL
REMARK 927      BINDING AFFINITY PREDICTED BY RF-SCORE:    0.00 PKD
ROOT
HETATM    1  S   UNL     1      -8.484  10.695  68.796  1.00  0.00    -0.155 SA 
ENDROOT
BRANCH   1   2
HETATM    2  C   UNL     1      -9.399  11.213  67.386  1.00  0.00    -0.164 A  
HETATM    3  S   UNL     1      -9.000  10.662  65.812  1.00  0.00    -0.188 SA 
HETATM    4  N   UNL     1     -10.431  12.024  67.464  1.00  0.00    -0.209 NA 
HETATM    5  C   UNL     1     -10.315  11.563  65.163  1.00  0.00    -0.278 A  
HETATM    6  C   UNL     1     -10.968  12.224  66.206  1.00  0.00    -0.291 A  
HETATM    7  C   UNL     1     -10.739  11.681  63.829  1.00  0.00    -0.482 A  
HETATM    8  C   UNL     1     -12.087  13.026  65.905  1.00  0.00    -0.503 A  
HETATM    9  C   UNL     1     -11.845  12.493  63.556  1.00  0.00    -0.616 A  
HETATM   10  C   UNL     1     -12.515  13.156  64.581  1.00  0.00    -0.433 A  
ENDBRANCH   1   2
BRANCH   1  11
HETATM   11  S   UNL     1      -8.890   8.672  68.777  1.00  0.00    -0.139 SA 
BRANCH  11  12
HETATM   12  C   UNL     1     -10.309   8.643  69.814  1.00  0.00    -0.212 A  
HETATM   13  C   UNL     1     -14.169   7.336  71.982  1.00  0.00    -0.370 A  
HETATM   14  C   UNL     1     -14.324   8.683  72.288  1.00  0.00    -0.486 A  
HETATM   15  N   UNL     1     -10.960   7.535  70.090  1.00  0.00    -0.259 NA 
HETATM   16  C   UNL     1     -13.379   9.627  71.874  1.00  0.00    -0.526 A  
HETATM   17  C   UNL     1     -12.093   7.830  70.824  1.00  0.00    -0.100 A  
HETATM   18  C   UNL     1     -12.270   9.178  71.138  1.00  0.00    -0.285 A  
HETATM   19  C   UNL     1     -13.058   6.898  71.253  1.00  0.00    -0.273 A  
HETATM   20  S   UNL     1     -10.957  10.080  70.485  1.00  0.00    -0.318 SA 
ENDBRANCH  11  12
ENDBRANCH   1  11
TORSDOF 3
ENDMDL
MODEL       73
REMARK 921   NORMALIZED FREE ENERGY PREDICTED BY IDOCK:   -5.31 KCAL/MOL
REMARK 922        TOTAL FREE ENERGY PREDICTED BY IDOCK:   -6.55 KCAL/MOL
REMARK 923 INTER-LIGAND FREE ENERGY PREDICTED BY IDOCK:   -6.28 KCAL/MOL
REMARK 924 INTRA-LIGAND FREE ENERGY PREDICTED BY IDOCK:   -0.27 KCAL/MOL
REMARK 927      BINDING AFFINITY PREDICTED BY RF-SCORE:    0.00 PKD
ROOT
HETATM    1  S   UNL     1     -10.570   7.314  66.874  1.00  0.00    -0.230 SA 
ENDROOT
BRANCH   1   2
HETATM    2  C   UNL     1     -10.626   7.008  68.606  1.00  0.00    -0.210 A  
HETATM    3  S   UNL     1     -10.507   5.417  69.234  1.00  0.00    -0.196 SA 
HETATM    4  N   UNL     1     -10.743   7.969  69.496  1.00  0.00    -0.215 NA 
HETATM    5  C   UNL     1     -10.607   6.042  70.835  1.00  0.00    -0.251 A  
HETATM    6  C   UNL     1     -10.724   7.432  70.770  1.00  0.00    -0.232 A  
HETATM    7  C   UNL     1     -10.586   5.355  72.060  1.00  0.00    -0.284 A  
HETATM    8  C   UNL     1     -10.817   8.161  71.973  1.00  0.00    -0.349 A  
HETATM    9  C   UNL     1     -10.693   6.101  73.238  1.00  0.00    -0.282 A  
HETATM   10  C   UNL     1     -10.803   7.488  73.198  1.00  0.00    -0.448 A  
ENDBRANCH   1   2
BRANCH   1  11
HETATM   11  S   UNL     1      -8.941   8.578  66.776  1.00  0.00    -0.154 SA 
BRANCH  11  12
HETATM   12  C   UNL     1      -9.705   9.992  66.064  1.00  0.00    -0.240 A  
HETATM   13  C   UNL     1     -12.407  13.668  65.359  1.00  0.00    -0.510 A  
HETATM   14  C   UNL     1     -12.035  13.549  64.025  1.00  0.00    -0.501 A  
HETATM   15  N   UNL     1     -10.443  10.824  66.764  1.00  0.00    -0.243 NA 
HETATM   16  C   UNL     1     -11.152  12.548  63.611  1.00  0.00    -0.523 A  
HETATM   17  C   UNL     1     -11.008  11.766  65.926  1.00  0.00    -0.304 A  
HETATM   18  C   UNL     1     -10.651  11.663  64.581  1.00  0.00    -0.312 A  
HETATM   19  C   UNL     1     -11.899  12.784  66.318  1.00  0.00    -0.485 A  
HETATM   20  S   UNL     1      -9.569  10.337  64.391  1.00  0.00    -0.311 SA 
ENDBRANCH  11  12
ENDBRANCH   1  11
TORSDOF 3
ENDMDL
MODEL       74
REMARK 921   NORMALIZED FREE ENERGY PREDICTED BY IDOCK:   -5.31 KCAL/MOL
REMARK 922        TOTAL FREE ENERGY PREDICTED BY IDOCK:   -6.54 KCAL/MOL
REMARK 923 INTER-LIGAND FREE ENERGY PREDICTED BY IDOCK:   -6.28 KCAL/MOL
REMARK 924 INTRA-LIGAND FREE ENERGY PREDICTED BY IDOCK:   -0.26 KCAL/MOL
REMARK 927      BINDING AFFINITY PREDICTED BY RF-SCORE:    0.00 PKD
ROOT
HETATM    1  S   UNL     1      -9.920  13.302  67.273  1.00  0.00    -0.235 SA 
ENDROOT
BRANCH   1   2
HETATM    2  C   UNL     1     -10.680  12.344  68.539  1.00  0.00    -0.238 A  
HETATM    3  S   UNL     1     -11.962  12.975  69.487  1.00  0.00    -0.251 SA 
HETATM    4  N   UNL     1     -10.322  11.108  68.808  1.00  0.00    -0.199 NA 
HETATM    5  C   UNL     1     -12.072  11.479  70.331  1.00  0.00    -0.382 A  
HETATM    6  C   UNL     1     -11.115  10.600  69.821  1.00  0.00    -0.295 A  
HETATM    7  C   UNL     1     -12.941  11.108  71.371  1.00  0.00    -0.506 A  
HETATM    8  C   UNL     1     -11.026   9.303  70.365  1.00  0.00    -0.302 A  
HETATM    9  C   UNL     1     -12.824   9.819  71.902  1.00  0.00    -0.520 A  
HETATM   10  C   UNL     1     -11.881   8.925  71.405  1.00  0.00    -0.383 A  
ENDBRANCH   1   2
BRANCH   1  11
HETATM   11  S   UNL     1     -11.182  14.936  67.241  1.00  0.00    -0.346 SA 
BRANCH  11  12
HETATM   12  C   UNL     1     -10.039  16.202  67.664  1.00  0.00    -0.248 A  
HETATM   13  C   UNL     1      -6.375  18.472  69.316  1.00  0.00    -0.272 A  
HETATM   14  C   UNL     1      -7.144  19.618  69.147  1.00  0.00    -0.378 A  
HETATM   15  N   UNL     1      -8.812  15.943  68.060  1.00  0.00    -0.176 NA 
HETATM   16  C   UNL     1      -8.439  19.543  68.625  1.00  0.00    -0.364 A  
HETATM   17  C   UNL     1      -8.186  17.116  68.437  1.00  0.00    -0.253 A  
HETATM   18  C   UNL     1      -8.943  18.278  68.278  1.00  0.00    -0.305 A  
HETATM   19  C   UNL     1      -6.884  17.218  68.964  1.00  0.00    -0.245 A  
HETATM   20  S   UNL     1     -10.482  17.857  67.631  1.00  0.00    -0.387 SA 
ENDBRANCH  11  12
ENDBRANCH   1  11
TORSDOF 3
ENDMDL
MODEL       75
REMARK 921   NORMALIZED FREE ENERGY PREDICTED BY IDOCK:   -5.28 KCAL/MOL
REMARK 922        TOTAL FREE ENERGY PREDICTED BY IDOCK:   -6.51 KCAL/MOL
REMARK 923 INTER-LIGAND FREE ENERGY PREDICTED BY IDOCK:   -6.18 KCAL/MOL
REMARK 924 INTRA-LIGAND FREE ENERGY PREDICTED BY IDOCK:   -0.34 KCAL/MOL
REMARK 927      BINDING AFFINITY PREDICTED BY RF-SCORE:    0.00 PKD
ROOT
HETATM    1  S   UNL     1      -9.465  15.154  68.531  1.00  0.00    -0.210 SA 
ENDROOT
BRANCH   1   2
HETATM    2  C   UNL     1     -10.042  14.227  67.151  1.00  0.00    -0.254 A  
HETATM    3  S   UNL     1     -11.396  14.744  66.234  1.00  0.00    -0.305 SA 
HETATM    4  N   UNL     1      -9.466  13.117  66.747  1.00  0.00    -0.246 NA 
HETATM    5  C   UNL     1     -11.207  13.387  65.192  1.00  0.00    -0.305 A  
HETATM    6  C   UNL     1     -10.114  12.633  65.625  1.00  0.00    -0.272 A  
HETATM    7  C   UNL     1     -11.971  13.012  64.075  1.00  0.00    -0.523 A  
HETATM    8  C   UNL     1      -9.769  11.468  64.912  1.00  0.00    -0.264 A  
HETATM    9  C   UNL     1     -11.614  11.844  63.392  1.00  0.00    -0.477 A  
HETATM   10  C   UNL     1     -10.524  11.081  63.802  1.00  0.00    -0.408 A  
ENDBRANCH   1   2
BRANCH   1  11
HETATM   11  S   UNL     1     -10.656  16.832  68.373  1.00  0.00    -0.370 SA 
BRANCH  11  12
HETATM   12  C   UNL     1      -9.476  17.977  67.751  1.00  0.00    -0.264 A  
HETATM   13  C   UNL     1      -6.067  19.924  65.323  1.00  0.00    -0.259 A  
HETATM   14  C   UNL     1      -6.050  20.888  66.325  1.00  0.00    -0.303 A  
HETATM   15  N   UNL     1      -8.834  17.785  66.619  1.00  0.00    -0.256 NA 
HETATM   16  C   UNL     1      -6.942  20.822  67.400  1.00  0.00    -0.418 A  
HETATM   17  C   UNL     1      -7.890  18.778  66.444  1.00  0.00    -0.278 A  
HETATM   18  C   UNL     1      -7.854  19.754  67.441  1.00  0.00    -0.276 A  
HETATM   19  C   UNL     1      -6.982  18.867  65.371  1.00  0.00    -0.137 A  
HETATM   20  S   UNL     1      -9.056  19.392  68.620  1.00  0.00    -0.349 SA 
ENDBRANCH  11  12
ENDBRANCH   1  11
TORSDOF 3
ENDMDL
MODEL       76
REMARK 921   NORMALIZED FREE ENERGY PREDICTED BY IDOCK:   -5.28 KCAL/MOL
REMARK 922        TOTAL FREE ENERGY PREDICTED BY IDOCK:   -6.51 KCAL/MOL
REMARK 923 INTER-LIGAND FREE ENERGY PREDICTED BY IDOCK:   -6.41 KCAL/MOL
REMARK 924 INTRA-LIGAND FREE ENERGY PREDICTED BY IDOCK:   -0.10 KCAL/MOL
REMARK 927      BINDING AFFINITY PREDICTED BY RF-SCORE:    0.00 PKD
ROOT
HETATM    1  S   UNL     1      -9.757  13.847  67.100  1.00  0.00    -0.251 SA 
ENDROOT
BRANCH   1   2
HETATM    2  C   UNL     1     -10.777  13.612  68.515  1.00  0.00    -0.255 A  
HETATM    3  S   UNL     1     -11.488  14.941  69.332  1.00  0.00    -0.319 SA 
HETATM    4  N   UNL     1     -11.056  12.423  69.003  1.00  0.00    -0.246 NA 
HETATM    5  C   UNL     1     -12.250  13.858  70.431  1.00  0.00    -0.368 A  
HETATM    6  C   UNL     1     -11.903  12.549  70.089  1.00  0.00    -0.258 A  
HETATM    7  C   UNL     1     -13.092  14.142  71.518  1.00  0.00    -0.424 A  
HETATM    8  C   UNL     1     -12.420  11.487  70.858  1.00  0.00    -0.464 A  
HETATM    9  C   UNL     1     -13.583  13.071  72.272  1.00  0.00    -0.643 A  
HETATM   10  C   UNL     1     -13.255  11.758  71.946  1.00  0.00    -0.468 A  
ENDBRANCH   1   2
BRANCH   1  11
HETATM   11  S   UNL     1     -10.245  15.792  66.612  1.00  0.00    -0.295 SA 
BRANCH  11  12
HETATM   12  C   UNL     1      -9.074  16.650  67.602  1.00  0.00    -0.207 A  
HETATM   13  C   UNL     1      -6.479  19.962  69.501  1.00  0.00    -0.389 A  
HETATM   14  C   UNL     1      -5.680  18.921  69.961  1.00  0.00    -0.262 A  
HETATM   15  N   UNL     1      -9.078  17.958  67.728  1.00  0.00    -0.255 NA 
HETATM   16  C   UNL     1      -6.005  17.590  69.686  1.00  0.00    -0.252 A  
HETATM   17  C   UNL     1      -7.979  18.361  68.462  1.00  0.00    -0.314 A  
HETATM   18  C   UNL     1      -7.162  17.332  68.931  1.00  0.00    -0.243 A  
HETATM   19  C   UNL     1      -7.630  19.694  68.753  1.00  0.00    -0.351 A  
HETATM   20  S   UNL     1      -7.818  15.823  68.423  1.00  0.00    -0.142 SA 
ENDBRANCH  11  12
ENDBRANCH   1  11
TORSDOF 3
ENDMDL
MODEL       77
REMARK 921   NORMALIZED FREE ENERGY PREDICTED BY IDOCK:   -5.26 KCAL/MOL
REMARK 922        TOTAL FREE ENERGY PREDICTED BY IDOCK:   -6.49 KCAL/MOL
REMARK 923 INTER-LIGAND FREE ENERGY PREDICTED BY IDOCK:   -6.12 KCAL/MOL
REMARK 924 INTRA-LIGAND FREE ENERGY PREDICTED BY IDOCK:   -0.38 KCAL/MOL
REMARK 927      BINDING AFFINITY PREDICTED BY RF-SCORE:    0.00 PKD
ROOT
HETATM    1  S   UNL     1      -9.050  11.456  67.765  1.00  0.00    -0.163 SA 
ENDROOT
BRANCH   1   2
HETATM    2  C   UNL     1      -9.343   9.908  68.549  1.00  0.00    -0.143 A  
HETATM    3  S   UNL     1      -8.563   9.492  70.019  1.00  0.00    -0.229 SA 
HETATM    4  N   UNL     1     -10.174   9.011  68.067  1.00  0.00    -0.202 NA 
HETATM    5  C   UNL     1      -9.403   7.989  70.037  1.00  0.00    -0.156 A  
HETATM    6  C   UNL     1     -10.224   7.916  68.910  1.00  0.00    -0.205 A  
HETATM    7  C   UNL     1      -9.339   6.948  70.977  1.00  0.00    -0.156 A  
HETATM    8  C   UNL     1     -11.014   6.765  68.720  1.00  0.00    -0.267 A  
HETATM    9  C   UNL     1     -10.123   5.811  70.759  1.00  0.00    -0.260 A  
HETATM   10  C   UNL     1     -10.954   5.719  69.646  1.00  0.00    -0.385 A  
ENDBRANCH   1   2
BRANCH   1  11
HETATM   11  S   UNL     1     -10.960  11.913  67.129  1.00  0.00    -0.286 SA 
BRANCH  11  12
HETATM   12  C   UNL     1     -11.561  12.738  68.559  1.00  0.00    -0.321 A  
HETATM   13  C   UNL     1     -13.597  13.657  72.599  1.00  0.00    -0.596 A  
HETATM   14  C   UNL     1     -13.513  14.991  72.214  1.00  0.00    -0.521 A  
HETATM   15  N   UNL     1     -11.982  12.091  69.623  1.00  0.00    -0.308 NA 
HETATM   16  C   UNL     1     -12.931  15.351  70.996  1.00  0.00    -0.556 A  
HETATM   17  C   UNL     1     -12.505  12.985  70.538  1.00  0.00    -0.231 A  
HETATM   18  C   UNL     1     -12.434  14.330  70.169  1.00  0.00    -0.335 A  
HETATM   19  C   UNL     1     -13.095  12.647  71.771  1.00  0.00    -0.461 A  
HETATM   20  S   UNL     1     -11.680  14.446  68.626  1.00  0.00    -0.335 SA 
ENDBRANCH  11  12
ENDBRANCH   1  11
TORSDOF 3
ENDMDL
MODEL       78
REMARK 921   NORMALIZED FREE ENERGY PREDICTED BY IDOCK:   -5.23 KCAL/MOL
REMARK 922        TOTAL FREE ENERGY PREDICTED BY IDOCK:   -6.46 KCAL/MOL
REMARK 923 INTER-LIGAND FREE ENERGY PREDICTED BY IDOCK:   -6.18 KCAL/MOL
REMARK 924 INTRA-LIGAND FREE ENERGY PREDICTED BY IDOCK:   -0.27 KCAL/MOL
REMARK 927      BINDING AFFINITY PREDICTED BY RF-SCORE:    0.00 PKD
ROOT
HETATM    1  S   UNL     1      -8.944   9.243  67.024  1.00  0.00    -0.127 SA 
ENDROOT
BRANCH   1   2
HETATM    2  C   UNL     1      -9.916  10.547  66.352  1.00  0.00    -0.218 A  
HETATM    3  S   UNL     1     -10.519  11.810  67.341  1.00  0.00    -0.217 SA 
HETATM    4  N   UNL     1     -10.211  10.629  65.073  1.00  0.00    -0.317 NA 
HETATM    5  C   UNL     1     -11.232  12.551  65.960  1.00  0.00    -0.315 A  
HETATM    6  C   UNL     1     -10.953  11.771  64.835  1.00  0.00    -0.300 A  
HETATM    7  C   UNL     1     -11.986  13.733  65.876  1.00  0.00    -0.433 A  
HETATM    8  C   UNL     1     -11.439  12.192  63.581  1.00  0.00    -0.566 A  
HETATM    9  C   UNL     1     -12.467  14.122  64.621  1.00  0.00    -0.375 A  
HETATM   10  C   UNL     1     -12.195  13.364  63.485  1.00  0.00    -0.468 A  
ENDBRANCH   1   2
BRANCH   1  11
HETATM   11  S   UNL     1     -10.275   7.673  66.868  1.00  0.00    -0.284 SA 
BRANCH  11  12
HETATM   12  C   UNL     1     -10.527   7.326  68.572  1.00  0.00    -0.188 A  
HETATM   13  C   UNL     1     -10.676   7.666  73.173  1.00  0.00    -0.445 A  
HETATM   14  C   UNL     1     -10.829   6.284  73.162  1.00  0.00    -0.281 A  
HETATM   15  N   UNL     1     -10.502   8.262  69.495  1.00  0.00    -0.226 NA 
HETATM   16  C   UNL     1     -10.875   5.576  71.957  1.00  0.00    -0.287 A  
HETATM   17  C   UNL     1     -10.609   7.686  70.746  1.00  0.00    -0.221 A  
HETATM   18  C   UNL     1     -10.760   6.299  70.758  1.00  0.00    -0.256 A  
HETATM   19  C   UNL     1     -10.567   8.377  71.973  1.00  0.00    -0.387 A  
HETATM   20  S   UNL     1     -10.769   5.725  69.134  1.00  0.00    -0.274 SA 
ENDBRANCH  11  12
ENDBRANCH   1  11
TORSDOF 3
ENDMDL
MODEL       79
REMARK 921   NORMALIZED FREE ENERGY PREDICTED BY IDOCK:   -5.22 KCAL/MOL
REMARK 922        TOTAL FREE ENERGY PREDICTED BY IDOCK:   -6.44 KCAL/MOL
REMARK 923 INTER-LIGAND FREE ENERGY PREDICTED BY IDOCK:   -6.27 KCAL/MOL
REMARK 924 INTRA-LIGAND FREE ENERGY PREDICTED BY IDOCK:   -0.17 KCAL/MOL
REMARK 927      BINDING AFFINITY PREDICTED BY RF-SCORE:    0.00 PKD
ROOT
HETATM    1  S   UNL     1     -11.090  10.415  69.214  1.00  0.00    -0.262 SA 
ENDROOT
BRANCH   1   2
HETATM    2  C   UNL     1     -11.057  11.726  68.040  1.00  0.00    -0.242 A  
HETATM    3  S   UNL     1      -9.807  12.900  68.050  1.00  0.00    -0.227 SA 
HETATM    4  N   UNL     1     -11.965  11.862  67.099  1.00  0.00    -0.603 NA 
HETATM    5  C   UNL     1     -10.514  13.661  66.677  1.00  0.00    -0.272 A  
HETATM    6  C   UNL     1     -11.661  12.956  66.309  1.00  0.00    -0.399 A  
HETATM    7  C   UNL     1     -10.087  14.802  65.976  1.00  0.00    -0.327 A  
HETATM    8  C   UNL     1     -12.405  13.402  65.199  1.00  0.00    -0.501 A  
HETATM    9  C   UNL     1     -10.850  15.231  64.885  1.00  0.00    -0.444 A  
HETATM   10  C   UNL     1     -11.993  14.539  64.497  1.00  0.00    -0.482 A  
ENDBRANCH   1   2
BRANCH   1  11
HETATM   11  S   UNL     1     -10.275   8.890  68.086  1.00  0.00    -0.206 SA 
BRANCH  11  12
HETATM   12  C   UNL     1     -10.399   7.569  69.239  1.00  0.00    -0.209 A  
HETATM   13  C   UNL     1     -11.199   5.099  73.056  1.00  0.00    -0.390 A  
HETATM   14  C   UNL     1     -10.386   4.135  72.471  1.00  0.00    -0.228 A  
HETATM   15  N   UNL     1     -11.100   7.662  70.347  1.00  0.00    -0.261 NA 
HETATM   16  C   UNL     1      -9.825   4.338  71.207  1.00  0.00    -0.257 A  
HETATM   17  C   UNL     1     -10.920   6.525  71.110  1.00  0.00    -0.266 A  
HETATM   18  C   UNL     1     -10.103   5.545  70.544  1.00  0.00    -0.226 A  
HETATM   19  C   UNL     1     -11.474   6.296  72.385  1.00  0.00    -0.335 A  
HETATM   20  S   UNL     1      -9.563   6.092  69.003  1.00  0.00    -0.128 SA 
ENDBRANCH  11  12
ENDBRANCH   1  11
TORSDOF 3
ENDMDL
MODEL       80
REMARK 921   NORMALIZED FREE ENERGY PREDICTED BY IDOCK:   -5.22 KCAL/MOL
REMARK 922        TOTAL FREE ENERGY PREDICTED BY IDOCK:   -6.44 KCAL/MOL
REMARK 923 INTER-LIGAND FREE ENERGY PREDICTED BY IDOCK:   -6.07 KCAL/MOL
REMARK 924 INTRA-LIGAND FREE ENERGY PREDICTED BY IDOCK:   -0.36 KCAL/MOL
REMARK 927      BINDING AFFINITY PREDICTED BY RF-SCORE:    0.00 PKD
ROOT
HETATM    1  S   UNL     1      -8.412  12.617  67.932  1.00  0.00    -0.184 SA 
ENDROOT
BRANCH   1   2
HETATM    2  C   UNL     1      -8.223  14.367  67.931  1.00  0.00    -0.156 A  
HETATM    3  S   UNL     1      -7.504  15.187  69.253  1.00  0.00    -0.204 SA 
HETATM    4  N   UNL     1      -8.603  15.123  66.924  1.00  0.00    -0.242 NA 
HETATM    5  C   UNL     1      -7.694  16.685  68.427  1.00  0.00    -0.200 A  
HETATM    6  C   UNL     1      -8.298  16.446  67.191  1.00  0.00    -0.187 A  
HETATM    7  C   UNL     1      -7.339  17.979  68.842  1.00  0.00    -0.249 A  
HETATM    8  C   UNL     1      -8.550  17.538  66.337  1.00  0.00    -0.273 A  
HETATM    9  C   UNL     1      -7.611  19.047  67.980  1.00  0.00    -0.300 A  
HETATM   10  C   UNL     1      -8.206  18.831  66.740  1.00  0.00    -0.286 A  
ENDBRANCH   1   2
BRANCH   1  11
HETATM   11  S   UNL     1     -10.338  12.454  67.209  1.00  0.00    -0.216 SA 
BRANCH  11  12
HETATM   12  C   UNL     1     -11.232  13.005  68.618  1.00  0.00    -0.277 A  
HETATM   13  C   UNL     1     -13.818  13.122  72.440  1.00  0.00    -0.583 A  
HETATM   14  C   UNL     1     -13.952  14.481  72.177  1.00  0.00    -0.597 A  
HETATM   15  N   UNL     1     -11.630  12.187  69.567  1.00  0.00    -0.312 NA 
HETATM   16  C   UNL     1     -13.325  15.064  71.072  1.00  0.00    -0.477 A  
HETATM   17  C   UNL     1     -12.407  12.874  70.480  1.00  0.00    -0.283 A  
HETATM   18  C   UNL     1     -12.558  14.239  70.233  1.00  0.00    -0.319 A  
HETATM   19  C   UNL     1     -13.048  12.310  71.601  1.00  0.00    -0.408 A  
HETATM   20  S   UNL     1     -11.682  14.648  68.807  1.00  0.00    -0.320 SA 
ENDBRANCH  11  12
ENDBRANCH   1  11
TORSDOF 3
ENDMDL
MODEL       81
REMARK 921   NORMALIZED FREE ENERGY PREDICTED BY IDOCK:   -5.22 KCAL/MOL
REMARK 922        TOTAL FREE ENERGY PREDICTED BY IDOCK:   -6.44 KCAL/MOL
REMARK 923 INTER-LIGAND FREE ENERGY PREDICTED BY IDOCK:   -6.26 KCAL/MOL
REMARK 924 INTRA-LIGAND FREE ENERGY PREDICTED BY IDOCK:   -0.17 KCAL/MOL
REMARK 927      BINDING AFFINITY PREDICTED BY RF-SCORE:    0.00 PKD
ROOT
HETATM    1  S   UNL     1     -11.365   9.924  70.276  1.00  0.00    -0.300 SA 
ENDROOT
BRANCH   1   2
HETATM    2  C   UNL     1     -11.113   8.317  70.946  1.00  0.00    -0.261 A  
HETATM    3  S   UNL     1     -11.846   7.840  72.420  1.00  0.00    -0.294 SA 
HETATM    4  N   UNL     1     -10.375   7.405  70.351  1.00  0.00    -0.206 NA 
HETATM    5  C   UNL     1     -11.139   6.279  72.267  1.00  0.00    -0.271 A  
HETATM    6  C   UNL     1     -10.389   6.236  71.089  1.00  0.00    -0.209 A  
HETATM    7  C   UNL     1     -11.236   5.171  73.125  1.00  0.00    -0.398 A  
HETATM    8  C   UNL     1      -9.719   5.042  70.755  1.00  0.00    -0.263 A  
HETATM    9  C   UNL     1     -10.551   4.002  72.777  1.00  0.00    -0.218 A  
HETATM   10  C   UNL     1      -9.804   3.935  71.605  1.00  0.00    -0.247 A  
ENDBRANCH   1   2
BRANCH   1  11
HETATM   11  S   UNL     1      -9.845   9.985  68.881  1.00  0.00    -0.195 SA 
BRANCH  11  12
HETATM   12  C   UNL     1     -10.604  10.993  67.658  1.00  0.00    -0.217 A  
HETATM   13  C   UNL     1     -11.778  12.924  63.632  1.00  0.00    -0.572 A  
HETATM   14  C   UNL     1     -12.334  13.938  64.405  1.00  0.00    -0.400 A  
HETATM   15  N   UNL     1     -10.527  10.724  66.373  1.00  0.00    -0.247 NA 
HETATM   16  C   UNL     1     -12.291  13.883  65.802  1.00  0.00    -0.518 A  
HETATM   17  C   UNL     1     -11.109  11.745  65.647  1.00  0.00    -0.285 A  
HETATM   18  C   UNL     1     -11.670  12.775  66.403  1.00  0.00    -0.403 A  
HETATM   19  C   UNL     1     -11.166  11.824  64.241  1.00  0.00    -0.414 A  
HETATM   20  S   UNL     1     -11.450  12.424  68.074  1.00  0.00    -0.343 SA 
ENDBRANCH  11  12
ENDBRANCH   1  11
TORSDOF 3
ENDMDL
MODEL       82
REMARK 921   NORMALIZED FREE ENERGY PREDICTED BY IDOCK:   -5.15 KCAL/MOL
REMARK 922        TOTAL FREE ENERGY PREDICTED BY IDOCK:   -6.36 KCAL/MOL
REMARK 923 INTER-LIGAND FREE ENERGY PREDICTED BY IDOCK:   -6.18 KCAL/MOL
REMARK 924 INTRA-LIGAND FREE ENERGY PREDICTED BY IDOCK:   -0.18 KCAL/MOL
REMARK 927      BINDING AFFINITY PREDICTED BY RF-SCORE:    0.00 PKD
ROOT
HETATM    1  S   UNL     1      -9.694   9.886  68.784  1.00  0.00    -0.168 SA 
ENDROOT
BRANCH   1   2
HETATM    2  C   UNL     1     -10.458  10.920  67.582  1.00  0.00    -0.209 A  
HETATM    3  S   UNL     1     -11.415  12.266  68.043  1.00  0.00    -0.342 SA 
HETATM    4  N   UNL     1     -10.323  10.727  66.288  1.00  0.00    -0.248 NA 
HETATM    5  C   UNL     1     -11.674  12.648  66.384  1.00  0.00    -0.405 A  
HETATM    6  C   UNL     1     -11.004  11.711  65.594  1.00  0.00    -0.266 A  
HETATM    7  C   UNL     1     -12.418  13.697  65.820  1.00  0.00    -0.524 A  
HETATM    8  C   UNL     1     -11.074  11.832  64.192  1.00  0.00    -0.442 A  
HETATM    9  C   UNL     1     -12.482  13.787  64.426  1.00  0.00    -0.317 A  
HETATM   10  C   UNL     1     -11.816  12.869  63.619  1.00  0.00    -0.599 A  
ENDBRANCH   1   2
BRANCH   1  11
HETATM   11  S   UNL     1     -11.187   9.811  70.208  1.00  0.00    -0.302 SA 
BRANCH  11  12
HETATM   12  C   UNL     1     -10.875   8.218  70.881  1.00  0.00    -0.230 A  
HETATM   13  C   UNL     1      -9.782   3.757  71.348  1.00  0.00    -0.242 A  
HETATM   14  C   UNL     1     -10.403   3.847  72.589  1.00  0.00    -0.228 A  
HETATM   15  N   UNL     1     -10.233   7.283  70.217  1.00  0.00    -0.197 NA 
HETATM   16  C   UNL     1     -10.953   5.054  73.031  1.00  0.00    -0.360 A  
HETATM   17  C   UNL     1     -10.241   6.106  70.940  1.00  0.00    -0.201 A  
HETATM   18  C   UNL     1     -10.863   6.173  72.187  1.00  0.00    -0.247 A  
HETATM   19  C   UNL     1      -9.693   4.879  70.517  1.00  0.00    -0.274 A  
HETATM   20  S   UNL     1     -11.443   7.775  72.436  1.00  0.00    -0.379 SA 
ENDBRANCH  11  12
ENDBRANCH   1  11
TORSDOF 3
ENDMDL
MODEL       83
REMARK 921   NORMALIZED FREE ENERGY PREDICTED BY IDOCK:   -5.14 KCAL/MOL
REMARK 922        TOTAL FREE ENERGY PREDICTED BY IDOCK:   -6.34 KCAL/MOL
REMARK 923 INTER-LIGAND FREE ENERGY PREDICTED BY IDOCK:   -6.06 KCAL/MOL
REMARK 924 INTRA-LIGAND FREE ENERGY PREDICTED BY IDOCK:   -0.28 KCAL/MOL
REMARK 927      BINDING AFFINITY PREDICTED BY RF-SCORE:    0.00 PKD
ROOT
HETATM    1  S   UNL     1      -9.195   8.089  66.460  1.00  0.00    -0.198 SA 
ENDROOT
BRANCH   1   2
HETATM    2  C   UNL     1      -9.759   8.064  68.127  1.00  0.00    -0.160 A  
HETATM    3  S   UNL     1      -9.355   9.318  69.224  1.00  0.00    -0.165 SA 
HETATM    4  N   UNL     1     -10.521   7.105  68.606  1.00  0.00    -0.195 NA 
HETATM    5  C   UNL     1     -10.279   8.540  70.451  1.00  0.00    -0.195 A  
HETATM    6  C   UNL     1     -10.832   7.370  69.928  1.00  0.00    -0.246 A  
HETATM    7  C   UNL     1     -10.496   8.933  71.782  1.00  0.00    -0.431 A  
HETATM    8  C   UNL     1     -11.637   6.568  70.761  1.00  0.00    -0.437 A  
HETATM    9  C   UNL     1     -11.289   8.113  72.592  1.00  0.00    -0.450 A  
HETATM   10  C   UNL     1     -11.856   6.946  72.089  1.00  0.00    -0.318 A  
ENDBRANCH   1   2
BRANCH   1  11
HETATM   11  S   UNL     1      -8.043   9.802  66.487  1.00  0.00    -0.117 SA 
BRANCH  11  12
HETATM   12  C   UNL     1      -9.238  10.973  65.950  1.00  0.00    -0.199 A  
HETATM   13  C   UNL     1     -12.283  13.319  63.394  1.00  0.00    -0.476 A  
HETATM   14  C   UNL     1     -12.152  14.319  64.352  1.00  0.00    -0.490 A  
HETATM   15  N   UNL     1      -9.958  10.799  64.863  1.00  0.00    -0.287 NA 
HETATM   16  C   UNL     1     -11.312  14.150  65.456  1.00  0.00    -0.319 A  
HETATM   17  C   UNL     1     -10.721  11.926  64.624  1.00  0.00    -0.307 A  
HETATM   18  C   UNL     1     -10.601  12.943  65.572  1.00  0.00    -0.279 A  
HETATM   19  C   UNL     1     -11.574  12.120  63.520  1.00  0.00    -0.562 A  
HETATM   20  S   UNL     1      -9.495  12.442  66.792  1.00  0.00    -0.232 SA 
ENDBRANCH  11  12
ENDBRANCH   1  11
TORSDOF 3
ENDMDL
MODEL       84
REMARK 921   NORMALIZED FREE ENERGY PREDICTED BY IDOCK:   -5.11 KCAL/MOL
REMARK 922        TOTAL FREE ENERGY PREDICTED BY IDOCK:   -6.31 KCAL/MOL
REMARK 923 INTER-LIGAND FREE ENERGY PREDICTED BY IDOCK:   -6.14 KCAL/MOL
REMARK 924 INTRA-LIGAND FREE ENERGY PREDICTED BY IDOCK:   -0.18 KCAL/MOL
REMARK 927      BINDING AFFINITY PREDICTED BY RF-SCORE:    0.00 PKD
ROOT
HETATM    1  S   UNL     1      -9.467   9.776  69.715  1.00  0.00    -0.232 SA 
ENDROOT
BRANCH   1   2
HETATM    2  C   UNL     1      -9.831   8.316  70.627  1.00  0.00    -0.182 A  
HETATM    3  S   UNL     1     -11.165   8.245  71.702  1.00  0.00    -0.290 SA 
HETATM    4  N   UNL     1      -9.121   7.214  70.521  1.00  0.00    -0.155 NA 
HETATM    5  C   UNL     1     -10.788   6.605  72.061  1.00  0.00    -0.233 A  
HETATM    6  C   UNL     1      -9.661   6.228  71.327  1.00  0.00    -0.174 A  
HETATM    7  C   UNL     1     -11.437   5.714  72.932  1.00  0.00    -0.297 A  
HETATM    8  C   UNL     1      -9.171   4.914  71.462  1.00  0.00    -0.185 A  
HETATM    9  C   UNL     1     -10.924   4.419  73.057  1.00  0.00    -0.289 A  
HETATM   10  C   UNL     1      -9.806   4.020  72.329  1.00  0.00    -0.224 A  
ENDBRANCH   1   2
BRANCH   1  11
HETATM   11  S   UNL     1     -11.357  10.592  69.556  1.00  0.00    -0.288 SA 
BRANCH  11  12
HETATM   12  C   UNL     1     -11.281  11.198  67.908  1.00  0.00    -0.302 A  
HETATM   13  C   UNL     1     -12.194  13.459  63.988  1.00  0.00    -0.466 A  
HETATM   14  C   UNL     1     -11.333  12.546  63.389  1.00  0.00    -0.489 A  
HETATM   15  N   UNL     1     -11.969  12.245  67.508  1.00  0.00    -0.528 NA 
HETATM   16  C   UNL     1     -10.697  11.556  64.144  1.00  0.00    -0.428 A  
HETATM   17  C   UNL     1     -11.808  12.417  66.147  1.00  0.00    -0.376 A  
HETATM   18  C   UNL     1     -10.951  11.508  65.525  1.00  0.00    -0.229 A  
HETATM   19  C   UNL     1     -12.437  13.405  65.365  1.00  0.00    -0.543 A  
HETATM   20  S   UNL     1     -10.338  10.418  66.709  1.00  0.00    -0.224 SA 
ENDBRANCH  11  12
ENDBRANCH   1  11
TORSDOF 3
ENDMDL
MODEL       85
REMARK 921   NORMALIZED FREE ENERGY PREDICTED BY IDOCK:   -5.11 KCAL/MOL
REMARK 922        TOTAL FREE ENERGY PREDICTED BY IDOCK:   -6.31 KCAL/MOL
REMARK 923 INTER-LIGAND FREE ENERGY PREDICTED BY IDOCK:   -6.13 KCAL/MOL
REMARK 924 INTRA-LIGAND FREE ENERGY PREDICTED BY IDOCK:   -0.18 KCAL/MOL
REMARK 927      BINDING AFFINITY PREDICTED BY RF-SCORE:    0.00 PKD
ROOT
HETATM    1  S   UNL     1     -11.245  10.305  70.049  1.00  0.00    -0.329 SA 
ENDROOT
BRANCH   1   2
HETATM    2  C   UNL     1     -10.990   8.773  70.875  1.00  0.00    -0.262 A  
HETATM    3  S   UNL     1     -11.026   7.284  70.025  1.00  0.00    -0.234 SA 
HETATM    4  N   UNL     1     -10.745   8.691  72.164  1.00  0.00    -0.348 NA 
HETATM    5  C   UNL     1     -10.675   6.443  71.485  1.00  0.00    -0.238 A  
HETATM    6  C   UNL     1     -10.554   7.369  72.523  1.00  0.00    -0.261 A  
HETATM    7  C   UNL     1     -10.520   5.063  71.700  1.00  0.00    -0.232 A  
HETATM    8  C   UNL     1     -10.261   6.901  73.819  1.00  0.00    -0.396 A  
HETATM    9  C   UNL     1     -10.242   4.623  72.999  1.00  0.00    -0.219 A  
HETATM   10  C   UNL     1     -10.111   5.530  74.047  1.00  0.00    -0.241 A  
ENDBRANCH   1   2
BRANCH   1  11
HETATM   11  S   UNL     1      -9.473  10.459  69.002  1.00  0.00    -0.200 SA 
BRANCH  11  12
HETATM   12  C   UNL     1     -10.065  11.199  67.522  1.00  0.00    -0.183 A  
HETATM   13  C   UNL     1     -12.488  13.720  64.507  1.00  0.00    -0.329 A  
HETATM   14  C   UNL     1     -11.922  12.902  63.535  1.00  0.00    -0.629 A  
HETATM   15  N   UNL     1     -10.869  12.239  67.524  1.00  0.00    -0.227 NA 
HETATM   16  C   UNL     1     -11.025  11.887  63.882  1.00  0.00    -0.473 A  
HETATM   17  C   UNL     1     -11.264  12.528  66.232  1.00  0.00    -0.315 A  
HETATM   18  C   UNL     1     -10.711  11.716  65.241  1.00  0.00    -0.291 A  
HETATM   19  C   UNL     1     -12.165  13.543  65.857  1.00  0.00    -0.507 A  
HETATM   20  S   UNL     1      -9.664  10.566  65.981  1.00  0.00    -0.217 SA 
ENDBRANCH  11  12
ENDBRANCH   1  11
TORSDOF 3
ENDMDL
MODEL       86
REMARK 921   NORMALIZED FREE ENERGY PREDICTED BY IDOCK:   -5.08 KCAL/MOL
REMARK 922        TOTAL FREE ENERGY PREDICTED BY IDOCK:   -6.27 KCAL/MOL
REMARK 923 INTER-LIGAND FREE ENERGY PREDICTED BY IDOCK:   -5.98 KCAL/MOL
REMARK 924 INTRA-LIGAND FREE ENERGY PREDICTED BY IDOCK:   -0.30 KCAL/MOL
REMARK 927      BINDING AFFINITY PREDICTED BY RF-SCORE:    0.00 PKD
ROOT
HETATM    1  S   UNL     1     -12.680   9.147  71.397  1.00  0.00    -0.301 SA 
ENDROOT
BRANCH   1   2
HETATM    2  C   UNL     1     -12.741  10.903  71.302  1.00  0.00    -0.437 A  
HETATM    3  S   UNL     1     -11.899  11.759  70.078  1.00  0.00    -0.310 SA 
HETATM    4  N   UNL     1     -13.438  11.638  72.140  1.00  0.00    -0.320 NA 
HETATM    5  C   UNL     1     -12.514  13.244  70.695  1.00  0.00    -0.298 A  
HETATM    6  C   UNL     1     -13.324  12.973  71.800  1.00  0.00    -0.378 A  
HETATM    7  C   UNL     1     -12.294  14.554  70.240  1.00  0.00    -0.408 A  
HETATM    8  C   UNL     1     -13.942  14.050  72.468  1.00  0.00    -0.553 A  
HETATM    9  C   UNL     1     -12.909  15.606  70.928  1.00  0.00    -0.498 A  
HETATM   10  C   UNL     1     -13.726  15.359  72.027  1.00  0.00    -0.613 A  
ENDBRANCH   1   2
BRANCH   1  11
HETATM   11  S   UNL     1     -10.675   8.869  71.800  1.00  0.00    -0.363 SA 
BRANCH  11  12
HETATM   12  C   UNL     1     -10.106   8.434  70.195  1.00  0.00    -0.191 A  
HETATM   13  C   UNL     1      -9.363   6.185  66.233  1.00  0.00    -0.157 A  
HETATM   14  C   UNL     1      -8.297   7.062  66.061  1.00  0.00    -0.134 A  
HETATM   15  N   UNL     1     -10.649   7.464  69.492  1.00  0.00    -0.235 NA 
HETATM   16  C   UNL     1      -8.022   8.052  67.009  1.00  0.00    -0.108 A  
HETATM   17  C   UNL     1      -9.927   7.269  68.331  1.00  0.00    -0.161 A  
HETATM   18  C   UNL     1      -8.850   8.136  68.141  1.00  0.00    -0.132 A  
HETATM   19  C   UNL     1     -10.184   6.280  67.361  1.00  0.00    -0.223 A  
HETATM   20  S   UNL     1      -8.768   9.223  69.474  1.00  0.00    -0.157 SA 
ENDBRANCH  11  12
ENDBRANCH   1  11
TORSDOF 3
ENDMDL
MODEL       87
REMARK 921   NORMALIZED FREE ENERGY PREDICTED BY IDOCK:   -5.07 KCAL/MOL
REMARK 922        TOTAL FREE ENERGY PREDICTED BY IDOCK:   -6.26 KCAL/MOL
REMARK 923 INTER-LIGAND FREE ENERGY PREDICTED BY IDOCK:   -6.06 KCAL/MOL
REMARK 924 INTRA-LIGAND FREE ENERGY PREDICTED BY IDOCK:   -0.20 KCAL/MOL
REMARK 927      BINDING AFFINITY PREDICTED BY RF-SCORE:    0.00 PKD
ROOT
HETATM    1  S   UNL     1     -10.510  16.907  67.728  1.00  0.00    -0.343 SA 
ENDROOT
BRANCH   1   2
HETATM    2  C   UNL     1      -9.238  18.098  67.482  1.00  0.00    -0.257 A  
HETATM    3  S   UNL     1      -8.511  18.913  68.804  1.00  0.00    -0.256 SA 
HETATM    4  N   UNL     1      -8.774  18.409  66.292  1.00  0.00    -0.451 NA 
HETATM    5  C   UNL     1      -7.474  19.751  67.716  1.00  0.00    -0.286 A  
HETATM    6  C   UNL     1      -7.762  19.343  66.412  1.00  0.00    -0.285 A  
HETATM    7  C   UNL     1      -6.479  20.704  67.993  1.00  0.00    -0.355 A  
HETATM    8  C   UNL     1      -7.025  19.902  65.349  1.00  0.00    -0.323 A  
HETATM    9  C   UNL     1      -5.771  21.252  66.919  1.00  0.00    -0.361 A  
HETATM   10  C   UNL     1      -6.037  20.855  65.611  1.00  0.00    -0.277 A  
ENDBRANCH   1   2
BRANCH   1  11
HETATM   11  S   UNL     1     -10.739  16.208  65.800  1.00  0.00    -0.233 SA 
BRANCH  11  12
HETATM   12  C   UNL     1     -10.597  14.481  66.090  1.00  0.00    -0.306 A  
HETATM   13  C   UNL     1      -9.810   9.964  65.560  1.00  0.00    -0.381 A  
HETATM   14  C   UNL     1     -10.570   9.806  66.714  1.00  0.00    -0.208 A  
HETATM   15  N   UNL     1      -9.931  13.682  65.287  1.00  0.00    -0.251 NA 
HETATM   16  C   UNL     1     -11.104  10.914  67.379  1.00  0.00    -0.373 A  
HETATM   17  C   UNL     1     -10.089  12.371  65.695  1.00  0.00    -0.257 A  
HETATM   18  C   UNL     1     -10.852  12.191  66.849  1.00  0.00    -0.250 A  
HETATM   19  C   UNL     1      -9.562  11.240  65.043  1.00  0.00    -0.267 A  
HETATM   20  S   UNL     1     -11.371  13.730  67.422  1.00  0.00    -0.341 SA 
ENDBRANCH  11  12
ENDBRANCH   1  11
TORSDOF 3
ENDMDL
MODEL       88
REMARK 921   NORMALIZED FREE ENERGY PREDICTED BY IDOCK:   -5.05 KCAL/MOL
REMARK 922        TOTAL FREE ENERGY PREDICTED BY IDOCK:   -6.25 KCAL/MOL
REMARK 923 INTER-LIGAND FREE ENERGY PREDICTED BY IDOCK:   -5.87 KCAL/MOL
REMARK 924 INTRA-LIGAND FREE ENERGY PREDICTED BY IDOCK:   -0.37 KCAL/MOL
REMARK 927      BINDING AFFINITY PREDICTED BY RF-SCORE:    0.00 PKD
ROOT
HETATM    1  S   UNL     1     -10.811  12.860  66.872  1.00  0.00    -0.261 SA 
ENDROOT
BRANCH   1   2
HETATM    2  C   UNL     1     -11.598  13.202  68.407  1.00  0.00    -0.337 A  
HETATM    3  S   UNL     1     -11.891  11.963  69.555  1.00  0.00    -0.321 SA 
HETATM    4  N   UNL     1     -11.982  14.410  68.757  1.00  0.00    -0.316 NA 
HETATM    5  C   UNL     1     -12.581  13.120  70.627  1.00  0.00    -0.211 A  
HETATM    6  C   UNL     1     -12.535  14.378  70.024  1.00  0.00    -0.301 A  
HETATM    7  C   UNL     1     -13.126  12.929  71.908  1.00  0.00    -0.474 A  
HETATM    8  C   UNL     1     -13.046  15.487  70.729  1.00  0.00    -0.446 A  
HETATM    9  C   UNL     1     -13.638  14.044  72.580  1.00  0.00    -0.623 A  
HETATM   10  C   UNL     1     -13.597  15.309  72.001  1.00  0.00    -0.571 A  
ENDBRANCH   1   2
BRANCH   1  11
HETATM   11  S   UNL     1     -11.073  14.668  65.911  1.00  0.00    -0.344 SA 
BRANCH  11  12
HETATM   12  C   UNL     1      -9.520  15.416  66.255  1.00  0.00    -0.309 A  
HETATM   13  C   UNL     1      -5.273  16.233  67.868  1.00  0.00    -0.130 A  
HETATM   14  C   UNL     1      -5.508  17.555  67.507  1.00  0.00    -0.144 A  
HETATM   15  N   UNL     1      -8.511  14.745  66.764  1.00  0.00    -0.199 NA 
HETATM   16  C   UNL     1      -6.715  17.933  66.911  1.00  0.00    -0.209 A  
HETATM   17  C   UNL     1      -7.467  15.608  67.037  1.00  0.00    -0.193 A  
HETATM   18  C   UNL     1      -7.684  16.941  66.686  1.00  0.00    -0.263 A  
HETATM   19  C   UNL     1      -6.243  15.252  67.637  1.00  0.00    -0.155 A  
HETATM   20  S   UNL     1      -9.252  17.087  65.990  1.00  0.00    -0.065 SA 
ENDBRANCH  11  12
ENDBRANCH   1  11
TORSDOF 3
ENDMDL
MODEL       89
REMARK 921   NORMALIZED FREE ENERGY PREDICTED BY IDOCK:   -5.03 KCAL/MOL
REMARK 922        TOTAL FREE ENERGY PREDICTED BY IDOCK:   -6.22 KCAL/MOL
REMARK 923 INTER-LIGAND FREE ENERGY PREDICTED BY IDOCK:   -6.05 KCAL/MOL
REMARK 924 INTRA-LIGAND FREE ENERGY PREDICTED BY IDOCK:   -0.17 KCAL/MOL
REMARK 927      BINDING AFFINITY PREDICTED BY RF-SCORE:    0.00 PKD
ROOT
HETATM    1  S   UNL     1     -10.889   9.746  69.664  1.00  0.00    -0.256 SA 
ENDROOT
BRANCH   1   2
HETATM    2  C   UNL     1     -11.733  11.145  70.319  1.00  0.00    -0.341 A  
HETATM    3  S   UNL     1     -12.852  10.987  71.609  1.00  0.00    -0.382 SA 
HETATM    4  N   UNL     1     -11.540  12.367  69.873  1.00  0.00    -0.236 NA 
HETATM    5  C   UNL     1     -13.106  12.690  71.595  1.00  0.00    -0.323 A  
HETATM    6  C   UNL     1     -12.310  13.258  70.598  1.00  0.00    -0.339 A  
HETATM    7  C   UNL     1     -13.950  13.469  72.404  1.00  0.00    -0.638 A  
HETATM    8  C   UNL     1     -12.354  14.653  70.408  1.00  0.00    -0.399 A  
HETATM    9  C   UNL     1     -13.985  14.850  72.186  1.00  0.00    -0.598 A  
HETATM   10  C   UNL     1     -13.194  15.438  71.203  1.00  0.00    -0.583 A  
ENDBRANCH   1   2
BRANCH   1  11
HETATM   11  S   UNL     1     -11.006  10.158  67.645  1.00  0.00    -0.199 SA 
BRANCH  11  12
HETATM   12  C   UNL     1     -10.353   8.660  66.998  1.00  0.00    -0.298 A  
HETATM   13  C   UNL     1      -9.392   4.199  66.299  1.00  0.00    -0.173 A  
HETATM   14  C   UNL     1      -8.325   4.661  65.536  1.00  0.00    -0.118 A  
HETATM   15  N   UNL     1     -10.852   7.482  67.302  1.00  0.00    -0.280 NA 
HETATM   16  C   UNL     1      -8.105   6.031  65.362  1.00  0.00    -0.132 A  
HETATM   17  C   UNL     1     -10.070   6.487  66.749  1.00  0.00    -0.176 A  
HETATM   18  C   UNL     1      -8.991   6.929  65.981  1.00  0.00    -0.105 A  
HETATM   19  C   UNL     1     -10.270   5.102  66.908  1.00  0.00    -0.279 A  
HETATM   20  S   UNL     1      -8.985   8.650  65.967  1.00  0.00    -0.193 SA 
ENDBRANCH  11  12
ENDBRANCH   1  11
TORSDOF 3
ENDMDL
MODEL       90
REMARK 921   NORMALIZED FREE ENERGY PREDICTED BY IDOCK:   -5.03 KCAL/MOL
REMARK 922        TOTAL FREE ENERGY PREDICTED BY IDOCK:   -6.22 KCAL/MOL
REMARK 923 INTER-LIGAND FREE ENERGY PREDICTED BY IDOCK:   -6.44 KCAL/MOL
REMARK 924 INTRA-LIGAND FREE ENERGY PREDICTED BY IDOCK:    0.23 KCAL/MOL
REMARK 927      BINDING AFFINITY PREDICTED BY RF-SCORE:    0.00 PKD
ROOT
HETATM    1  S   UNL     1      -8.644  10.645  68.231  1.00  0.00    -0.133 SA 
ENDROOT
BRANCH   1   2
HETATM    2  C   UNL     1      -9.519  11.615  67.052  1.00  0.00    -0.182 A  
HETATM    3  S   UNL     1      -9.485  13.328  67.106  1.00  0.00    -0.248 SA 
HETATM    4  N   UNL     1     -10.221  11.085  66.074  1.00  0.00    -0.245 NA 
HETATM    5  C   UNL     1     -10.478  13.391  65.701  1.00  0.00    -0.290 A  
HETATM    6  C   UNL     1     -10.765  12.087  65.291  1.00  0.00    -0.288 A  
HETATM    7  C   UNL     1     -10.972  14.511  65.012  1.00  0.00    -0.408 A  
HETATM    8  C   UNL     1     -11.567  11.896  64.149  1.00  0.00    -0.434 A  
HETATM    9  C   UNL     1     -11.777  14.294  63.888  1.00  0.00    -0.061 A  
HETATM   10  C   UNL     1     -12.069  13.003  63.458  1.00  0.00    -0.617 A  
ENDBRANCH   1   2
BRANCH   1  11
HETATM   11  S   UNL     1     -10.151   9.385  68.864  1.00  0.00    -0.197 SA 
BRANCH  11  12
HETATM   12  C   UNL     1     -11.158  10.537  69.729  1.00  0.00    -0.295 A  
HETATM   13  C   UNL     1     -12.920  14.440  71.452  1.00  0.00    -0.405 A  
HETATM   14  C   UNL     1     -13.600  13.613  72.339  1.00  0.00    -0.703 A  
HETATM   15  N   UNL     1     -11.116  11.829  69.491  1.00  0.00    -0.183 NA 
HETATM   16  C   UNL     1     -13.459  12.224  72.279  1.00  0.00    -0.365 A  
HETATM   17  C   UNL     1     -11.920  12.497  70.395  1.00  0.00    -0.251 A  
HETATM   18  C   UNL     1     -12.609  11.685  71.298  1.00  0.00    -0.320 A  
HETATM   19  C   UNL     1     -12.080  13.894  70.476  1.00  0.00    -0.426 A  
HETATM   20  S   UNL     1     -12.221  10.039  70.976  1.00  0.00    -0.394 SA 
ENDBRANCH  11  12
ENDBRANCH   1  11
TORSDOF 3
ENDMDL
MODEL       91
REMARK 921   NORMALIZED FREE ENERGY PREDICTED BY IDOCK:   -5.01 KCAL/MOL
REMARK 922        TOTAL FREE ENERGY PREDICTED BY IDOCK:   -6.19 KCAL/MOL
REMARK 923 INTER-LIGAND FREE ENERGY PREDICTED BY IDOCK:   -6.16 KCAL/MOL
REMARK 924 INTRA-LIGAND FREE ENERGY PREDICTED BY IDOCK:   -0.03 KCAL/MOL
REMARK 927      BINDING AFFINITY PREDICTED BY RF-SCORE:    0.00 PKD
ROOT
HETATM    1  S   UNL     1     -11.837  13.396  66.606  1.00  0.00    -0.399 SA 
ENDROOT
BRANCH   1   2
HETATM    2  C   UNL     1     -10.927  12.363  65.510  1.00  0.00    -0.293 A  
HETATM    3  S   UNL     1     -11.107  12.490  63.810  1.00  0.00    -0.467 SA 
HETATM    4  N   UNL     1     -10.064  11.465  65.930  1.00  0.00    -0.233 NA 
HETATM    5  C   UNL     1      -9.928  11.254  63.594  1.00  0.00    -0.359 A  
HETATM    6  C   UNL     1      -9.480  10.833  64.848  1.00  0.00    -0.242 A  
HETATM    7  C   UNL     1      -9.436  10.694  62.403  1.00  0.00    -0.240 A  
HETATM    8  C   UNL     1      -8.501   9.821  64.913  1.00  0.00    -0.165 A  
HETATM    9  C   UNL     1      -8.474   9.683  62.496  1.00  0.00    -0.184 A  
HETATM   10  C   UNL     1      -8.008   9.252  63.735  1.00  0.00    -0.142 A  
ENDBRANCH   1   2
BRANCH   1  11
HETATM   11  S   UNL     1     -10.522  13.497  68.194  1.00  0.00    -0.250 SA 
BRANCH  11  12
HETATM   12  C   UNL     1     -11.104  12.141  69.148  1.00  0.00    -0.205 A  
HETATM   13  C   UNL     1     -13.208   9.584  72.365  1.00  0.00    -0.451 A  
HETATM   14  C   UNL     1     -12.363   8.561  71.949  1.00  0.00    -0.407 A  
HETATM   15  N   UNL     1     -12.080  12.258  70.022  1.00  0.00    -0.303 NA 
HETATM   16  C   UNL     1     -11.446   8.763  70.913  1.00  0.00    -0.330 A  
HETATM   17  C   UNL     1     -12.241  11.068  70.704  1.00  0.00    -0.385 A  
HETATM   18  C   UNL     1     -11.400  10.029  70.305  1.00  0.00    -0.308 A  
HETATM   19  C   UNL     1     -13.157  10.839  71.750  1.00  0.00    -0.573 A  
HETATM   20  S   UNL     1     -10.389  10.588  69.028  1.00  0.00    -0.225 SA 
ENDBRANCH  11  12
ENDBRANCH   1  11
TORSDOF 3
ENDMDL
MODEL       92
REMARK 921   NORMALIZED FREE ENERGY PREDICTED BY IDOCK:   -4.99 KCAL/MOL
REMARK 922        TOTAL FREE ENERGY PREDICTED BY IDOCK:   -6.17 KCAL/MOL
REMARK 923 INTER-LIGAND FREE ENERGY PREDICTED BY IDOCK:   -5.87 KCAL/MOL
REMARK 924 INTRA-LIGAND FREE ENERGY PREDICTED BY IDOCK:   -0.30 KCAL/MOL
REMARK 927      BINDING AFFINITY PREDICTED BY RF-SCORE:    0.00 PKD
ROOT
HETATM    1  S   UNL     1     -10.463  13.253  66.763  1.00  0.00    -0.272 SA 
ENDROOT
BRANCH   1   2
HETATM    2  C   UNL     1      -9.903  11.626  67.133  1.00  0.00    -0.188 A  
HETATM    3  S   UNL     1      -8.566  11.358  68.172  1.00  0.00    -0.159 SA 
HETATM    4  N   UNL     1     -10.482  10.547  66.653  1.00  0.00    -0.242 NA 
HETATM    5  C   UNL     1      -8.766   9.658  67.989  1.00  0.00    -0.119 A  
HETATM    6  C   UNL     1      -9.849   9.419  67.141  1.00  0.00    -0.187 A  
HETATM    7  C   UNL     1      -8.019   8.610  68.551  1.00  0.00    -0.116 A  
HETATM    8  C   UNL     1     -10.202   8.086  66.850  1.00  0.00    -0.385 A  
HETATM    9  C   UNL     1      -8.381   7.296  68.237  1.00  0.00    -0.125 A  
HETATM   10  C   UNL     1      -9.462   7.035  67.399  1.00  0.00    -0.155 A  
ENDBRANCH   1   2
BRANCH   1  11
HETATM   11  S   UNL     1      -9.381  14.338  68.146  1.00  0.00    -0.212 SA 
BRANCH  11  12
HETATM   12  C   UNL     1     -10.640  14.647  69.332  1.00  0.00    -0.196 A  
HETATM   13  C   UNL     1     -12.908  16.044  73.102  1.00  0.00    -0.620 A  
HETATM   14  C   UNL     1     -13.901  15.155  72.702  1.00  0.00    -0.567 A  
HETATM   15  N   UNL     1     -10.490  15.511  70.312  1.00  0.00    -0.309 NA 
HETATM   16  C   UNL     1     -13.762  14.404  71.531  1.00  0.00    -0.458 A  
HETATM   17  C   UNL     1     -11.586  15.458  71.152  1.00  0.00    -0.377 A  
HETATM   18  C   UNL     1     -12.592  14.569  70.771  1.00  0.00    -0.351 A  
HETATM   19  C   UNL     1     -11.749  16.204  72.336  1.00  0.00    -0.550 A  
HETATM   20  S   UNL     1     -12.125  13.793  69.306  1.00  0.00    -0.280 SA 
ENDBRANCH  11  12
ENDBRANCH   1  11
TORSDOF 3
ENDMDL
MODEL       93
REMARK 921   NORMALIZED FREE ENERGY PREDICTED BY IDOCK:   -4.98 KCAL/MOL
REMARK 922        TOTAL FREE ENERGY PREDICTED BY IDOCK:   -6.16 KCAL/MOL
REMARK 923 INTER-LIGAND FREE ENERGY PREDICTED BY IDOCK:   -6.00 KCAL/MOL
REMARK 924 INTRA-LIGAND FREE ENERGY PREDICTED BY IDOCK:   -0.16 KCAL/MOL
REMARK 927      BINDING AFFINITY PREDICTED BY RF-SCORE:    0.00 PKD
ROOT
HETATM    1  S   UNL     1     -10.528   9.254  69.787  1.00  0.00    -0.232 SA 
ENDROOT
BRANCH   1   2
HETATM    2  C   UNL     1     -10.162   7.959  68.654  1.00  0.00    -0.205 A  
HETATM    3  S   UNL     1     -10.866   6.404  68.819  1.00  0.00    -0.331 SA 
HETATM    4  N   UNL     1      -9.355   8.117  67.627  1.00  0.00    -0.139 NA 
HETATM    5  C   UNL     1     -10.045   5.882  67.399  1.00  0.00    -0.169 A  
HETATM    6  C   UNL     1      -9.287   6.943  66.899  1.00  0.00    -0.148 A  
HETATM    7  C   UNL     1     -10.065   4.625  66.773  1.00  0.00    -0.246 A  
HETATM    8  C   UNL     1      -8.529   6.743  65.728  1.00  0.00    -0.150 A  
HETATM    9  C   UNL     1      -9.294   4.448  65.619  1.00  0.00    -0.161 A  
HETATM   10  C   UNL     1      -8.537   5.494  65.099  1.00  0.00    -0.141 A  
ENDBRANCH   1   2
BRANCH   1  11
HETATM   11  S   UNL     1     -10.930  10.793  68.470  1.00  0.00    -0.265 SA 
BRANCH  11  12
HETATM   12  C   UNL     1     -11.770  11.896  69.550  1.00  0.00    -0.345 A  
HETATM   13  C   UNL     1     -13.181  15.698  71.755  1.00  0.00    -0.548 A  
HETATM   14  C   UNL     1     -13.722  14.823  72.691  1.00  0.00    -0.547 A  
HETATM   15  N   UNL     1     -11.749  13.200  69.384  1.00  0.00    -0.312 NA 
HETATM   16  C   UNL     1     -13.611  13.439  72.528  1.00  0.00    -0.659 A  
HETATM   17  C   UNL     1     -12.389  13.816  70.442  1.00  0.00    -0.353 A  
HETATM   18  C   UNL     1     -12.936  12.955  71.395  1.00  0.00    -0.270 A  
HETATM   19  C   UNL     1     -12.515  15.206  70.627  1.00  0.00    -0.442 A  
HETATM   20  S   UNL     1     -12.627  11.329  70.921  1.00  0.00    -0.338 SA 
ENDBRANCH  11  12
ENDBRANCH   1  11
TORSDOF 3
ENDMDL
MODEL       94
REMARK 921   NORMALIZED FREE ENERGY PREDICTED BY IDOCK:   -4.97 KCAL/MOL
REMARK 922        TOTAL FREE ENERGY PREDICTED BY IDOCK:   -6.14 KCAL/MOL
REMARK 923 INTER-LIGAND FREE ENERGY PREDICTED BY IDOCK:   -5.95 KCAL/MOL
REMARK 924 INTRA-LIGAND FREE ENERGY PREDICTED BY IDOCK:   -0.20 KCAL/MOL
REMARK 927      BINDING AFFINITY PREDICTED BY RF-SCORE:    0.00 PKD
ROOT
HETATM    1  S   UNL     1     -11.732  15.100  67.971  1.00  0.00    -0.203 SA 
ENDROOT
BRANCH   1   2
HETATM    2  C   UNL     1     -11.272  13.495  67.415  1.00  0.00    -0.295 A  
HETATM    3  S   UNL     1     -10.652  13.243  65.837  1.00  0.00    -0.286 SA 
HETATM    4  N   UNL     1     -11.363  12.425  68.174  1.00  0.00    -0.267 NA 
HETATM    5  C   UNL     1     -10.470  11.565  66.178  1.00  0.00    -0.251 A  
HETATM    6  C   UNL     1     -10.900  11.320  67.484  1.00  0.00    -0.245 A  
HETATM    7  C   UNL     1      -9.985  10.538  65.351  1.00  0.00    -0.353 A  
HETATM    8  C   UNL     1     -10.836  10.004  67.983  1.00  0.00    -0.311 A  
HETATM    9  C   UNL     1      -9.945   9.238  65.866  1.00  0.00    -0.289 A  
HETATM   10  C   UNL     1     -10.361   8.972  67.167  1.00  0.00    -0.342 A  
ENDBRANCH   1   2
BRANCH   1  11
HETATM   11  S   UNL     1     -10.269  15.433  69.387  1.00  0.00    -0.277 SA 
BRANCH  11  12
HETATM   12  C   UNL     1      -9.491  16.845  68.685  1.00  0.00    -0.268 A  
HETATM   13  C   UNL     1      -6.428  20.134  67.635  1.00  0.00    -0.266 A  
HETATM   14  C   UNL     1      -7.515  20.830  67.118  1.00  0.00    -0.366 A  
HETATM   15  N   UNL     1      -8.195  17.048  68.762  1.00  0.00    -0.258 NA 
HETATM   16  C   UNL     1      -8.800  20.279  67.146  1.00  0.00    -0.446 A  
HETATM   17  C   UNL     1      -7.884  18.286  68.232  1.00  0.00    -0.298 A  
HETATM   18  C   UNL     1      -8.962  19.003  67.711  1.00  0.00    -0.293 A  
HETATM   19  C   UNL     1      -6.599  18.862  68.192  1.00  0.00    -0.242 A  
HETATM   20  S   UNL     1     -10.397  18.069  67.901  1.00  0.00    -0.395 SA 
ENDBRANCH  11  12
ENDBRANCH   1  11
TORSDOF 3
ENDMDL
MODEL       95
REMARK 921   NORMALIZED FREE ENERGY PREDICTED BY IDOCK:   -4.94 KCAL/MOL
REMARK 922        TOTAL FREE ENERGY PREDICTED BY IDOCK:   -6.11 KCAL/MOL
REMARK 923 INTER-LIGAND FREE ENERGY PREDICTED BY IDOCK:   -5.95 KCAL/MOL
REMARK 924 INTRA-LIGAND FREE ENERGY PREDICTED BY IDOCK:   -0.16 KCAL/MOL
REMARK 927      BINDING AFFINITY PREDICTED BY RF-SCORE:    0.00 PKD
ROOT
HETATM    1  S   UNL     1     -11.745  12.417  68.963  1.00  0.00    -0.316 SA 
ENDROOT
BRANCH   1   2
HETATM    2  C   UNL     1     -11.319  13.945  68.201  1.00  0.00    -0.295 A  
HETATM    3  S   UNL     1     -10.985  14.041  66.522  1.00  0.00    -0.310 SA 
HETATM    4  N   UNL     1     -11.252  15.078  68.865  1.00  0.00    -0.261 NA 
HETATM    5  C   UNL     1     -10.737  15.738  66.669  1.00  0.00    -0.287 A  
HETATM    6  C   UNL     1     -10.931  16.109  68.002  1.00  0.00    -0.338 A  
HETATM    7  C   UNL     1     -10.394  16.675  65.681  1.00  0.00    -0.310 A  
HETATM    8  C   UNL     1     -10.782  17.465  68.356  1.00  0.00    -0.301 A  
HETATM    9  C   UNL     1     -10.241  18.012  66.061  1.00  0.00    -0.304 A  
HETATM   10  C   UNL     1     -10.435  18.405  67.382  1.00  0.00    -0.443 A  
ENDBRANCH   1   2
BRANCH   1  11
HETATM   11  S   UNL     1     -10.051  11.313  68.548  1.00  0.00    -0.208 SA 
BRANCH  11  12
HETATM   12  C   UNL     1     -10.431   9.842  69.432  1.00  0.00    -0.231 A  
HETATM   13  C   UNL     1     -11.237   6.806  72.815  1.00  0.00    -0.267 A  
HETATM   14  C   UNL     1     -11.068   5.834  71.834  1.00  0.00    -0.308 A  
HETATM   15  N   UNL     1     -10.738   9.846  70.710  1.00  0.00    -0.309 NA 
HETATM   16  C   UNL     1     -10.797   6.189  70.510  1.00  0.00    -0.364 A  
HETATM   17  C   UNL     1     -10.869   8.547  71.163  1.00  0.00    -0.243 A  
HETATM   18  C   UNL     1     -10.699   7.555  70.195  1.00  0.00    -0.239 A  
HETATM   19  C   UNL     1     -11.142   8.164  72.490  1.00  0.00    -0.446 A  
HETATM   20  S   UNL     1     -10.371   8.304  68.680  1.00  0.00    -0.174 SA 
ENDBRANCH  11  12
ENDBRANCH   1  11
TORSDOF 3
ENDMDL
MODEL       96
REMARK 921   NORMALIZED FREE ENERGY PREDICTED BY IDOCK:   -4.92 KCAL/MOL
REMARK 922        TOTAL FREE ENERGY PREDICTED BY IDOCK:   -6.09 KCAL/MOL
REMARK 923 INTER-LIGAND FREE ENERGY PREDICTED BY IDOCK:   -5.90 KCAL/MOL
REMARK 924 INTRA-LIGAND FREE ENERGY PREDICTED BY IDOCK:   -0.19 KCAL/MOL
REMARK 927      BINDING AFFINITY PREDICTED BY RF-SCORE:    0.00 PKD
ROOT
HETATM    1  S   UNL     1     -11.624  14.470  67.399  1.00  0.00    -0.395 SA 
ENDROOT
BRANCH   1   2
HETATM    2  C   UNL     1     -10.634  15.909  67.611  1.00  0.00    -0.307 A  
HETATM    3  S   UNL     1      -9.284  15.914  68.668  1.00  0.00    -0.221 SA 
HETATM    4  N   UNL     1     -10.864  17.033  66.968  1.00  0.00    -0.131 NA 
HETATM    5  C   UNL     1      -8.954  17.548  68.236  1.00  0.00    -0.267 A  
HETATM    6  C   UNL     1      -9.907  17.972  67.309  1.00  0.00    -0.306 A  
HETATM    7  C   UNL     1      -7.928  18.395  68.687  1.00  0.00    -0.317 A  
HETATM    8  C   UNL     1      -9.829  19.287  66.809  1.00  0.00    -0.430 A  
HETATM    9  C   UNL     1      -7.880  19.700  68.184  1.00  0.00    -0.346 A  
HETATM   10  C   UNL     1      -8.816  20.142  67.254  1.00  0.00    -0.445 A  
ENDBRANCH   1   2
BRANCH   1  11
HETATM   11  S   UNL     1     -11.617  13.730  69.326  1.00  0.00    -0.331 SA 
BRANCH  11  12
HETATM   12  C   UNL     1     -11.372  12.023  68.988  1.00  0.00    -0.275 A  
HETATM   13  C   UNL     1     -10.522   7.508  69.443  1.00  0.00    -0.222 A  
HETATM   14  C   UNL     1     -10.333   7.516  68.065  1.00  0.00    -0.254 A  
HETATM   15  N   UNL     1     -11.361  11.110  69.934  1.00  0.00    -0.279 NA 
HETATM   16  C   UNL     1     -10.484   8.693  67.326  1.00  0.00    -0.360 A  
HETATM   17  C   UNL     1     -11.030   9.882  69.394  1.00  0.00    -0.230 A  
HETATM   18  C   UNL     1     -10.832   9.868  68.012  1.00  0.00    -0.243 A  
HETATM   19  C   UNL     1     -10.872   8.683  70.117  1.00  0.00    -0.242 A  
HETATM   20  S   UNL     1     -11.079  11.457  67.397  1.00  0.00    -0.299 SA 
ENDBRANCH  11  12
ENDBRANCH   1  11
TORSDOF 3
ENDMDL
MODEL       97
REMARK 921   NORMALIZED FREE ENERGY PREDICTED BY IDOCK:   -4.92 KCAL/MOL
REMARK 922        TOTAL FREE ENERGY PREDICTED BY IDOCK:   -6.09 KCAL/MOL
REMARK 923 INTER-LIGAND FREE ENERGY PREDICTED BY IDOCK:   -5.84 KCAL/MOL
REMARK 924 INTRA-LIGAND FREE ENERGY PREDICTED BY IDOCK:   -0.25 KCAL/MOL
REMARK 927      BINDING AFFINITY PREDICTED BY RF-SCORE:    0.00 PKD
ROOT
HETATM    1  S   UNL     1     -11.585  12.367  66.050  1.00  0.00    -0.400 SA 
ENDROOT
BRANCH   1   2
HETATM    2  C   UNL     1     -10.408  11.106  65.703  1.00  0.00    -0.254 A  
HETATM    3  S   UNL     1     -10.086   9.853  66.829  1.00  0.00    -0.234 SA 
HETATM    4  N   UNL     1      -9.736  11.049  64.574  1.00  0.00    -0.253 NA 
HETATM    5  C   UNL     1      -8.962   9.154  65.728  1.00  0.00    -0.193 A  
HETATM    6  C   UNL     1      -8.916   9.936  64.572  1.00  0.00    -0.234 A  
HETATM    7  C   UNL     1      -8.175   8.000  65.875  1.00  0.00    -0.127 A  
HETATM    8  C   UNL     1      -8.058   9.546  63.524  1.00  0.00    -0.151 A  
HETATM    9  C   UNL     1      -7.322   7.642  64.825  1.00  0.00    -0.076 A  
HETATM   10  C   UNL     1      -7.265   8.403  63.661  1.00  0.00    -0.095 A  
ENDBRANCH   1   2
BRANCH   1  11
HETATM   11  S   UNL     1     -10.441  13.627  67.219  1.00  0.00    -0.260 SA 
BRANCH  11  12
HETATM   12  C   UNL     1     -11.411  13.633  68.685  1.00  0.00    -0.307 A  
HETATM   13  C   UNL     1     -13.651  14.975  72.492  1.00  0.00    -0.569 A  
HETATM   14  C   UNL     1     -13.681  13.623  72.819  1.00  0.00    -0.354 A  
HETATM   15  N   UNL     1     -11.875  14.741  69.220  1.00  0.00    -0.310 NA 
HETATM   16  C   UNL     1     -13.125  12.665  71.966  1.00  0.00    -0.471 A  
HETATM   17  C   UNL     1     -12.495  14.456  70.421  1.00  0.00    -0.357 A  
HETATM   18  C   UNL     1     -12.533  13.105  70.770  1.00  0.00    -0.308 A  
HETATM   19  C   UNL     1     -13.063  15.402  71.297  1.00  0.00    -0.564 A  
HETATM   20  S   UNL     1     -11.764  12.187  69.533  1.00  0.00    -0.320 SA 
ENDBRANCH  11  12
ENDBRANCH   1  11
TORSDOF 3
ENDMDL
MODEL       98
REMARK 921   NORMALIZED FREE ENERGY PREDICTED BY IDOCK:   -4.92 KCAL/MOL
REMARK 922        TOTAL FREE ENERGY PREDICTED BY IDOCK:   -6.09 KCAL/MOL
REMARK 923 INTER-LIGAND FREE ENERGY PREDICTED BY IDOCK:   -5.80 KCAL/MOL
REMARK 924 INTRA-LIGAND FREE ENERGY PREDICTED BY IDOCK:   -0.29 KCAL/MOL
REMARK 927      BINDING AFFINITY PREDICTED BY RF-SCORE:    0.00 PKD
ROOT
HETATM    1  S   UNL     1      -7.591  11.245  67.389  1.00  0.00    -0.127 SA 
ENDROOT
BRANCH   1   2
HETATM    2  C   UNL     1      -8.839  12.065  66.458  1.00  0.00    -0.172 A  
HETATM    3  S   UNL     1      -9.270  13.692  66.785  1.00  0.00    -0.212 SA 
HETATM    4  N   UNL     1      -9.485  11.489  65.468  1.00  0.00    -0.225 NA 
HETATM    5  C   UNL     1     -10.409  13.649  65.496  1.00  0.00    -0.309 A  
HETATM    6  C   UNL     1     -10.376  12.384  64.905  1.00  0.00    -0.293 A  
HETATM    7  C   UNL     1     -11.273  14.658  65.040  1.00  0.00    -0.388 A  
HETATM    8  C   UNL     1     -11.231  12.121  63.817  1.00  0.00    -0.509 A  
HETATM    9  C   UNL     1     -12.121  14.367  63.966  1.00  0.00    -0.312 A  
HETATM   10  C   UNL     1     -12.099  13.116  63.357  1.00  0.00    -0.558 A  
ENDBRANCH   1   2
BRANCH   1  11
HETATM   11  S   UNL     1      -8.045   9.277  66.959  1.00  0.00    -0.112 SA 
BRANCH  11  12
HETATM   12  C   UNL     1      -9.119   8.919  68.303  1.00  0.00    -0.140 A  
HETATM   13  C   UNL     1     -12.188   6.875  71.079  1.00  0.00    -0.427 A  
HETATM   14  C   UNL     1     -12.288   8.115  71.702  1.00  0.00    -0.347 A  
HETATM   15  N   UNL     1      -9.638   7.726  68.494  1.00  0.00    -0.148 NA 
HETATM   16  C   UNL     1     -11.521   9.200  71.268  1.00  0.00    -0.405 A  
HETATM   17  C   UNL     1     -10.530   7.768  69.548  1.00  0.00    -0.225 A  
HETATM   18  C   UNL     1     -10.648   9.005  70.184  1.00  0.00    -0.224 A  
HETATM   19  C   UNL     1     -11.313   6.690  70.004  1.00  0.00    -0.440 A  
HETATM   20  S   UNL     1      -9.592  10.129  69.419  1.00  0.00    -0.225 SA 
ENDBRANCH  11  12
ENDBRANCH   1  11
TORSDOF 3
ENDMDL
MODEL       99
REMARK 921   NORMALIZED FREE ENERGY PREDICTED BY IDOCK:   -4.90 KCAL/MOL
REMARK 922        TOTAL FREE ENERGY PREDICTED BY IDOCK:   -6.07 KCAL/MOL
REMARK 923 INTER-LIGAND FREE ENERGY PREDICTED BY IDOCK:   -5.73 KCAL/MOL
REMARK 924 INTRA-LIGAND FREE ENERGY PREDICTED BY IDOCK:   -0.34 KCAL/MOL
REMARK 927      BINDING AFFINITY PREDICTED BY RF-SCORE:    0.00 PKD
ROOT
HETATM    1  S   UNL     1      -8.503   9.560  67.194  1.00  0.00    -0.132 SA 
ENDROOT
BRANCH   1   2
HETATM    2  C   UNL     1      -9.563   9.016  68.488  1.00  0.00    -0.153 A  
HETATM    3  S   UNL     1      -9.641   7.365  68.943  1.00  0.00    -0.149 SA 
HETATM    4  N   UNL     1     -10.328   9.837  69.175  1.00  0.00    -0.200 NA 
HETATM    5  C   UNL     1     -10.781   7.758  70.172  1.00  0.00    -0.240 A  
HETATM    6  C   UNL     1     -11.019   9.134  70.144  1.00  0.00    -0.239 A  
HETATM    7  C   UNL     1     -11.421   6.912  71.093  1.00  0.00    -0.347 A  
HETATM    8  C   UNL     1     -11.924   9.684  71.074  1.00  0.00    -0.427 A  
HETATM    9  C   UNL     1     -12.324   7.482  71.996  1.00  0.00    -0.305 A  
HETATM   10  C   UNL     1     -12.572   8.852  71.991  1.00  0.00    -0.460 A  
ENDBRANCH   1   2
BRANCH   1  11
HETATM   11  S   UNL     1      -9.882   9.857  65.687  1.00  0.00    -0.288 SA 
BRANCH  11  12
HETATM   12  C   UNL     1     -10.060  11.602  65.787  1.00  0.00    -0.240 A  
HETATM   13  C   UNL     1     -11.157  15.990  64.860  1.00  0.00    -0.381 A  
HETATM   14  C   UNL     1     -10.219  16.316  65.833  1.00  0.00    -0.384 A  
HETATM   15  N   UNL     1     -10.895  12.272  65.023  1.00  0.00    -0.287 NA 
HETATM   16  C   UNL     1      -9.523  15.318  66.523  1.00  0.00    -0.308 A  
HETATM   17  C   UNL     1     -10.736  13.628  65.234  1.00  0.00    -0.336 A  
HETATM   18  C   UNL     1      -9.796  13.977  66.205  1.00  0.00    -0.305 A  
HETATM   19  C   UNL     1     -11.424  14.651  64.553  1.00  0.00    -0.340 A  
HETATM   20  S   UNL     1      -9.109  12.541  66.860  1.00  0.00    -0.210 SA 
ENDBRANCH  11  12
ENDBRANCH   1  11
TORSDOF 3
ENDMDL
MODEL      100
REMARK 921   NORMALIZED FREE ENERGY PREDICTED BY IDOCK:   -4.90 KCAL/MOL
REMARK 922        TOTAL FREE ENERGY PREDICTED BY IDOCK:   -6.07 KCAL/MOL
REMARK 923 INTER-LIGAND FREE ENERGY PREDICTED BY IDOCK:   -5.89 KCAL/MOL
REMARK 924 INTRA-LIGAND FREE ENERGY PREDICTED BY IDOCK:   -0.17 KCAL/MOL
REMARK 927      BINDING AFFINITY PREDICTED BY RF-SCORE:    0.00 PKD
ROOT
HETATM    1  S   UNL     1      -9.254  15.319  68.413  1.00  0.00    -0.200 SA 
ENDROOT
BRANCH   1   2
HETATM    2  C   UNL     1      -9.895  14.373  67.075  1.00  0.00    -0.252 A  
HETATM    3  S   UNL     1      -9.428  12.741  66.832  1.00  0.00    -0.240 SA 
HETATM    4  N   UNL     1     -10.765  14.855  66.214  1.00  0.00    -0.312 NA 
HETATM    5  C   UNL     1     -10.476  12.645  65.470  1.00  0.00    -0.281 A  
HETATM    6  C   UNL     1     -11.111  13.876  65.300  1.00  0.00    -0.318 A  
HETATM    7  C   UNL     1     -10.718  11.560  64.611  1.00  0.00    -0.379 A  
HETATM    8  C   UNL     1     -12.025  14.027  64.238  1.00  0.00    -0.463 A  
HETATM    9  C   UNL     1     -11.620  11.740  63.557  1.00  0.00    -0.487 A  
HETATM   10  C   UNL     1     -12.269  12.957  63.372  1.00  0.00    -0.574 A  
ENDBRANCH   1   2
BRANCH   1  11
HETATM   11  S   UNL     1      -7.231  15.001  68.154  1.00  0.00    -0.130 SA 
BRANCH  11  12
HETATM   12  C   UNL     1      -6.631  16.620  68.482  1.00  0.00    -0.142 A  
HETATM   13  C   UNL     1      -5.246  20.466  70.627  1.00  0.00    -0.308 A  
HETATM   14  C   UNL     1      -5.392  21.079  69.387  1.00  0.00    -0.376 A  
HETATM   15  N   UNL     1      -6.225  16.994  69.675  1.00  0.00    -0.236 NA 
HETATM   16  C   UNL     1      -5.803  20.349  68.268  1.00  0.00    -0.307 A  
HETATM   17  C   UNL     1      -5.924  18.342  69.664  1.00  0.00    -0.257 A  
HETATM   18  C   UNL     1      -6.067  18.979  68.430  1.00  0.00    -0.220 A  
HETATM   19  C   UNL     1      -5.507  19.099  70.776  1.00  0.00    -0.242 A  
HETATM   20  S   UNL     1      -6.592  17.825  67.265  1.00  0.00    -0.169 SA 
ENDBRANCH  11  12
ENDBRANCH   1  11
TORSDOF 3
ENDMDL
MODEL      101
REMARK 921   NORMALIZED FREE ENERGY PREDICTED BY IDOCK:   -4.88 KCAL/MOL
REMARK 922        TOTAL FREE ENERGY PREDICTED BY IDOCK:   -6.04 KCAL/MOL
REMARK 923 INTER-LIGAND FREE ENERGY PREDICTED BY IDOCK:   -5.67 KCAL/MOL
REMARK 924 INTRA-LIGAND FREE ENERGY PREDICTED BY IDOCK:   -0.37 KCAL/MOL
REMARK 927      BINDING AFFINITY PREDICTED BY RF-SCORE:    0.00 PKD
ROOT
HETATM    1  S   UNL     1      -7.955  14.697  68.924  1.00  0.00    -0.130 SA 
ENDROOT
BRANCH   1   2
HETATM    2  C   UNL     1      -8.325  13.180  68.111  1.00  0.00    -0.161 A  
HETATM    3  S   UNL     1      -7.684  11.691  68.668  1.00  0.00    -0.114 SA 
HETATM    4  N   UNL     1      -9.115  13.109  67.062  1.00  0.00    -0.225 NA 
HETATM    5  C   UNL     1      -8.531  10.861  67.419  1.00  0.00    -0.120 A  
HETATM    6  C   UNL     1      -9.247  11.791  66.663  1.00  0.00    -0.198 A  
HETATM    7  C   UNL     1      -8.558   9.488  67.125  1.00  0.00    -0.133 A  
HETATM    8  C   UNL     1     -10.023  11.332  65.581  1.00  0.00    -0.292 A  
HETATM    9  C   UNL     1      -9.326   9.059  66.038  1.00  0.00    -0.305 A  
HETATM   10  C   UNL     1     -10.054   9.968  65.275  1.00  0.00    -0.299 A  
ENDBRANCH   1   2
BRANCH   1  11
HETATM   11  S   UNL     1      -9.351  15.937  68.045  1.00  0.00    -0.201 SA 
BRANCH  11  12
HETATM   12  C   UNL     1     -10.653  15.796  69.217  1.00  0.00    -0.244 A  
HETATM   13  C   UNL     1     -13.096  15.865  73.134  1.00  0.00    -0.673 A  
HETATM   14  C   UNL     1     -14.008  15.067  72.451  1.00  0.00    -0.593 A  
HETATM   15  N   UNL     1     -10.590  16.343  70.411  1.00  0.00    -0.044 NA 
HETATM   16  C   UNL     1     -13.788  14.704  71.119  1.00  0.00    -0.340 A  
HETATM   17  C   UNL     1     -11.694  15.970  71.154  1.00  0.00    -0.439 A  
HETATM   18  C   UNL     1     -12.620  15.165  70.489  1.00  0.00    -0.380 A  
HETATM   19  C   UNL     1     -11.938  16.323  72.496  1.00  0.00    -0.648 A  
HETATM   20  S   UNL     1     -12.066  14.888  68.882  1.00  0.00    -0.135 SA 
ENDBRANCH  11  12
ENDBRANCH   1  11
TORSDOF 3
ENDMDL
MODEL      102
REMARK 921   NORMALIZED FREE ENERGY PREDICTED BY IDOCK:   -4.84 KCAL/MOL
REMARK 922        TOTAL FREE ENERGY PREDICTED BY IDOCK:   -6.00 KCAL/MOL
REMARK 923 INTER-LIGAND FREE ENERGY PREDICTED BY IDOCK:   -5.70 KCAL/MOL
REMARK 924 INTRA-LIGAND FREE ENERGY PREDICTED BY IDOCK:   -0.29 KCAL/MOL
REMARK 927      BINDING AFFINITY PREDICTED BY RF-SCORE:    0.00 PKD
ROOT
HETATM    1  S   UNL     1     -11.462  11.861  65.139  1.00  0.00    -0.189 SA 
ENDROOT
BRANCH   1   2
HETATM    2  C   UNL     1     -11.187  13.401  65.944  1.00  0.00    -0.300 A  
HETATM    3  S   UNL     1     -11.976  13.793  67.415  1.00  0.00    -0.357 SA 
HETATM    4  N   UNL     1     -10.361  14.312  65.476  1.00  0.00    -0.335 NA 
HETATM    5  C   UNL     1     -11.149  15.302  67.456  1.00  0.00    -0.324 A  
HETATM    6  C   UNL     1     -10.324  15.396  66.334  1.00  0.00    -0.296 A  
HETATM    7  C   UNL     1     -11.226  16.331  68.409  1.00  0.00    -0.349 A  
HETATM    8  C   UNL     1      -9.543  16.556  66.162  1.00  0.00    -0.344 A  
HETATM    9  C   UNL     1     -10.450  17.478  68.208  1.00  0.00    -0.383 A  
HETATM   10  C   UNL     1      -9.615  17.590  67.100  1.00  0.00    -0.262 A  
ENDBRANCH   1   2
BRANCH   1  11
HETATM   11  S   UNL     1      -9.564  11.054  65.228  1.00  0.00    -0.240 SA 
BRANCH  11  12
HETATM   12  C   UNL     1      -9.814   9.842  66.475  1.00  0.00    -0.225 A  
HETATM   13  C   UNL     1     -11.008   5.979  68.703  1.00  0.00    -0.361 A  
HETATM   14  C   UNL     1     -10.847   6.728  69.864  1.00  0.00    -0.310 A  
HETATM   15  N   UNL     1     -10.113   8.592  66.196  1.00  0.00    -0.170 NA 
HETATM   16  C   UNL     1     -10.448   8.067  69.805  1.00  0.00    -0.227 A  
HETATM   17  C   UNL     1     -10.368   7.901  67.365  1.00  0.00    -0.279 A  
HETATM   18  C   UNL     1     -10.216   8.636  68.542  1.00  0.00    -0.195 A  
HETATM   19  C   UNL     1     -10.770   6.554  67.450  1.00  0.00    -0.412 A  
HETATM   20  S   UNL     1      -9.733  10.239  68.140  1.00  0.00    -0.146 SA 
ENDBRANCH  11  12
ENDBRANCH   1  11
TORSDOF 3
ENDMDL
MODEL      103
REMARK 921   NORMALIZED FREE ENERGY PREDICTED BY IDOCK:   -4.84 KCAL/MOL
REMARK 922        TOTAL FREE ENERGY PREDICTED BY IDOCK:   -5.99 KCAL/MOL
REMARK 923 INTER-LIGAND FREE ENERGY PREDICTED BY IDOCK:   -5.76 KCAL/MOL
REMARK 924 INTRA-LIGAND FREE ENERGY PREDICTED BY IDOCK:   -0.23 KCAL/MOL
REMARK 927      BINDING AFFINITY PREDICTED BY RF-SCORE:    0.00 PKD
ROOT
HETATM    1  S   UNL     1      -9.341  10.018  69.091  1.00  0.00    -0.204 SA 
ENDROOT
BRANCH   1   2
HETATM    2  C   UNL     1      -9.159   9.762  67.359  1.00  0.00    -0.134 A  
HETATM    3  S   UNL     1      -9.856  10.837  66.221  1.00  0.00    -0.223 SA 
HETATM    4  N   UNL     1      -8.475   8.757  66.856  1.00  0.00    -0.111 NA 
HETATM    5  C   UNL     1      -9.190   9.907  64.935  1.00  0.00    -0.246 A  
HETATM    6  C   UNL     1      -8.478   8.834  65.475  1.00  0.00    -0.165 A  
HETATM    7  C   UNL     1      -9.292  10.107  63.548  1.00  0.00    -0.333 A  
HETATM    8  C   UNL     1      -7.839   7.934  64.599  1.00  0.00    -0.133 A  
HETATM    9  C   UNL     1      -8.659   9.192  62.700  1.00  0.00    -0.215 A  
HETATM   10  C   UNL     1      -7.938   8.120  63.217  1.00  0.00    -0.149 A  
ENDBRANCH   1   2
BRANCH   1  11
HETATM   11  S   UNL     1     -11.378   9.756  69.290  1.00  0.00     0.070 SA 
BRANCH  11  12
HETATM   12  C   UNL     1     -11.819  11.329  69.938  1.00  0.00    -0.360 A  
HETATM   13  C   UNL     1     -13.812  14.696  72.386  1.00  0.00    -0.580 A  
HETATM   14  C   UNL     1     -13.296  15.555  71.422  1.00  0.00    -0.592 A  
HETATM   15  N   UNL     1     -12.504  11.468  71.051  1.00  0.00    -0.384 NA 
HETATM   16  C   UNL     1     -12.531  15.065  70.359  1.00  0.00    -0.407 A  
HETATM   17  C   UNL     1     -12.805  12.802  71.250  1.00  0.00    -0.262 A  
HETATM   18  C   UNL     1     -12.300  13.681  70.291  1.00  0.00    -0.322 A  
HETATM   19  C   UNL     1     -13.572  13.320  72.312  1.00  0.00    -0.703 A  
HETATM   20  S   UNL     1     -11.419  12.779  69.117  1.00  0.00    -0.306 SA 
ENDBRANCH  11  12
ENDBRANCH   1  11
TORSDOF 3
ENDMDL
MODEL      104
REMARK 921   NORMALIZED FREE ENERGY PREDICTED BY IDOCK:   -4.81 KCAL/MOL
REMARK 922        TOTAL FREE ENERGY PREDICTED BY IDOCK:   -5.96 KCAL/MOL
REMARK 923 INTER-LIGAND FREE ENERGY PREDICTED BY IDOCK:   -5.74 KCAL/MOL
REMARK 924 INTRA-LIGAND FREE ENERGY PREDICTED BY IDOCK:   -0.22 KCAL/MOL
REMARK 927      BINDING AFFINITY PREDICTED BY RF-SCORE:    0.00 PKD
ROOT
HETATM    1  S   UNL     1     -10.338  11.874  66.983  1.00  0.00    -0.216 SA 
ENDROOT
BRANCH   1   2
HETATM    2  C   UNL     1     -10.019  10.901  68.414  1.00  0.00    -0.178 A  
HETATM    3  S   UNL     1      -8.425  10.431  68.835  1.00  0.00    -0.152 SA 
HETATM    4  N   UNL     1     -10.969  10.504  69.233  1.00  0.00    -0.227 NA 
HETATM    5  C   UNL     1      -9.030   9.635  70.237  1.00  0.00    -0.219 A  
HETATM    6  C   UNL     1     -10.417   9.790  70.281  1.00  0.00    -0.288 A  
HETATM    7  C   UNL     1      -8.331   8.923  71.225  1.00  0.00    -0.223 A  
HETATM    8  C   UNL     1     -11.130   9.218  71.353  1.00  0.00    -0.437 A  
HETATM    9  C   UNL     1      -9.063   8.355  72.273  1.00  0.00    -0.313 A  
HETATM   10  C   UNL     1     -10.446   8.503  72.341  1.00  0.00    -0.367 A  
ENDBRANCH   1   2
BRANCH   1  11
HETATM   11  S   UNL     1     -11.765  13.167  67.728  1.00  0.00    -0.354 SA 
BRANCH  11  12
HETATM   12  C   UNL     1     -10.910  14.691  67.542  1.00  0.00    -0.286 A  
HETATM   13  C   UNL     1      -9.830  19.180  67.557  1.00  0.00    -0.406 A  
HETATM   14  C   UNL     1      -8.795  18.822  66.700  1.00  0.00    -0.315 A  
HETATM   15  N   UNL     1     -11.316  15.804  68.113  1.00  0.00    -0.353 NA 
HETATM   16  C   UNL     1      -8.602  17.490  66.324  1.00  0.00    -0.234 A  
HETATM   17  C   UNL     1     -10.526  16.858  67.698  1.00  0.00    -0.332 A  
HETATM   18  C   UNL     1      -9.483  16.521  66.834  1.00  0.00    -0.237 A  
HETATM   19  C   UNL     1     -10.699  18.207  68.063  1.00  0.00    -0.297 A  
HETATM   20  S   UNL     1      -9.515  14.823  66.555  1.00  0.00    -0.305 SA 
ENDBRANCH  11  12
ENDBRANCH   1  11
TORSDOF 3
ENDMDL
MODEL      105
REMARK 921   NORMALIZED FREE ENERGY PREDICTED BY IDOCK:   -4.81 KCAL/MOL
REMARK 922        TOTAL FREE ENERGY PREDICTED BY IDOCK:   -5.96 KCAL/MOL
REMARK 923 INTER-LIGAND FREE ENERGY PREDICTED BY IDOCK:   -5.72 KCAL/MOL
REMARK 924 INTRA-LIGAND FREE ENERGY PREDICTED BY IDOCK:   -0.24 KCAL/MOL
REMARK 927      BINDING AFFINITY PREDICTED BY RF-SCORE:    0.00 PKD
ROOT
HETATM    1  S   UNL     1     -10.235  11.687  66.661  1.00  0.00    -0.222 SA 
ENDROOT
BRANCH   1   2
HETATM    2  C   UNL     1     -10.559  10.669  68.060  1.00  0.00    -0.211 A  
HETATM    3  S   UNL     1      -9.747   9.175  68.282  1.00  0.00    -0.159 SA 
HETATM    4  N   UNL     1     -11.414  11.003  69.001  1.00  0.00    -0.272 NA 
HETATM    5  C   UNL     1     -10.587   8.941  69.767  1.00  0.00    -0.224 A  
HETATM    6  C   UNL     1     -11.432  10.031  69.985  1.00  0.00    -0.248 A  
HETATM    7  C   UNL     1     -10.508   7.870  70.672  1.00  0.00    -0.216 A  
HETATM    8  C   UNL     1     -12.221  10.055  71.152  1.00  0.00    -0.477 A  
HETATM    9  C   UNL     1     -11.311   7.912  71.817  1.00  0.00    -0.309 A  
HETATM   10  C   UNL     1     -12.155   8.992  72.058  1.00  0.00    -0.440 A  
ENDBRANCH   1   2
BRANCH   1  11
HETATM   11  S   UNL     1     -11.781  13.045  66.828  1.00  0.00    -0.388 SA 
BRANCH  11  12
HETATM   12  C   UNL     1     -10.856  14.522  67.053  1.00  0.00    -0.297 A  
HETATM   13  C   UNL     1      -9.673  18.940  67.682  1.00  0.00    -0.362 A  
HETATM   14  C   UNL     1      -8.404  18.545  67.273  1.00  0.00    -0.259 A  
HETATM   15  N   UNL     1     -11.403  15.641  67.473  1.00  0.00    -0.257 NA 
HETATM   16  C   UNL     1      -8.138  17.213  66.941  1.00  0.00    -0.247 A  
HETATM   17  C   UNL     1     -10.469  16.659  67.440  1.00  0.00    -0.314 A  
HETATM   18  C   UNL     1      -9.189  16.285  67.029  1.00  0.00    -0.214 A  
HETATM   19  C   UNL     1     -10.712  18.006  67.771  1.00  0.00    -0.350 A  
HETATM   20  S   UNL     1      -9.184  14.598  66.684  1.00  0.00    -0.257 SA 
ENDBRANCH  11  12
ENDBRANCH   1  11
TORSDOF 3
ENDMDL
MODEL      106
REMARK 921   NORMALIZED FREE ENERGY PREDICTED BY IDOCK:   -4.81 KCAL/MOL
REMARK 922        TOTAL FREE ENERGY PREDICTED BY IDOCK:   -5.96 KCAL/MOL
REMARK 923 INTER-LIGAND FREE ENERGY PREDICTED BY IDOCK:   -5.80 KCAL/MOL
REMARK 924 INTRA-LIGAND FREE ENERGY PREDICTED BY IDOCK:   -0.15 KCAL/MOL
REMARK 927      BINDING AFFINITY PREDICTED BY RF-SCORE:    0.00 PKD
ROOT
HETATM    1  S   UNL     1      -8.865  12.774  67.555  1.00  0.00    -0.199 SA 
ENDROOT
BRANCH   1   2
HETATM    2  C   UNL     1      -9.141  11.073  67.915  1.00  0.00    -0.147 A  
HETATM    3  S   UNL     1      -8.484  10.341  69.319  1.00  0.00    -0.157 SA 
HETATM    4  N   UNL     1      -9.868  10.292  67.147  1.00  0.00    -0.179 NA 
HETATM    5  C   UNL     1      -9.233   8.852  68.892  1.00  0.00    -0.140 A  
HETATM    6  C   UNL     1      -9.936   9.025  67.698  1.00  0.00    -0.201 A  
HETATM    7  C   UNL     1      -9.200   7.617  69.561  1.00  0.00    -0.150 A  
HETATM    8  C   UNL     1     -10.636   7.928  67.157  1.00  0.00    -0.383 A  
HETATM    9  C   UNL     1      -9.893   6.540  68.997  1.00  0.00    -0.153 A  
HETATM   10  C   UNL     1     -10.606   6.693  67.811  1.00  0.00    -0.311 A  
ENDBRANCH   1   2
BRANCH   1  11
HETATM   11  S   UNL     1     -10.777  13.358  67.043  1.00  0.00    -0.269 SA 
BRANCH  11  12
HETATM   12  C   UNL     1     -10.556  15.101  67.009  1.00  0.00    -0.300 A  
HETATM   13  C   UNL     1     -10.216  19.534  68.249  1.00  0.00    -0.552 A  
HETATM   14  C   UNL     1     -10.352  19.811  66.893  1.00  0.00    -0.601 A  
HETATM   15  N   UNL     1     -10.362  15.810  68.099  1.00  0.00    -0.237 NA 
HETATM   16  C   UNL     1     -10.486  18.780  65.959  1.00  0.00    -0.483 A  
HETATM   17  C   UNL     1     -10.342  17.155  67.784  1.00  0.00    -0.347 A  
HETATM   18  C   UNL     1     -10.481  17.455  66.428  1.00  0.00    -0.267 A  
HETATM   19  C   UNL     1     -10.208  18.212  68.705  1.00  0.00    -0.353 A  
HETATM   20  S   UNL     1     -10.635  15.986  65.544  1.00  0.00    -0.372 SA 
ENDBRANCH  11  12
ENDBRANCH   1  11
TORSDOF 3
ENDMDL
MODEL      107
REMARK 921   NORMALIZED FREE ENERGY PREDICTED BY IDOCK:   -4.80 KCAL/MOL
REMARK 922        TOTAL FREE ENERGY PREDICTED BY IDOCK:   -5.95 KCAL/MOL
REMARK 923 INTER-LIGAND FREE ENERGY PREDICTED BY IDOCK:   -5.66 KCAL/MOL
REMARK 924 INTRA-LIGAND FREE ENERGY PREDICTED BY IDOCK:   -0.29 KCAL/MOL
REMARK 927      BINDING AFFINITY PREDICTED BY RF-SCORE:    0.00 PKD
ROOT
HETATM    1  S   UNL     1      -9.569  10.967  66.629  1.00  0.00    -0.194 SA 
ENDROOT
BRANCH   1   2
HETATM    2  C   UNL     1     -10.144  10.364  68.179  1.00  0.00    -0.155 A  
HETATM    3  S   UNL     1     -11.443  11.121  69.004  1.00  0.00    -0.326 SA 
HETATM    4  N   UNL     1      -9.627   9.309  68.769  1.00  0.00    -0.153 NA 
HETATM    5  C   UNL     1     -11.331   9.946  70.257  1.00  0.00    -0.291 A  
HETATM    6  C   UNL     1     -10.300   9.054  69.950  1.00  0.00    -0.207 A  
HETATM    7  C   UNL     1     -12.095   9.821  71.429  1.00  0.00    -0.486 A  
HETATM    8  C   UNL     1     -10.029   7.998  70.842  1.00  0.00    -0.207 A  
HETATM    9  C   UNL     1     -11.797   8.771  72.304  1.00  0.00    -0.403 A  
HETATM   10  C   UNL     1     -10.780   7.867  72.014  1.00  0.00    -0.299 A  
ENDBRANCH   1   2
BRANCH   1  11
HETATM   11  S   UNL     1     -11.259  11.949  65.966  1.00  0.00    -0.301 SA 
BRANCH  11  12
HETATM   12  C   UNL     1     -10.781  13.611  66.284  1.00  0.00    -0.285 A  
HETATM   13  C   UNL     1      -8.328  17.500  66.688  1.00  0.00    -0.291 A  
HETATM   14  C   UNL     1      -9.375  17.949  67.486  1.00  0.00    -0.253 A  
HETATM   15  N   UNL     1      -9.657  14.121  65.832  1.00  0.00    -0.230 NA 
HETATM   16  C   UNL     1     -10.491  17.143  67.727  1.00  0.00    -0.362 A  
HETATM   17  C   UNL     1      -9.489  15.397  66.334  1.00  0.00    -0.296 A  
HETATM   18  C   UNL     1     -10.527  15.866  67.141  1.00  0.00    -0.313 A  
HETATM   19  C   UNL     1      -8.375  16.229  66.106  1.00  0.00    -0.260 A  
HETATM   20  S   UNL     1     -11.740  14.649  67.253  1.00  0.00    -0.344 SA 
ENDBRANCH  11  12
ENDBRANCH   1  11
TORSDOF 3
ENDMDL
MODEL      108
REMARK 921   NORMALIZED FREE ENERGY PREDICTED BY IDOCK:   -4.77 KCAL/MOL
REMARK 922        TOTAL FREE ENERGY PREDICTED BY IDOCK:   -5.92 KCAL/MOL
REMARK 923 INTER-LIGAND FREE ENERGY PREDICTED BY IDOCK:   -5.54 KCAL/MOL
REMARK 924 INTRA-LIGAND FREE ENERGY PREDICTED BY IDOCK:   -0.37 KCAL/MOL
REMARK 927      BINDING AFFINITY PREDICTED BY RF-SCORE:    0.00 PKD
ROOT
HETATM    1  S   UNL     1     -11.158  11.429  67.429  1.00  0.00    -0.299 SA 
ENDROOT
BRANCH   1   2
HETATM    2  C   UNL     1     -11.837  12.268  68.819  1.00  0.00    -0.306 A  
HETATM    3  S   UNL     1     -12.276  11.422  70.245  1.00  0.00    -0.335 SA 
HETATM    4  N   UNL     1     -12.025  13.570  68.844  1.00  0.00    -0.349 NA 
HETATM    5  C   UNL     1     -12.750  12.906  70.978  1.00  0.00    -0.251 A  
HETATM    6  C   UNL     1     -12.536  13.947  70.072  1.00  0.00    -0.266 A  
HETATM    7  C   UNL     1     -13.277  13.134  72.260  1.00  0.00    -0.555 A  
HETATM    8  C   UNL     1     -12.853  15.263  70.464  1.00  0.00    -0.421 A  
HETATM    9  C   UNL     1     -13.594  14.448  72.620  1.00  0.00    -0.589 A  
HETATM   10  C   UNL     1     -13.383  15.502  71.735  1.00  0.00    -0.577 A  
ENDBRANCH   1   2
BRANCH   1  11
HETATM   11  S   UNL     1     -10.399  13.028  66.368  1.00  0.00    -0.287 SA 
BRANCH  11  12
HETATM   12  C   UNL     1      -9.042  13.453  67.402  1.00  0.00    -0.216 A  
HETATM   13  C   UNL     1      -5.489  13.229  70.340  1.00  0.00    -0.145 A  
HETATM   14  C   UNL     1      -5.652  14.604  70.472  1.00  0.00    -0.145 A  
HETATM   15  N   UNL     1      -8.205  12.556  67.873  1.00  0.00    -0.153 NA 
HETATM   16  C   UNL     1      -6.642  15.282  69.754  1.00  0.00    -0.177 A  
HETATM   17  C   UNL     1      -7.318  13.157  68.745  1.00  0.00    -0.068 A  
HETATM   18  C   UNL     1      -7.468  14.537  68.896  1.00  0.00    -0.133 A  
HETATM   19  C   UNL     1      -6.314  12.497  69.479  1.00  0.00    -0.112 A  
HETATM   20  S   UNL     1      -8.765  15.070  67.897  1.00  0.00    -0.160 SA 
ENDBRANCH  11  12
ENDBRANCH   1  11
TORSDOF 3
ENDMDL
MODEL      109
REMARK 921   NORMALIZED FREE ENERGY PREDICTED BY IDOCK:   -4.76 KCAL/MOL
REMARK 922        TOTAL FREE ENERGY PREDICTED BY IDOCK:   -5.90 KCAL/MOL
REMARK 923 INTER-LIGAND FREE ENERGY PREDICTED BY IDOCK:   -5.58 KCAL/MOL
REMARK 924 INTRA-LIGAND FREE ENERGY PREDICTED BY IDOCK:   -0.32 KCAL/MOL
REMARK 927      BINDING AFFINITY PREDICTED BY RF-SCORE:    0.00 PKD
ROOT
HETATM    1  S   UNL     1     -13.305   9.382  70.855  1.00  0.00     0.101 SA 
ENDROOT
BRANCH   1   2
HETATM    2  C   UNL     1     -12.250   8.099  71.436  1.00  0.00    -0.297 A  
HETATM    3  S   UNL     1     -11.828   6.771  70.436  1.00  0.00    -0.265 SA 
HETATM    4  N   UNL     1     -11.724   8.099  72.641  1.00  0.00    -0.398 NA 
HETATM    5  C   UNL     1     -10.848   6.133  71.700  1.00  0.00    -0.258 A  
HETATM    6  C   UNL     1     -10.915   6.989  72.801  1.00  0.00    -0.294 A  
HETATM    7  C   UNL     1     -10.077   4.959  71.719  1.00  0.00    -0.267 A  
HETATM    8  C   UNL     1     -10.181   6.664  73.959  1.00  0.00    -0.395 A  
HETATM    9  C   UNL     1      -9.367   4.653  72.885  1.00  0.00    -0.144 A  
HETATM   10  C   UNL     1      -9.415   5.495  73.992  1.00  0.00    -0.137 A  
ENDBRANCH   1   2
BRANCH   1  11
HETATM   11  S   UNL     1     -12.039  11.004  71.020  1.00  0.00    -0.240 SA 
BRANCH  11  12
HETATM   12  C   UNL     1     -11.521  11.148  69.347  1.00  0.00    -0.298 A  
HETATM   13  C   UNL     1     -11.267  12.316  64.888  1.00  0.00    -0.365 A  
HETATM   14  C   UNL     1     -10.382  11.249  64.772  1.00  0.00    -0.366 A  
HETATM   15  N   UNL     1     -11.992  12.073  68.540  1.00  0.00    -0.382 NA 
HETATM   16  C   UNL     1     -10.039  10.476  65.884  1.00  0.00    -0.323 A  
HETATM   17  C   UNL     1     -11.501  11.872  67.264  1.00  0.00    -0.317 A  
HETATM   18  C   UNL     1     -10.614  10.804  67.124  1.00  0.00    -0.256 A  
HETATM   19  C   UNL     1     -11.830  12.637  66.128  1.00  0.00    -0.477 A  
HETATM   20  S   UNL     1     -10.403  10.048  68.657  1.00  0.00    -0.200 SA 
ENDBRANCH  11  12
ENDBRANCH   1  11
TORSDOF 3
ENDMDL
MODEL      110
REMARK 921   NORMALIZED FREE ENERGY PREDICTED BY IDOCK:   -4.76 KCAL/MOL
REMARK 922        TOTAL FREE ENERGY PREDICTED BY IDOCK:   -5.90 KCAL/MOL
REMARK 923 INTER-LIGAND FREE ENERGY PREDICTED BY IDOCK:   -5.63 KCAL/MOL
REMARK 924 INTRA-LIGAND FREE ENERGY PREDICTED BY IDOCK:   -0.26 KCAL/MOL
REMARK 927      BINDING AFFINITY PREDICTED BY RF-SCORE:    0.00 PKD
ROOT
HETATM    1  S   UNL     1     -10.603  16.836  67.976  1.00  0.00    -0.352 SA 
ENDROOT
BRANCH   1   2
HETATM    2  C   UNL     1      -9.299  18.016  68.027  1.00  0.00    -0.272 A  
HETATM    3  S   UNL     1      -9.146  19.228  66.825  1.00  0.00    -0.339 SA 
HETATM    4  N   UNL     1      -8.397  18.040  68.984  1.00  0.00    -0.099 NA 
HETATM    5  C   UNL     1      -7.767  19.860  67.639  1.00  0.00    -0.291 A  
HETATM    6  C   UNL     1      -7.524  19.092  68.779  1.00  0.00    -0.344 A  
HETATM    7  C   UNL     1      -6.956  20.954  67.294  1.00  0.00    -0.436 A  
HETATM    8  C   UNL     1      -6.436  19.433  69.607  1.00  0.00    -0.329 A  
HETATM    9  C   UNL     1      -5.875  21.264  68.126  1.00  0.00    -0.343 A  
HETATM   10  C   UNL     1      -5.618  20.516  69.271  1.00  0.00    -0.378 A  
ENDBRANCH   1   2
BRANCH   1  11
HETATM   11  S   UNL     1     -10.568  16.333  65.975  1.00  0.00    -0.237 SA 
BRANCH  11  12
HETATM   12  C   UNL     1      -9.989  14.677  66.095  1.00  0.00    -0.304 A  
HETATM   13  C   UNL     1      -9.670  10.080  65.820  1.00  0.00    -0.321 A  
HETATM   14  C   UNL     1      -8.641  10.205  66.747  1.00  0.00    -0.129 A  
HETATM   15  N   UNL     1     -10.541  13.686  65.430  1.00  0.00    -0.304 NA 
HETATM   16  C   UNL     1      -8.252  11.461  67.224  1.00  0.00    -0.150 A  
HETATM   17  C   UNL     1      -9.962  12.490  65.808  1.00  0.00    -0.259 A  
HETATM   18  C   UNL     1      -8.929  12.593  66.741  1.00  0.00    -0.197 A  
HETATM   19  C   UNL     1     -10.336  11.214  65.343  1.00  0.00    -0.331 A  
HETATM   20  S   UNL     1      -8.696  14.253  67.135  1.00  0.00    -0.219 SA 
ENDBRANCH  11  12
ENDBRANCH   1  11
TORSDOF 3
ENDMDL
MODEL      111
REMARK 921   NORMALIZED FREE ENERGY PREDICTED BY IDOCK:   -4.76 KCAL/MOL
REMARK 922        TOTAL FREE ENERGY PREDICTED BY IDOCK:   -5.90 KCAL/MOL
REMARK 923 INTER-LIGAND FREE ENERGY PREDICTED BY IDOCK:   -5.60 KCAL/MOL
REMARK 924 INTRA-LIGAND FREE ENERGY PREDICTED BY IDOCK:   -0.29 KCAL/MOL
REMARK 927      BINDING AFFINITY PREDICTED BY RF-SCORE:    0.00 PKD
ROOT
HETATM    1  S   UNL     1     -12.359  12.596  65.048  1.00  0.00    -0.459 SA 
ENDROOT
BRANCH   1   2
HETATM    2  C   UNL     1     -12.008  13.468  66.536  1.00  0.00    -0.413 A  
HETATM    3  S   UNL     1     -11.371  15.059  66.507  1.00  0.00    -0.223 SA 
HETATM    4  N   UNL     1     -12.229  12.960  67.728  1.00  0.00    -0.219 NA 
HETATM    5  C   UNL     1     -11.394  15.098  68.228  1.00  0.00    -0.327 A  
HETATM    6  C   UNL     1     -11.891  13.883  68.702  1.00  0.00    -0.372 A  
HETATM    7  C   UNL     1     -10.997  16.127  69.098  1.00  0.00    -0.309 A  
HETATM    8  C   UNL     1     -12.003  13.691  70.093  1.00  0.00    -0.407 A  
HETATM    9  C   UNL     1     -11.107  15.907  70.475  1.00  0.00    -0.381 A  
HETATM   10  C   UNL     1     -11.607  14.706  70.969  1.00  0.00    -0.277 A  
ENDBRANCH   1   2
BRANCH   1  11
HETATM   11  S   UNL     1     -10.560  12.812  64.061  1.00  0.00    -0.382 SA 
BRANCH  11  12
HETATM   12  C   UNL     1      -9.929  11.181  64.230  1.00  0.00    -0.306 A  
HETATM   13  C   UNL     1      -8.548   7.140  65.984  1.00  0.00    -0.158 A  
HETATM   14  C   UNL     1      -7.893   6.961  64.771  1.00  0.00    -0.119 A  
HETATM   15  N   UNL     1     -10.097  10.468  65.323  1.00  0.00    -0.297 NA 
HETATM   16  C   UNL     1      -7.971   7.926  63.763  1.00  0.00    -0.119 A  
HETATM   17  C   UNL     1      -9.397   9.282  65.219  1.00  0.00    -0.202 A  
HETATM   18  C   UNL     1      -8.729   9.084  64.009  1.00  0.00    -0.086 A  
HETATM   19  C   UNL     1      -9.303   8.294  66.219  1.00  0.00    -0.267 A  
HETATM   20  S   UNL     1      -9.009  10.442  62.989  1.00  0.00    -0.276 SA 
ENDBRANCH  11  12
ENDBRANCH   1  11
TORSDOF 3
ENDMDL
MODEL      112
REMARK 921   NORMALIZED FREE ENERGY PREDICTED BY IDOCK:   -4.72 KCAL/MOL
REMARK 922        TOTAL FREE ENERGY PREDICTED BY IDOCK:   -5.85 KCAL/MOL
REMARK 923 INTER-LIGAND FREE ENERGY PREDICTED BY IDOCK:   -5.79 KCAL/MOL
REMARK 924 INTRA-LIGAND FREE ENERGY PREDICTED BY IDOCK:   -0.06 KCAL/MOL
REMARK 927      BINDING AFFINITY PREDICTED BY RF-SCORE:    0.00 PKD
ROOT
HETATM    1  S   UNL     1      -9.915   4.465  72.873  1.00  0.00    -0.160 SA 
ENDROOT
BRANCH   1   2
HETATM    2  C   UNL     1      -9.921   4.558  71.116  1.00  0.00    -0.187 A  
HETATM    3  S   UNL     1      -9.140   3.370  70.157  1.00  0.00    -0.150 SA 
HETATM    4  N   UNL     1     -10.530   5.518  70.456  1.00  0.00    -0.269 NA 
HETATM    5  C   UNL     1      -9.657   4.183  68.731  1.00  0.00    -0.140 A  
HETATM    6  C   UNL     1     -10.395   5.311  69.095  1.00  0.00    -0.194 A  
HETATM    7  C   UNL     1      -9.425   3.851  67.386  1.00  0.00    -0.236 A  
HETATM    8  C   UNL     1     -10.924   6.132  68.080  1.00  0.00    -0.398 A  
HETATM    9  C   UNL     1      -9.952   4.689  66.397  1.00  0.00    -0.267 A  
HETATM   10  C   UNL     1     -10.696   5.815  66.738  1.00  0.00    -0.369 A  
ENDBRANCH   1   2
BRANCH   1  11
HETATM   11  S   UNL     1      -8.780   6.128  73.326  1.00  0.00    -0.122 SA 
BRANCH  11  12
HETATM   12  C   UNL     1      -9.854   7.389  72.738  1.00  0.00    -0.189 A  
HETATM   13  C   UNL     1     -13.615   9.838  71.658  1.00  0.00    -0.371 A  
HETATM   14  C   UNL     1     -12.769  10.569  70.831  1.00  0.00    -0.495 A  
HETATM   15  N   UNL     1     -11.124   7.447  73.071  1.00  0.00    -0.353 NA 
HETATM   16  C   UNL     1     -11.405  10.269  70.753  1.00  0.00    -0.421 A  
HETATM   17  C   UNL     1     -11.744   8.464  72.371  1.00  0.00    -0.382 A  
HETATM   18  C   UNL     1     -10.914   9.208  71.531  1.00  0.00    -0.364 A  
HETATM   19  C   UNL     1     -13.114   8.786  72.433  1.00  0.00    -0.444 A  
HETATM   20  S   UNL     1      -9.309   8.594  71.648  1.00  0.00    -0.280 SA 
ENDBRANCH  11  12
ENDBRANCH   1  11
TORSDOF 3
ENDMDL
MODEL      113
REMARK 921   NORMALIZED FREE ENERGY PREDICTED BY IDOCK:   -4.69 KCAL/MOL
REMARK 922        TOTAL FREE ENERGY PREDICTED BY IDOCK:   -5.82 KCAL/MOL
REMARK 923 INTER-LIGAND FREE ENERGY PREDICTED BY IDOCK:   -5.50 KCAL/MOL
REMARK 924 INTRA-LIGAND FREE ENERGY PREDICTED BY IDOCK:   -0.32 KCAL/MOL
REMARK 927      BINDING AFFINITY PREDICTED BY RF-SCORE:    0.00 PKD
ROOT
HETATM    1  S   UNL     1     -11.764  14.716  67.474  1.00  0.00    -0.343 SA 
ENDROOT
BRANCH   1   2
HETATM    2  C   UNL     1     -10.486  15.863  67.856  1.00  0.00    -0.288 A  
HETATM    3  S   UNL     1     -10.715  17.551  67.660  1.00  0.00    -0.231 SA 
HETATM    4  N   UNL     1      -9.312  15.494  68.320  1.00  0.00    -0.190 NA 
HETATM    5  C   UNL     1      -9.124  17.835  68.252  1.00  0.00    -0.281 A  
HETATM    6  C   UNL     1      -8.530  16.609  68.558  1.00  0.00    -0.233 A  
HETATM    7  C   UNL     1      -8.447  19.053  68.430  1.00  0.00    -0.383 A  
HETATM    8  C   UNL     1      -7.216  16.600  69.067  1.00  0.00    -0.222 A  
HETATM    9  C   UNL     1      -7.139  19.016  68.925  1.00  0.00    -0.363 A  
HETATM   10  C   UNL     1      -6.530  17.805  69.243  1.00  0.00    -0.244 A  
ENDBRANCH   1   2
BRANCH   1  11
HETATM   11  S   UNL     1     -11.856  13.663  69.247  1.00  0.00    -0.354 SA 
BRANCH  11  12
HETATM   12  C   UNL     1     -11.210  12.119  68.709  1.00  0.00    -0.264 A  
HETATM   13  C   UNL     1      -9.668   8.652  66.081  1.00  0.00    -0.292 A  
HETATM   14  C   UNL     1      -9.846   7.861  67.211  1.00  0.00    -0.256 A  
HETATM   15  N   UNL     1     -10.753  11.930  67.491  1.00  0.00    -0.217 NA 
HETATM   16  C   UNL     1     -10.313   8.412  68.407  1.00  0.00    -0.239 A  
HETATM   17  C   UNL     1     -10.424  10.600  67.317  1.00  0.00    -0.246 A  
HETATM   18  C   UNL     1     -10.599   9.787  68.438  1.00  0.00    -0.226 A  
HETATM   19  C   UNL     1      -9.952  10.021  66.123  1.00  0.00    -0.322 A  
HETATM   20  S   UNL     1     -11.190  10.749  69.738  1.00  0.00    -0.303 SA 
ENDBRANCH  11  12
ENDBRANCH   1  11
TORSDOF 3
ENDMDL
MODEL      114
REMARK 921   NORMALIZED FREE ENERGY PREDICTED BY IDOCK:   -4.68 KCAL/MOL
REMARK 922        TOTAL FREE ENERGY PREDICTED BY IDOCK:   -5.80 KCAL/MOL
REMARK 923 INTER-LIGAND FREE ENERGY PREDICTED BY IDOCK:   -5.44 KCAL/MOL
REMARK 924 INTRA-LIGAND FREE ENERGY PREDICTED BY IDOCK:   -0.36 KCAL/MOL
REMARK 927      BINDING AFFINITY PREDICTED BY RF-SCORE:    0.00 PKD
ROOT
HETATM    1  S   UNL     1     -11.221  11.713  67.206  1.00  0.00    -0.304 SA 
ENDROOT
BRANCH   1   2
HETATM    2  C   UNL     1      -9.957  10.796  68.016  1.00  0.00    -0.164 A  
HETATM    3  S   UNL     1      -8.375  11.431  68.202  1.00  0.00    -0.156 SA 
HETATM    4  N   UNL     1     -10.159   9.602  68.528  1.00  0.00    -0.169 NA 
HETATM    5  C   UNL     1      -7.904  10.007  69.048  1.00  0.00    -0.101 A  
HETATM    6  C   UNL     1      -9.000   9.145  69.127  1.00  0.00    -0.144 A  
HETATM    7  C   UNL     1      -6.656   9.674  69.600  1.00  0.00    -0.048 A  
HETATM    8  C   UNL     1      -8.845   7.910  69.787  1.00  0.00    -0.141 A  
HETATM    9  C   UNL     1      -6.525   8.436  70.239  1.00  0.00    -0.035 A  
HETATM   10  C   UNL     1      -7.606   7.564  70.335  1.00  0.00    -0.090 A  
ENDBRANCH   1   2
BRANCH   1  11
HETATM   11  S   UNL     1     -10.441  13.619  67.345  1.00  0.00    -0.252 SA 
BRANCH  11  12
HETATM   12  C   UNL     1     -11.047  14.074  68.931  1.00  0.00    -0.268 A  
HETATM   13  C   UNL     1     -13.556  14.308  72.799  1.00  0.00    -0.538 A  
HETATM   14  C   UNL     1     -12.925  15.530  73.005  1.00  0.00    -0.609 A  
HETATM   15  N   UNL     1     -11.911  13.337  69.594  1.00  0.00    -0.320 NA 
HETATM   16  C   UNL     1     -11.976  16.010  72.098  1.00  0.00    -0.629 A  
HETATM   17  C   UNL     1     -12.297  13.995  70.747  1.00  0.00    -0.373 A  
HETATM   18  C   UNL     1     -11.678  15.226  70.971  1.00  0.00    -0.348 A  
HETATM   19  C   UNL     1     -13.249  13.532  71.676  1.00  0.00    -0.449 A  
HETATM   20  S   UNL     1     -10.580  15.540  69.683  1.00  0.00    -0.303 SA 
ENDBRANCH  11  12
ENDBRANCH   1  11
TORSDOF 3
ENDMDL
MODEL      115
REMARK 921   NORMALIZED FREE ENERGY PREDICTED BY IDOCK:   -4.61 KCAL/MOL
REMARK 922        TOTAL FREE ENERGY PREDICTED BY IDOCK:   -5.73 KCAL/MOL
REMARK 923 INTER-LIGAND FREE ENERGY PREDICTED BY IDOCK:   -5.46 KCAL/MOL
REMARK 924 INTRA-LIGAND FREE ENERGY PREDICTED BY IDOCK:   -0.27 KCAL/MOL
REMARK 927      BINDING AFFINITY PREDICTED BY RF-SCORE:    0.00 PKD
ROOT
HETATM    1  S   UNL     1     -10.999  15.480  66.346  1.00  0.00    -0.176 SA 
ENDROOT
BRANCH   1   2
HETATM    2  C   UNL     1      -9.825  16.694  66.839  1.00  0.00    -0.263 A  
HETATM    3  S   UNL     1      -8.433  16.272  67.745  1.00  0.00    -0.164 SA 
HETATM    4  N   UNL     1      -9.943  17.966  66.528  1.00  0.00    -0.340 NA 
HETATM    5  C   UNL     1      -7.921  17.916  67.723  1.00  0.00    -0.230 A  
HETATM    6  C   UNL     1      -8.860  18.672  67.018  1.00  0.00    -0.281 A  
HETATM    7  C   UNL     1      -6.775  18.497  68.290  1.00  0.00    -0.233 A  
HETATM    8  C   UNL     1      -8.641  20.056  66.869  1.00  0.00    -0.402 A  
HETATM    9  C   UNL     1      -6.588  19.875  68.138  1.00  0.00    -0.302 A  
HETATM   10  C   UNL     1      -7.507  20.647  67.434  1.00  0.00    -0.384 A  
ENDBRANCH   1   2
BRANCH   1  11
HETATM   11  S   UNL     1     -11.548  14.729  68.189  1.00  0.00    -0.327 SA 
BRANCH  11  12
HETATM   12  C   UNL     1     -11.110  13.042  67.965  1.00  0.00    -0.260 A  
HETATM   13  C   UNL     1      -9.649   9.064  66.134  1.00  0.00    -0.341 A  
HETATM   14  C   UNL     1     -10.289   8.459  67.210  1.00  0.00    -0.369 A  
HETATM   15  N   UNL     1     -10.384  12.629  66.950  1.00  0.00    -0.232 NA 
HETATM   16  C   UNL     1     -10.944   9.225  68.179  1.00  0.00    -0.060 A  
HETATM   17  C   UNL     1     -10.300  11.250  66.965  1.00  0.00    -0.227 A  
HETATM   18  C   UNL     1     -10.939  10.623  68.036  1.00  0.00    -0.282 A  
HETATM   19  C   UNL     1      -9.646  10.457  66.002  1.00  0.00    -0.251 A  
HETATM   20  S   UNL     1     -11.655  11.824  69.040  1.00  0.00    -0.337 SA 
ENDBRANCH  11  12
ENDBRANCH   1  11
TORSDOF 3
ENDMDL
MODEL      116
REMARK 921   NORMALIZED FREE ENERGY PREDICTED BY IDOCK:   -4.61 KCAL/MOL
REMARK 922        TOTAL FREE ENERGY PREDICTED BY IDOCK:   -5.72 KCAL/MOL
REMARK 923 INTER-LIGAND FREE ENERGY PREDICTED BY IDOCK:   -5.56 KCAL/MOL
REMARK 924 INTRA-LIGAND FREE ENERGY PREDICTED BY IDOCK:   -0.16 KCAL/MOL
REMARK 927      BINDING AFFINITY PREDICTED BY RF-SCORE:    0.00 PKD
ROOT
HETATM    1  S   UNL     1     -11.890  10.538  70.780  1.00  0.00    -0.368 SA 
ENDROOT
BRANCH   1   2
HETATM    2  C   UNL     1     -11.437   8.855  71.020  1.00  0.00    -0.294 A  
HETATM    3  S   UNL     1     -10.660   7.955  69.785  1.00  0.00    -0.231 SA 
HETATM    4  N   UNL     1     -11.651   8.213  72.148  1.00  0.00    -0.331 NA 
HETATM    5  C   UNL     1     -10.583   6.589  70.829  1.00  0.00    -0.231 A  
HETATM    6  C   UNL     1     -11.160   6.924  72.055  1.00  0.00    -0.245 A  
HETATM    7  C   UNL     1     -10.053   5.312  70.582  1.00  0.00    -0.310 A  
HETATM    8  C   UNL     1     -11.204   5.950  73.073  1.00  0.00    -0.258 A  
HETATM    9  C   UNL     1     -10.120   4.359  71.605  1.00  0.00    -0.230 A  
HETATM   10  C   UNL     1     -10.685   4.673  72.837  1.00  0.00    -0.295 A  
ENDBRANCH   1   2
BRANCH   1  11
HETATM   11  S   UNL     1     -11.642  10.698  68.737  1.00  0.00    -0.179 SA 
BRANCH  11  12
HETATM   12  C   UNL     1     -11.523  12.445  68.588  1.00  0.00    -0.303 A  
HETATM   13  C   UNL     1     -10.605  16.692  67.030  1.00  0.00    -0.247 A  
HETATM   14  C   UNL     1     -10.844  17.106  68.336  1.00  0.00    -0.309 A  
HETATM   15  N   UNL     1     -11.231  13.039  67.453  1.00  0.00    -0.276 NA 
HETATM   16  C   UNL     1     -11.206  16.187  69.326  1.00  0.00    -0.337 A  
HETATM   17  C   UNL     1     -11.088  14.398  67.659  1.00  0.00    -0.300 A  
HETATM   18  C   UNL     1     -11.320  14.833  68.965  1.00  0.00    -0.275 A  
HETATM   19  C   UNL     1     -10.726  15.343  66.680  1.00  0.00    -0.309 A  
HETATM   20  S   UNL     1     -11.732  13.476  69.941  1.00  0.00    -0.235 SA 
ENDBRANCH  11  12
ENDBRANCH   1  11
TORSDOF 3
ENDMDL
MODEL      117
REMARK 921   NORMALIZED FREE ENERGY PREDICTED BY IDOCK:   -4.60 KCAL/MOL
REMARK 922        TOTAL FREE ENERGY PREDICTED BY IDOCK:   -5.72 KCAL/MOL
REMARK 923 INTER-LIGAND FREE ENERGY PREDICTED BY IDOCK:   -5.34 KCAL/MOL
REMARK 924 INTRA-LIGAND FREE ENERGY PREDICTED BY IDOCK:   -0.38 KCAL/MOL
REMARK 927      BINDING AFFINITY PREDICTED BY RF-SCORE:    0.00 PKD
ROOT
HETATM    1  S   UNL     1     -12.479   9.838  70.923  1.00  0.00    -0.246 SA 
ENDROOT
BRANCH   1   2
HETATM    2  C   UNL     1     -12.211  11.214  69.859  1.00  0.00    -0.314 A  
HETATM    3  S   UNL     1     -12.073  12.806  70.480  1.00  0.00    -0.165 SA 
HETATM    4  N   UNL     1     -12.089  11.093  68.556  1.00  0.00    -0.594 NA 
HETATM    5  C   UNL     1     -11.814  13.404  68.886  1.00  0.00    -0.334 A  
HETATM    6  C   UNL     1     -11.852  12.333  67.990  1.00  0.00    -0.305 A  
HETATM    7  C   UNL     1     -11.596  14.723  68.456  1.00  0.00    -0.348 A  
HETATM    8  C   UNL     1     -11.660  12.590  66.618  1.00  0.00    -0.442 A  
HETATM    9  C   UNL     1     -11.419  14.952  67.088  1.00  0.00    -0.344 A  
HETATM   10  C   UNL     1     -11.447  13.899  66.178  1.00  0.00    -0.351 A  
ENDBRANCH   1   2
BRANCH   1  11
HETATM   11  S   UNL     1     -10.528   9.314  71.347  1.00  0.00    -0.292 SA 
BRANCH  11  12
HETATM   12  C   UNL     1     -10.254   8.133  70.075  1.00  0.00    -0.202 A  
HETATM   13  C   UNL     1      -9.179   6.148  66.048  1.00  0.00    -0.116 A  
HETATM   14  C   UNL     1      -9.876   5.046  66.530  1.00  0.00    -0.218 A  
HETATM   15  N   UNL     1      -9.569   8.411  68.988  1.00  0.00    -0.159 NA 
HETATM   16  C   UNL     1     -10.457   5.062  67.802  1.00  0.00    -0.053 A  
HETATM   17  C   UNL     1      -9.619   7.339  68.118  1.00  0.00    -0.140 A  
HETATM   18  C   UNL     1     -10.317   6.223  68.580  1.00  0.00    -0.203 A  
HETATM   19  C   UNL     1      -9.042   7.298  66.833  1.00  0.00    -0.162 A  
HETATM   20  S   UNL     1     -10.916   6.555  70.160  1.00  0.00    -0.350 SA 
ENDBRANCH  11  12
ENDBRANCH   1  11
TORSDOF 3
ENDMDL
MODEL      118
REMARK 921   NORMALIZED FREE ENERGY PREDICTED BY IDOCK:   -4.57 KCAL/MOL
REMARK 922        TOTAL FREE ENERGY PREDICTED BY IDOCK:   -5.68 KCAL/MOL
REMARK 923 INTER-LIGAND FREE ENERGY PREDICTED BY IDOCK:   -5.35 KCAL/MOL
REMARK 924 INTRA-LIGAND FREE ENERGY PREDICTED BY IDOCK:   -0.33 KCAL/MOL
REMARK 927      BINDING AFFINITY PREDICTED BY RF-SCORE:    0.00 PKD
ROOT
HETATM    1  S   UNL     1      -7.968  10.999  67.510  1.00  0.00    -0.120 SA 
ENDROOT
BRANCH   1   2
HETATM    2  C   UNL     1      -9.176  11.612  66.385  1.00  0.00    -0.212 A  
HETATM    3  S   UNL     1      -9.992  10.568  65.298  1.00  0.00    -0.306 SA 
HETATM    4  N   UNL     1      -9.522  12.879  66.333  1.00  0.00    -0.248 NA 
HETATM    5  C   UNL     1     -10.902  11.901  64.701  1.00  0.00    -0.311 A  
HETATM    6  C   UNL     1     -10.512  13.056  65.383  1.00  0.00    -0.296 A  
HETATM    7  C   UNL     1     -11.887  11.928  63.700  1.00  0.00    -0.573 A  
HETATM    8  C   UNL     1     -11.134  14.278  65.059  1.00  0.00    -0.377 A  
HETATM    9  C   UNL     1     -12.480  13.156  63.389  1.00  0.00    -0.328 A  
HETATM   10  C   UNL     1     -12.112  14.318  64.061  1.00  0.00    -0.350 A  
ENDBRANCH   1   2
BRANCH   1  11
HETATM   11  S   UNL     1      -8.004   8.992  67.032  1.00  0.00    -0.102 SA 
BRANCH  11  12
HETATM   12  C   UNL     1      -8.912   8.375  68.404  1.00  0.00    -0.136 A  
HETATM   13  C   UNL     1     -11.253   8.066  72.371  1.00  0.00    -0.432 A  
HETATM   14  C   UNL     1     -11.010   6.700  72.282  1.00  0.00    -0.278 A  
HETATM   15  N   UNL     1      -9.566   9.163  69.230  1.00  0.00    -0.157 NA 
HETATM   16  C   UNL     1     -10.304   6.165  71.200  1.00  0.00    -0.257 A  
HETATM   17  C   UNL     1     -10.081   8.419  70.274  1.00  0.00    -0.189 A  
HETATM   18  C   UNL     1      -9.845   7.045  70.206  1.00  0.00    -0.175 A  
HETATM   19  C   UNL     1     -10.795   8.934  71.374  1.00  0.00    -0.378 A  
HETATM   20  S   UNL     1      -8.951   6.703  68.775  1.00  0.00    -0.124 SA 
ENDBRANCH  11  12
ENDBRANCH   1  11
TORSDOF 3
ENDMDL
MODEL      119
REMARK 921   NORMALIZED FREE ENERGY PREDICTED BY IDOCK:   -4.55 KCAL/MOL
REMARK 922        TOTAL FREE ENERGY PREDICTED BY IDOCK:   -5.66 KCAL/MOL
REMARK 923 INTER-LIGAND FREE ENERGY PREDICTED BY IDOCK:   -5.21 KCAL/MOL
REMARK 924 INTRA-LIGAND FREE ENERGY PREDICTED BY IDOCK:   -0.44 KCAL/MOL
REMARK 927      BINDING AFFINITY PREDICTED BY RF-SCORE:    0.00 PKD
ROOT
HETATM    1  S   UNL     1      -7.071   9.534  65.445  1.00  0.00    -0.099 SA 
ENDROOT
BRANCH   1   2
HETATM    2  C   UNL     1      -8.590  10.410  65.297  1.00  0.00    -0.176 A  
HETATM    3  S   UNL     1      -9.330  11.147  66.657  1.00  0.00    -0.181 SA 
HETATM    4  N   UNL     1      -9.218  10.559  64.152  1.00  0.00    -0.227 NA 
HETATM    5  C   UNL     1     -10.597  11.731  65.649  1.00  0.00    -0.268 A  
HETATM    6  C   UNL     1     -10.359  11.318  64.337  1.00  0.00    -0.329 A  
HETATM    7  C   UNL     1     -11.723  12.498  65.992  1.00  0.00    -0.472 A  
HETATM    8  C   UNL     1     -11.274  11.689  63.332  1.00  0.00    -0.401 A  
HETATM    9  C   UNL     1     -12.623  12.842  64.978  1.00  0.00    -0.538 A  
HETATM   10  C   UNL     1     -12.401  12.447  63.662  1.00  0.00    -0.647 A  
ENDBRANCH   1   2
BRANCH   1  11
HETATM   11  S   UNL     1      -7.757   7.589  65.351  1.00  0.00    -0.117 SA 
BRANCH  11  12
HETATM   12  C   UNL     1      -8.373   7.411  66.987  1.00  0.00    -0.121 A  
HETATM   13  C   UNL     1     -11.111   6.579  70.609  1.00  0.00    -0.364 A  
HETATM   14  C   UNL     1     -10.172   7.293  71.345  1.00  0.00    -0.199 A  
HETATM   15  N   UNL     1      -9.485   6.764  67.257  1.00  0.00    -0.131 NA 
HETATM   16  C   UNL     1      -9.029   7.818  70.735  1.00  0.00    -0.148 A  
HETATM   17  C   UNL     1      -9.783   6.888  68.601  1.00  0.00    -0.136 A  
HETATM   18  C   UNL     1      -8.855   7.605  69.357  1.00  0.00    -0.139 A  
HETATM   19  C   UNL     1     -10.926   6.369  69.239  1.00  0.00    -0.418 A  
HETATM   20  S   UNL     1      -7.577   8.123  68.327  1.00  0.00    -0.103 SA 
ENDBRANCH  11  12
ENDBRANCH   1  11
TORSDOF 3
ENDMDL
MODEL      120
REMARK 921   NORMALIZED FREE ENERGY PREDICTED BY IDOCK:   -4.55 KCAL/MOL
REMARK 922        TOTAL FREE ENERGY PREDICTED BY IDOCK:   -5.66 KCAL/MOL
REMARK 923 INTER-LIGAND FREE ENERGY PREDICTED BY IDOCK:   -5.38 KCAL/MOL
REMARK 924 INTRA-LIGAND FREE ENERGY PREDICTED BY IDOCK:   -0.27 KCAL/MOL
REMARK 927      BINDING AFFINITY PREDICTED BY RF-SCORE:    0.00 PKD
ROOT
HETATM    1  S   UNL     1     -11.131   9.317  71.568  1.00  0.00    -0.368 SA 
ENDROOT
BRANCH   1   2
HETATM    2  C   UNL     1     -11.156  10.039  69.964  1.00  0.00    -0.295 A  
HETATM    3  S   UNL     1     -11.918  11.548  69.677  1.00  0.00    -0.331 SA 
HETATM    4  N   UNL     1     -10.587   9.477  68.920  1.00  0.00    -0.219 NA 
HETATM    5  C   UNL     1     -11.449  11.470  68.023  1.00  0.00    -0.311 A  
HETATM    6  C   UNL     1     -10.739  10.287  67.809  1.00  0.00    -0.275 A  
HETATM    7  C   UNL     1     -11.693  12.386  66.986  1.00  0.00    -0.423 A  
HETATM    8  C   UNL     1     -10.250  10.013  66.517  1.00  0.00    -0.291 A  
HETATM    9  C   UNL     1     -11.208  12.085  65.710  1.00  0.00    -0.383 A  
HETATM   10  C   UNL     1     -10.492  10.915  65.476  1.00  0.00    -0.286 A  
ENDBRANCH   1   2
BRANCH   1  11
HETATM   11  S   UNL     1     -12.646   7.928  71.371  1.00  0.00    -0.268 SA 
BRANCH  11  12
HETATM   12  C   UNL     1     -11.727   6.450  71.610  1.00  0.00    -0.313 A  
HETATM   13  C   UNL     1      -9.653   2.800  73.532  1.00  0.00    -0.126 A  
HETATM   14  C   UNL     1      -8.953   2.705  72.334  1.00  0.00    -0.115 A  
HETATM   15  N   UNL     1     -11.780   5.757  72.726  1.00  0.00    -0.227 NA 
HETATM   16  C   UNL     1      -9.189   3.603  71.290  1.00  0.00    -0.197 A  
HETATM   17  C   UNL     1     -10.870   4.718  72.675  1.00  0.00    -0.175 A  
HETATM   18  C   UNL     1     -10.153   4.607  71.483  1.00  0.00    -0.185 A  
HETATM   19  C   UNL     1     -10.614   3.801  73.713  1.00  0.00    -0.288 A  
HETATM   20  S   UNL     1     -10.660   5.853  70.408  1.00  0.00    -0.306 SA 
ENDBRANCH  11  12
ENDBRANCH   1  11
TORSDOF 3
ENDMDL
MODEL      121
REMARK 921   NORMALIZED FREE ENERGY PREDICTED BY IDOCK:   -4.55 KCAL/MOL
REMARK 922        TOTAL FREE ENERGY PREDICTED BY IDOCK:   -5.65 KCAL/MOL
REMARK 923 INTER-LIGAND FREE ENERGY PREDICTED BY IDOCK:   -5.35 KCAL/MOL
REMARK 924 INTRA-LIGAND FREE ENERGY PREDICTED BY IDOCK:   -0.30 KCAL/MOL
REMARK 927      BINDING AFFINITY PREDICTED BY RF-SCORE:    0.00 PKD
ROOT
HETATM    1  S   UNL     1     -10.133  13.388  67.035  1.00  0.00    -0.251 SA 
ENDROOT
BRANCH   1   2
HETATM    2  C   UNL     1     -11.040  13.439  68.543  1.00  0.00    -0.270 A  
HETATM    3  S   UNL     1     -11.255  14.906  69.404  1.00  0.00    -0.298 SA 
HETATM    4  N   UNL     1     -11.605  12.376  69.070  1.00  0.00    -0.290 NA 
HETATM    5  C   UNL     1     -12.192  14.074  70.584  1.00  0.00    -0.372 A  
HETATM    6  C   UNL     1     -12.273  12.726  70.230  1.00  0.00    -0.277 A  
HETATM    7  C   UNL     1     -12.810  14.575  71.742  1.00  0.00    -0.415 A  
HETATM    8  C   UNL     1     -13.001  11.849  71.057  1.00  0.00    -0.180 A  
HETATM    9  C   UNL     1     -13.517  13.681  72.554  1.00  0.00    -0.675 A  
HETATM   10  C   UNL     1     -13.616  12.334  72.216  1.00  0.00    -0.299 A  
ENDBRANCH   1   2
BRANCH   1  11
HETATM   11  S   UNL     1     -11.374  12.192  65.900  1.00  0.00    -0.354 SA 
BRANCH  11  12
HETATM   12  C   UNL     1     -10.330  10.793  65.692  1.00  0.00    -0.230 A  
HETATM   13  C   UNL     1      -7.628   7.533  63.853  1.00  0.00    -0.114 A  
HETATM   14  C   UNL     1      -7.846   6.838  65.038  1.00  0.00    -0.118 A  
HETATM   15  N   UNL     1      -9.622  10.596  64.602  1.00  0.00    -0.252 NA 
HETATM   16  C   UNL     1      -8.634   7.382  66.056  1.00  0.00    -0.162 A  
HETATM   17  C   UNL     1      -8.995   9.366  64.669  1.00  0.00    -0.187 A  
HETATM   18  C   UNL     1      -9.203   8.650  65.849  1.00  0.00    -0.202 A  
HETATM   19  C   UNL     1      -8.196   8.797  63.658  1.00  0.00    -0.163 A  
HETATM   20  S   UNL     1     -10.216   9.574  66.890  1.00  0.00    -0.243 SA 
ENDBRANCH  11  12
ENDBRANCH   1  11
TORSDOF 3
ENDMDL
MODEL      122
REMARK 921   NORMALIZED FREE ENERGY PREDICTED BY IDOCK:   -4.54 KCAL/MOL
REMARK 922        TOTAL FREE ENERGY PREDICTED BY IDOCK:   -5.64 KCAL/MOL
REMARK 923 INTER-LIGAND FREE ENERGY PREDICTED BY IDOCK:   -5.44 KCAL/MOL
REMARK 924 INTRA-LIGAND FREE ENERGY PREDICTED BY IDOCK:   -0.20 KCAL/MOL
REMARK 927      BINDING AFFINITY PREDICTED BY RF-SCORE:    0.00 PKD
ROOT
HETATM    1  S   UNL     1     -12.710  11.504  71.731  1.00  0.00    -0.124 SA 
ENDROOT
BRANCH   1   2
HETATM    2  C   UNL     1     -12.149  12.703  70.571  1.00  0.00    -0.275 A  
HETATM    3  S   UNL     1     -11.891  12.299  68.925  1.00  0.00    -0.269 SA 
HETATM    4  N   UNL     1     -11.918  13.956  70.897  1.00  0.00    -0.291 NA 
HETATM    5  C   UNL     1     -11.442  13.928  68.596  1.00  0.00    -0.298 A  
HETATM    6  C   UNL     1     -11.524  14.667  69.778  1.00  0.00    -0.282 A  
HETATM    7  C   UNL     1     -11.043  14.511  67.382  1.00  0.00    -0.320 A  
HETATM    8  C   UNL     1     -11.202  16.038  69.745  1.00  0.00    -0.344 A  
HETATM    9  C   UNL     1     -10.718  15.872  67.379  1.00  0.00    -0.313 A  
HETATM   10  C   UNL     1     -10.799  16.629  68.544  1.00  0.00    -0.356 A  
ENDBRANCH   1   2
BRANCH   1  11
HETATM   11  S   UNL     1     -12.911   9.862  70.495  1.00  0.00     0.091 SA 
BRANCH  11  12
HETATM   12  C   UNL     1     -12.164   8.635  71.508  1.00  0.00    -0.318 A  
HETATM   13  C   UNL     1      -9.204   6.333  74.199  1.00  0.00    -0.164 A  
HETATM   14  C   UNL     1      -9.976   5.214  73.906  1.00  0.00    -0.196 A  
HETATM   15  N   UNL     1     -11.115   8.883  72.261  1.00  0.00    -0.283 NA 
HETATM   16  C   UNL     1     -11.103   5.315  73.085  1.00  0.00    -0.384 A  
HETATM   17  C   UNL     1     -10.675   7.713  72.848  1.00  0.00    -0.371 A  
HETATM   18  C   UNL     1     -11.434   6.577  72.564  1.00  0.00    -0.239 A  
HETATM   19  C   UNL     1      -9.544   7.586  73.678  1.00  0.00    -0.347 A  
HETATM   20  S   UNL     1     -12.737   7.021  71.529  1.00  0.00    -0.354 SA 
ENDBRANCH  11  12
ENDBRANCH   1  11
TORSDOF 3
ENDMDL
MODEL      123
REMARK 921   NORMALIZED FREE ENERGY PREDICTED BY IDOCK:   -4.53 KCAL/MOL
REMARK 922        TOTAL FREE ENERGY PREDICTED BY IDOCK:   -5.62 KCAL/MOL
REMARK 923 INTER-LIGAND FREE ENERGY PREDICTED BY IDOCK:   -5.47 KCAL/MOL
REMARK 924 INTRA-LIGAND FREE ENERGY PREDICTED BY IDOCK:   -0.16 KCAL/MOL
REMARK 927      BINDING AFFINITY PREDICTED BY RF-SCORE:    0.00 PKD
ROOT
HETATM    1  S   UNL     1      -9.558  10.718  69.059  1.00  0.00    -0.143 SA 
ENDROOT
BRANCH   1   2
HETATM    2  C   UNL     1     -10.132  11.799  67.795  1.00  0.00    -0.188 A  
HETATM    3  S   UNL     1      -9.460  13.362  67.585  1.00  0.00    -0.226 SA 
HETATM    4  N   UNL     1     -11.081  11.465  66.948  1.00  0.00    -0.296 NA 
HETATM    5  C   UNL     1     -10.503  13.630  66.242  1.00  0.00    -0.291 A  
HETATM    6  C   UNL     1     -11.295  12.496  66.052  1.00  0.00    -0.344 A  
HETATM    7  C   UNL     1     -10.617  14.762  65.418  1.00  0.00    -0.395 A  
HETATM    8  C   UNL     1     -12.228  12.490  64.996  1.00  0.00    -0.519 A  
HETATM    9  C   UNL     1     -11.560  14.735  64.385  1.00  0.00    -0.304 A  
HETATM   10  C   UNL     1     -12.355  13.613  64.173  1.00  0.00    -0.385 A  
ENDBRANCH   1   2
BRANCH   1  11
HETATM   11  S   UNL     1     -11.353  10.169  69.918  1.00  0.00    -0.270 SA 
BRANCH  11  12
HETATM   12  C   UNL     1     -10.819   8.790  70.866  1.00  0.00    -0.238 A  
HETATM   13  C   UNL     1     -10.756   4.945  73.421  1.00  0.00    -0.329 A  
HETATM   14  C   UNL     1      -9.448   5.302  73.730  1.00  0.00    -0.133 A  
HETATM   15  N   UNL     1     -11.610   7.779  71.150  1.00  0.00    -0.278 NA 
HETATM   16  C   UNL     1      -8.872   6.456  73.191  1.00  0.00    -0.132 A  
HETATM   17  C   UNL     1     -10.964   6.905  72.003  1.00  0.00    -0.235 A  
HETATM   18  C   UNL     1      -9.651   7.246  72.329  1.00  0.00    -0.146 A  
HETATM   19  C   UNL     1     -11.522   5.737  72.558  1.00  0.00    -0.349 A  
HETATM   20  S   UNL     1      -9.238   8.711  71.523  1.00  0.00    -0.266 SA 
ENDBRANCH  11  12
ENDBRANCH   1  11
TORSDOF 3
ENDMDL
MODEL      124
REMARK 921   NORMALIZED FREE ENERGY PREDICTED BY IDOCK:   -4.49 KCAL/MOL
REMARK 922        TOTAL FREE ENERGY PREDICTED BY IDOCK:   -5.58 KCAL/MOL
REMARK 923 INTER-LIGAND FREE ENERGY PREDICTED BY IDOCK:   -5.31 KCAL/MOL
REMARK 924 INTRA-LIGAND FREE ENERGY PREDICTED BY IDOCK:   -0.27 KCAL/MOL
REMARK 927      BINDING AFFINITY PREDICTED BY RF-SCORE:    0.00 PKD
ROOT
HETATM    1  S   UNL     1     -10.228  15.627  65.778  1.00  0.00    -0.394 SA 
ENDROOT
BRANCH   1   2
HETATM    2  C   UNL     1      -9.639  13.993  66.059  1.00  0.00    -0.205 A  
HETATM    3  S   UNL     1      -8.299  13.692  67.087  1.00  0.00    -0.084 SA 
HETATM    4  N   UNL     1     -10.196  12.931  65.519  1.00  0.00    -0.288 NA 
HETATM    5  C   UNL     1      -8.467  12.002  66.810  1.00  0.00    -0.155 A  
HETATM    6  C   UNL     1      -9.544  11.789  65.946  1.00  0.00    -0.230 A  
HETATM    7  C   UNL     1      -7.702  10.938  67.317  1.00  0.00    -0.112 A  
HETATM    8  C   UNL     1      -9.870  10.468  65.582  1.00  0.00    -0.311 A  
HETATM    9  C   UNL     1      -8.039   9.637  66.929  1.00  0.00    -0.113 A  
HETATM   10  C   UNL     1      -9.112   9.402  66.075  1.00  0.00    -0.228 A  
ENDBRANCH   1   2
BRANCH   1  11
HETATM   11  S   UNL     1     -10.037  16.419  67.674  1.00  0.00    -0.270 SA 
BRANCH  11  12
HETATM   12  C   UNL     1      -8.993  17.788  67.321  1.00  0.00    -0.246 A  
HETATM   13  C   UNL     1      -5.800  20.535  65.431  1.00  0.00    -0.245 A  
HETATM   14  C   UNL     1      -5.920  21.291  66.592  1.00  0.00    -0.370 A  
HETATM   15  N   UNL     1      -8.311  17.886  66.201  1.00  0.00    -0.486 NA 
HETATM   16  C   UNL     1      -6.818  20.924  67.599  1.00  0.00    -0.387 A  
HETATM   17  C   UNL     1      -7.492  18.997  66.249  1.00  0.00    -0.269 A  
HETATM   18  C   UNL     1      -7.594  19.769  67.407  1.00  0.00    -0.267 A  
HETATM   19  C   UNL     1      -6.581  19.389  65.248  1.00  0.00    -0.300 A  
HETATM   20  S   UNL     1      -8.765  19.057  68.449  1.00  0.00    -0.355 SA 
ENDBRANCH  11  12
ENDBRANCH   1  11
TORSDOF 3
ENDMDL
MODEL      125
REMARK 921   NORMALIZED FREE ENERGY PREDICTED BY IDOCK:   -4.48 KCAL/MOL
REMARK 922        TOTAL FREE ENERGY PREDICTED BY IDOCK:   -5.57 KCAL/MOL
REMARK 923 INTER-LIGAND FREE ENERGY PREDICTED BY IDOCK:   -5.37 KCAL/MOL
REMARK 924 INTRA-LIGAND FREE ENERGY PREDICTED BY IDOCK:   -0.20 KCAL/MOL
REMARK 927      BINDING AFFINITY PREDICTED BY RF-SCORE:    0.00 PKD
ROOT
HETATM    1  S   UNL     1      -9.816  13.506  66.655  1.00  0.00    -0.285 SA 
ENDROOT
BRANCH   1   2
HETATM    2  C   UNL     1     -10.670  13.777  68.169  1.00  0.00    -0.248 A  
HETATM    3  S   UNL     1     -11.667  12.565  68.859  1.00  0.00    -0.316 SA 
HETATM    4  N   UNL     1     -10.577  14.899  68.849  1.00  0.00    -0.239 NA 
HETATM    5  C   UNL     1     -12.007  13.603  70.190  1.00  0.00    -0.337 A  
HETATM    6  C   UNL     1     -11.327  14.809  70.007  1.00  0.00    -0.265 A  
HETATM    7  C   UNL     1     -12.818  13.372  71.313  1.00  0.00    -0.407 A  
HETATM    8  C   UNL     1     -11.457  15.816  70.985  1.00  0.00    -0.451 A  
HETATM    9  C   UNL     1     -12.939  14.391  72.263  1.00  0.00    -0.455 A  
HETATM   10  C   UNL     1     -12.265  15.599  72.104  1.00  0.00    -0.528 A  
ENDBRANCH   1   2
BRANCH   1  11
HETATM   11  S   UNL     1     -11.128  12.219  65.716  1.00  0.00    -0.336 SA 
BRANCH  11  12
HETATM   12  C   UNL     1      -9.981  11.096  65.000  1.00  0.00    -0.273 A  
HETATM   13  C   UNL     1      -6.476   8.156  64.384  1.00  0.00    -0.065 A  
HETATM   14  C   UNL     1      -6.664   8.386  63.026  1.00  0.00    -0.090 A  
HETATM   15  N   UNL     1      -9.191  10.334  65.724  1.00  0.00    -0.166 NA 
HETATM   16  C   UNL     1      -7.673   9.243  62.575  1.00  0.00    -0.116 A  
HETATM   17  C   UNL     1      -8.320   9.648  64.900  1.00  0.00    -0.148 A  
HETATM   18  C   UNL     1      -8.490   9.867  63.533  1.00  0.00    -0.183 A  
HETATM   19  C   UNL     1      -7.297   8.779  65.329  1.00  0.00    -0.085 A  
HETATM   20  S   UNL     1      -9.793  10.969  63.302  1.00  0.00    -0.380 SA 
ENDBRANCH  11  12
ENDBRANCH   1  11
TORSDOF 3
ENDMDL
MODEL      126
REMARK 921   NORMALIZED FREE ENERGY PREDICTED BY IDOCK:   -4.48 KCAL/MOL
REMARK 922        TOTAL FREE ENERGY PREDICTED BY IDOCK:   -5.57 KCAL/MOL
REMARK 923 INTER-LIGAND FREE ENERGY PREDICTED BY IDOCK:   -5.41 KCAL/MOL
REMARK 924 INTRA-LIGAND FREE ENERGY PREDICTED BY IDOCK:   -0.16 KCAL/MOL
REMARK 927      BINDING AFFINITY PREDICTED BY RF-SCORE:    0.00 PKD
ROOT
HETATM    1  S   UNL     1     -10.386   9.249  68.362  1.00  0.00    -0.209 SA 
ENDROOT
BRANCH   1   2
HETATM    2  C   UNL     1     -10.321   8.033  69.632  1.00  0.00    -0.220 A  
HETATM    3  S   UNL     1      -8.846   7.273  70.063  1.00  0.00    -0.141 SA 
HETATM    4  N   UNL     1     -11.379   7.662  70.319  1.00  0.00    -0.230 NA 
HETATM    5  C   UNL     1      -9.666   6.372  71.279  1.00  0.00    -0.174 A  
HETATM    6  C   UNL     1     -11.018   6.722  71.267  1.00  0.00    -0.249 A  
HETATM    7  C   UNL     1      -9.154   5.422  72.178  1.00  0.00    -0.147 A  
HETATM    8  C   UNL     1     -11.886   6.106  72.189  1.00  0.00    -0.339 A  
HETATM    9  C   UNL     1     -10.040   4.816  73.075  1.00  0.00    -0.201 A  
HETATM   10  C   UNL     1     -11.389   5.155  73.085  1.00  0.00    -0.385 A  
ENDBRANCH   1   2
BRANCH   1  11
HETATM   11  S   UNL     1     -11.212  10.828  69.406  1.00  0.00    -0.299 SA 
BRANCH  11  12
HETATM   12  C   UNL     1     -10.934  12.124  68.252  1.00  0.00    -0.234 A  
HETATM   13  C   UNL     1     -10.430  16.289  66.327  1.00  0.00    -0.314 A  
HETATM   14  C   UNL     1     -10.574  15.626  65.113  1.00  0.00    -0.449 A  
HETATM   15  N   UNL     1     -10.702  13.364  68.625  1.00  0.00    -0.253 NA 
HETATM   16  C   UNL     1     -10.755  14.240  65.069  1.00  0.00    -0.435 A  
HETATM   17  C   UNL     1     -10.642  14.182  67.513  1.00  0.00    -0.257 A  
HETATM   18  C   UNL     1     -10.788  13.536  66.285  1.00  0.00    -0.289 A  
HETATM   19  C   UNL     1     -10.461  15.579  67.532  1.00  0.00    -0.282 A  
HETATM   20  S   UNL     1     -11.001  11.850  66.562  1.00  0.00    -0.304 SA 
ENDBRANCH  11  12
ENDBRANCH   1  11
TORSDOF 3
ENDMDL
MODEL      127
REMARK 921   NORMALIZED FREE ENERGY PREDICTED BY IDOCK:   -4.48 KCAL/MOL
REMARK 922        TOTAL FREE ENERGY PREDICTED BY IDOCK:   -5.57 KCAL/MOL
REMARK 923 INTER-LIGAND FREE ENERGY PREDICTED BY IDOCK:   -5.41 KCAL/MOL
REMARK 924 INTRA-LIGAND FREE ENERGY PREDICTED BY IDOCK:   -0.16 KCAL/MOL
REMARK 927      BINDING AFFINITY PREDICTED BY RF-SCORE:    0.00 PKD
ROOT
HETATM    1  S   UNL     1     -11.510   9.420  69.897  1.00  0.00     0.069 SA 
ENDROOT
BRANCH   1   2
HETATM    2  C   UNL     1     -11.969  11.058  70.346  1.00  0.00    -0.368 A  
HETATM    3  S   UNL     1     -11.588  12.397  69.345  1.00  0.00    -0.295 SA 
HETATM    4  N   UNL     1     -12.633  11.335  71.447  1.00  0.00    -0.373 NA 
HETATM    5  C   UNL     1     -12.379  13.450  70.453  1.00  0.00    -0.312 A  
HETATM    6  C   UNL     1     -12.881  12.694  71.515  1.00  0.00    -0.268 A  
HETATM    7  C   UNL     1     -12.542  14.843  70.392  1.00  0.00    -0.394 A  
HETATM    8  C   UNL     1     -13.576  13.354  72.548  1.00  0.00    -0.659 A  
HETATM    9  C   UNL     1     -13.226  15.475  71.436  1.00  0.00    -0.587 A  
HETATM   10  C   UNL     1     -13.740  14.741  72.501  1.00  0.00    -0.572 A  
ENDBRANCH   1   2
BRANCH   1  11
HETATM   11  S   UNL     1      -9.954   9.815  68.599  1.00  0.00    -0.175 SA 
BRANCH  11  12
HETATM   12  C   UNL     1      -9.827   8.254  67.803  1.00  0.00    -0.170 A  
HETATM   13  C   UNL     1      -8.704   4.871  64.869  1.00  0.00    -0.150 A  
HETATM   14  C   UNL     1      -9.772   4.179  65.428  1.00  0.00    -0.201 A  
HETATM   15  N   UNL     1      -8.910   7.996  66.897  1.00  0.00    -0.128 NA 
HETATM   16  C   UNL     1     -10.535   4.744  66.455  1.00  0.00    -0.283 A  
HETATM   17  C   UNL     1      -9.124   6.740  66.361  1.00  0.00    -0.152 A  
HETATM   18  C   UNL     1     -10.194   6.030  66.905  1.00  0.00    -0.210 A  
HETATM   19  C   UNL     1      -8.369   6.150  65.328  1.00  0.00    -0.144 A  
HETATM   20  S   UNL     1     -10.934   6.988  68.130  1.00  0.00    -0.039 SA 
ENDBRANCH  11  12
ENDBRANCH   1  11
TORSDOF 3
ENDMDL
MODEL      128
REMARK 921   NORMALIZED FREE ENERGY PREDICTED BY IDOCK:   -4.47 KCAL/MOL
REMARK 922        TOTAL FREE ENERGY PREDICTED BY IDOCK:   -5.56 KCAL/MOL
REMARK 923 INTER-LIGAND FREE ENERGY PREDICTED BY IDOCK:   -5.34 KCAL/MOL
REMARK 924 INTRA-LIGAND FREE ENERGY PREDICTED BY IDOCK:   -0.23 KCAL/MOL
REMARK 927      BINDING AFFINITY PREDICTED BY RF-SCORE:    0.00 PKD
ROOT
HETATM    1  S   UNL     1     -11.026  13.940  65.929  1.00  0.00    -0.288 SA 
ENDROOT
BRANCH   1   2
HETATM    2  C   UNL     1     -10.703  12.292  66.454  1.00  0.00    -0.251 A  
HETATM    3  S   UNL     1     -11.089  11.769  68.040  1.00  0.00    -0.264 SA 
HETATM    4  N   UNL     1     -10.173  11.384  65.664  1.00  0.00    -0.241 NA 
HETATM    5  C   UNL     1     -10.517  10.191  67.659  1.00  0.00    -0.245 A  
HETATM    6  C   UNL     1     -10.070  10.179  66.336  1.00  0.00    -0.236 A  
HETATM    7  C   UNL     1     -10.463   9.046  68.470  1.00  0.00    -0.232 A  
HETATM    8  C   UNL     1      -9.558   8.980  65.804  1.00  0.00    -0.287 A  
HETATM    9  C   UNL     1      -9.939   7.871  67.922  1.00  0.00    -0.220 A  
HETATM   10  C   UNL     1      -9.494   7.835  66.603  1.00  0.00    -0.263 A  
ENDBRANCH   1   2
BRANCH   1  11
HETATM   11  S   UNL     1     -11.631  14.783  67.714  1.00  0.00    -0.345 SA 
BRANCH  11  12
HETATM   12  C   UNL     1     -10.405  16.030  67.884  1.00  0.00    -0.269 A  
HETATM   13  C   UNL     1      -6.542  18.304  68.987  1.00  0.00    -0.263 A  
HETATM   14  C   UNL     1      -7.264  19.455  68.691  1.00  0.00    -0.374 A  
HETATM   15  N   UNL     1      -9.170  15.762  68.249  1.00  0.00    -0.186 NA 
HETATM   16  C   UNL     1      -8.590  19.378  68.255  1.00  0.00    -0.376 A  
HETATM   17  C   UNL     1      -8.466  16.940  68.415  1.00  0.00    -0.239 A  
HETATM   18  C   UNL     1      -9.174  18.107  68.126  1.00  0.00    -0.291 A  
HETATM   19  C   UNL     1      -7.131  17.043  68.851  1.00  0.00    -0.233 A  
HETATM   20  S   UNL     1     -10.768  17.685  67.630  1.00  0.00    -0.233 SA 
ENDBRANCH  11  12
ENDBRANCH   1  11
TORSDOF 3
ENDMDL
MODEL      129
REMARK 921   NORMALIZED FREE ENERGY PREDICTED BY IDOCK:   -4.46 KCAL/MOL
REMARK 922        TOTAL FREE ENERGY PREDICTED BY IDOCK:   -5.55 KCAL/MOL
REMARK 923 INTER-LIGAND FREE ENERGY PREDICTED BY IDOCK:   -5.40 KCAL/MOL
REMARK 924 INTRA-LIGAND FREE ENERGY PREDICTED BY IDOCK:   -0.15 KCAL/MOL
REMARK 927      BINDING AFFINITY PREDICTED BY RF-SCORE:    0.00 PKD
ROOT
HETATM    1  S   UNL     1     -11.461   9.337  70.463  1.00  0.00    -0.217 SA 
ENDROOT
BRANCH   1   2
HETATM    2  C   UNL     1     -10.905   8.065  71.544  1.00  0.00    -0.232 A  
HETATM    3  S   UNL     1      -9.616   8.329  72.643  1.00  0.00    -0.267 SA 
HETATM    4  N   UNL     1     -11.451   6.869  71.576  1.00  0.00    -0.263 NA 
HETATM    5  C   UNL     1      -9.792   6.722  73.234  1.00  0.00    -0.190 A  
HETATM    6  C   UNL     1     -10.832   6.097  72.542  1.00  0.00    -0.240 A  
HETATM    7  C   UNL     1      -9.062   6.059  74.235  1.00  0.00    -0.132 A  
HETATM    8  C   UNL     1     -11.158   4.765  72.867  1.00  0.00    -0.301 A  
HETATM    9  C   UNL     1      -9.398   4.733  74.529  1.00  0.00    -0.134 A  
HETATM   10  C   UNL     1     -10.435   4.093  73.857  1.00  0.00    -0.274 A  
ENDBRANCH   1   2
BRANCH   1  11
HETATM   11  S   UNL     1      -9.669   9.907  69.612  1.00  0.00    -0.234 SA 
BRANCH  11  12
HETATM   12  C   UNL     1     -10.260  10.590  68.104  1.00  0.00    -0.162 A  
HETATM   13  C   UNL     1     -10.847  11.576  63.633  1.00  0.00    -0.488 A  
HETATM   14  C   UNL     1     -11.558  12.684  64.082  1.00  0.00    -0.458 A  
HETATM   15  N   UNL     1      -9.968  10.072  66.931  1.00  0.00    -0.199 NA 
HETATM   16  C   UNL     1     -11.737  12.916  65.449  1.00  0.00    -0.413 A  
HETATM   17  C   UNL     1     -10.465  10.880  65.927  1.00  0.00    -0.221 A  
HETATM   18  C   UNL     1     -11.179  12.000  66.357  1.00  0.00    -0.337 A  
HETATM   19  C   UNL     1     -10.299  10.668  64.545  1.00  0.00    -0.352 A  
HETATM   20  S   UNL     1     -11.215  12.012  68.078  1.00  0.00    -0.282 SA 
ENDBRANCH  11  12
ENDBRANCH   1  11
TORSDOF 3
ENDMDL
MODEL      130
REMARK 921   NORMALIZED FREE ENERGY PREDICTED BY IDOCK:   -4.45 KCAL/MOL
REMARK 922        TOTAL FREE ENERGY PREDICTED BY IDOCK:   -5.54 KCAL/MOL
REMARK 923 INTER-LIGAND FREE ENERGY PREDICTED BY IDOCK:   -5.33 KCAL/MOL
REMARK 924 INTRA-LIGAND FREE ENERGY PREDICTED BY IDOCK:   -0.20 KCAL/MOL
REMARK 927      BINDING AFFINITY PREDICTED BY RF-SCORE:    0.00 PKD
ROOT
HETATM    1  S   UNL     1     -10.655   9.184  67.519  1.00  0.00    -0.192 SA 
ENDROOT
BRANCH   1   2
HETATM    2  C   UNL     1     -10.054   8.069  68.740  1.00  0.00    -0.195 A  
HETATM    3  S   UNL     1      -8.396   8.030  69.173  1.00  0.00    -0.133 SA 
HETATM    4  N   UNL     1     -10.835   7.232  69.387  1.00  0.00    -0.221 NA 
HETATM    5  C   UNL     1      -8.728   6.803  70.333  1.00  0.00    -0.151 A  
HETATM    6  C   UNL     1     -10.093   6.511  70.305  1.00  0.00    -0.179 A  
HETATM    7  C   UNL     1      -7.846   6.142  71.205  1.00  0.00    -0.111 A  
HETATM    8  C   UNL     1     -10.596   5.530  71.182  1.00  0.00    -0.303 A  
HETATM    9  C   UNL     1      -8.368   5.163  72.057  1.00  0.00    -0.125 A  
HETATM   10  C   UNL     1      -9.727   4.861  72.050  1.00  0.00    -0.219 A  
ENDBRANCH   1   2
BRANCH   1  11
HETATM   11  S   UNL     1      -9.662  10.907  68.071  1.00  0.00    -0.169 SA 
BRANCH  11  12
HETATM   12  C   UNL     1     -10.878  11.630  69.114  1.00  0.00    -0.184 A  
HETATM   13  C   UNL     1     -13.529  14.671  71.356  1.00  0.00    -0.462 A  
HETATM   14  C   UNL     1     -13.865  13.605  72.183  1.00  0.00    -0.642 A  
HETATM   15  N   UNL     1     -11.229  12.893  69.020  1.00  0.00    -0.267 NA 
HETATM   16  C   UNL     1     -13.338  12.329  71.960  1.00  0.00    -0.491 A  
HETATM   17  C   UNL     1     -12.109  13.211  70.036  1.00  0.00    -0.305 A  
HETATM   18  C   UNL     1     -12.457  12.155  70.880  1.00  0.00    -0.279 A  
HETATM   19  C   UNL     1     -12.655  14.486  70.280  1.00  0.00    -0.378 A  
HETATM   20  S   UNL     1     -11.643  10.731  70.356  1.00  0.00    -0.328 SA 
ENDBRANCH  11  12
ENDBRANCH   1  11
TORSDOF 3
ENDMDL
MODEL      131
REMARK 921   NORMALIZED FREE ENERGY PREDICTED BY IDOCK:   -4.45 KCAL/MOL
REMARK 922        TOTAL FREE ENERGY PREDICTED BY IDOCK:   -5.53 KCAL/MOL
REMARK 923 INTER-LIGAND FREE ENERGY PREDICTED BY IDOCK:   -5.14 KCAL/MOL
REMARK 924 INTRA-LIGAND FREE ENERGY PREDICTED BY IDOCK:   -0.39 KCAL/MOL
REMARK 927      BINDING AFFINITY PREDICTED BY RF-SCORE:    0.00 PKD
ROOT
HETATM    1  S   UNL     1     -10.351  12.060  65.181  1.00  0.00    -0.285 SA 
ENDROOT
BRANCH   1   2
HETATM    2  C   UNL     1      -9.815  11.362  66.705  1.00  0.00    -0.206 A  
HETATM    3  S   UNL     1      -8.197  11.539  67.246  1.00  0.00    -0.162 SA 
HETATM    4  N   UNL     1     -10.617  10.694  67.504  1.00  0.00    -0.233 NA 
HETATM    5  C   UNL     1      -8.581  10.664  68.678  1.00  0.00    -0.144 A  
HETATM    6  C   UNL     1      -9.928  10.299  68.637  1.00  0.00    -0.173 A  
HETATM    7  C   UNL     1      -7.752  10.322  69.758  1.00  0.00    -0.159 A  
HETATM    8  C   UNL     1     -10.467   9.571  69.717  1.00  0.00    -0.253 A  
HETATM    9  C   UNL     1      -8.308   9.589  70.812  1.00  0.00    -0.083 A  
HETATM   10  C   UNL     1      -9.650   9.220  70.795  1.00  0.00    -0.341 A  
ENDBRANCH   1   2
BRANCH   1  11
HETATM   11  S   UNL     1     -12.181  12.827  65.751  1.00  0.00    -0.320 SA 
BRANCH  11  12
HETATM   12  C   UNL     1     -11.662  14.366  66.422  1.00  0.00    -0.386 A  
HETATM   13  C   UNL     1      -9.718  18.519  66.959  1.00  0.00    -0.321 A  
HETATM   14  C   UNL     1      -9.935  18.324  68.319  1.00  0.00    -0.382 A  
HETATM   15  N   UNL     1     -11.177  15.334  65.676  1.00  0.00    -0.297 NA 
HETATM   16  C   UNL     1     -10.553  17.161  68.788  1.00  0.00    -0.336 A  
HETATM   17  C   UNL     1     -10.743  16.371  66.480  1.00  0.00    -0.163 A  
HETATM   18  C   UNL     1     -10.948  16.193  67.849  1.00  0.00    -0.318 A  
HETATM   19  C   UNL     1     -10.119  17.551  66.032  1.00  0.00    -0.270 A  
HETATM   20  S   UNL     1     -11.713  14.673  68.107  1.00  0.00    -0.310 SA 
ENDBRANCH  11  12
ENDBRANCH   1  11
TORSDOF 3
ENDMDL
MODEL      132
REMARK 921   NORMALIZED FREE ENERGY PREDICTED BY IDOCK:   -4.44 KCAL/MOL
REMARK 922        TOTAL FREE ENERGY PREDICTED BY IDOCK:   -5.53 KCAL/MOL
REMARK 923 INTER-LIGAND FREE ENERGY PREDICTED BY IDOCK:   -4.99 KCAL/MOL
REMARK 924 INTRA-LIGAND FREE ENERGY PREDICTED BY IDOCK:   -0.54 KCAL/MOL
REMARK 927      BINDING AFFINITY PREDICTED BY RF-SCORE:    0.00 PKD
ROOT
HETATM    1  S   UNL     1      -8.482   5.813  72.389  1.00  0.00    -0.117 SA 
ENDROOT
BRANCH   1   2
HETATM    2  C   UNL     1      -9.926   6.807  72.226  1.00  0.00    -0.158 A  
HETATM    3  S   UNL     1      -9.831   8.518  72.199  1.00  0.00    -0.315 SA 
HETATM    4  N   UNL     1     -11.131   6.297  72.101  1.00  0.00    -0.255 NA 
HETATM    5  C   UNL     1     -11.538   8.608  71.991  1.00  0.00    -0.370 A  
HETATM    6  C   UNL     1     -12.058   7.313  71.956  1.00  0.00    -0.290 A  
HETATM    7  C   UNL     1     -12.359   9.741  71.870  1.00  0.00    -0.417 A  
HETATM    8  C   UNL     1     -13.447   7.144  71.789  1.00  0.00    -0.348 A  
HETATM    9  C   UNL     1     -13.736   9.546  71.717  1.00  0.00    -0.385 A  
HETATM   10  C   UNL     1     -14.275   8.264  71.673  1.00  0.00    -0.530 A  
ENDBRANCH   1   2
BRANCH   1  11
HETATM   11  S   UNL     1      -8.713   4.558  70.767  1.00  0.00    -0.095 SA 
BRANCH  11  12
HETATM   12  C   UNL     1      -8.958   5.752  69.500  1.00  0.00    -0.124 A  
HETATM   13  C   UNL     1      -8.546   9.474  66.800  1.00  0.00    -0.133 A  
HETATM   14  C   UNL     1      -9.826   9.158  66.356  1.00  0.00    -0.350 A  
HETATM   15  N   UNL     1      -8.060   6.667  69.209  1.00  0.00    -0.115 NA 
HETATM   16  C   UNL     1     -10.501   8.038  66.849  1.00  0.00    -0.387 A  
HETATM   17  C   UNL     1      -8.568   7.536  68.263  1.00  0.00    -0.124 A  
HETATM   18  C   UNL     1      -9.853   7.240  67.806  1.00  0.00    -0.149 A  
HETATM   19  C   UNL     1      -7.908   8.670  67.751  1.00  0.00    -0.103 A  
HETATM   20  S   UNL     1     -10.415   5.820  68.602  1.00  0.00    -0.226 SA 
ENDBRANCH  11  12
ENDBRANCH   1  11
TORSDOF 3
ENDMDL
MODEL      133
REMARK 921   NORMALIZED FREE ENERGY PREDICTED BY IDOCK:   -4.44 KCAL/MOL
REMARK 922        TOTAL FREE ENERGY PREDICTED BY IDOCK:   -5.53 KCAL/MOL
REMARK 923 INTER-LIGAND FREE ENERGY PREDICTED BY IDOCK:   -5.05 KCAL/MOL
REMARK 924 INTRA-LIGAND FREE ENERGY PREDICTED BY IDOCK:   -0.47 KCAL/MOL
REMARK 927      BINDING AFFINITY PREDICTED BY RF-SCORE:    0.00 PKD
ROOT
HETATM    1  S   UNL     1     -10.579   8.505  71.981  1.00  0.00    -0.354 SA 
ENDROOT
BRANCH   1   2
HETATM    2  C   UNL     1     -10.473   9.671  70.667  1.00  0.00    -0.312 A  
HETATM    3  S   UNL     1      -9.067   9.790  69.692  1.00  0.00    -0.230 SA 
HETATM    4  N   UNL     1     -11.456  10.488  70.358  1.00  0.00    -0.323 NA 
HETATM    5  C   UNL     1      -9.819  11.027  68.761  1.00  0.00    -0.198 A  
HETATM    6  C   UNL     1     -11.100  11.259  69.267  1.00  0.00    -0.255 A  
HETATM    7  C   UNL     1      -9.314  11.743  67.663  1.00  0.00    -0.180 A  
HETATM    8  C   UNL     1     -11.906  12.237  68.650  1.00  0.00    -0.354 A  
HETATM    9  C   UNL     1     -10.130  12.717  67.077  1.00  0.00    -0.240 A  
HETATM   10  C   UNL     1     -11.412  12.960  67.561  1.00  0.00    -0.386 A  
ENDBRANCH   1   2
BRANCH   1  11
HETATM   11  S   UNL     1     -11.990   7.210  71.211  1.00  0.00    -0.355 SA 
BRANCH  11  12
HETATM   12  C   UNL     1     -11.024   6.421  69.973  1.00  0.00    -0.337 A  
HETATM   13  C   UNL     1      -9.647   4.471  66.022  1.00  0.00    -0.190 A  
HETATM   14  C   UNL     1      -8.588   3.965  66.767  1.00  0.00    -0.107 A  
HETATM   15  N   UNL     1     -11.389   6.382  68.710  1.00  0.00    -0.279 NA 
HETATM   16  C   UNL     1      -8.462   4.258  68.128  1.00  0.00    -0.102 A  
HETATM   17  C   UNL     1     -10.505   5.599  67.993  1.00  0.00    -0.200 A  
HETATM   18  C   UNL     1      -9.436   5.077  68.723  1.00  0.00    -0.139 A  
HETATM   19  C   UNL     1     -10.609   5.290  66.622  1.00  0.00    -0.334 A  
HETATM   20  S   UNL     1      -9.567   5.606  70.357  1.00  0.00    -0.177 SA 
ENDBRANCH  11  12
ENDBRANCH   1  11
TORSDOF 3
ENDMDL
MODEL      134
REMARK 921   NORMALIZED FREE ENERGY PREDICTED BY IDOCK:   -4.44 KCAL/MOL
REMARK 922        TOTAL FREE ENERGY PREDICTED BY IDOCK:   -5.52 KCAL/MOL
REMARK 923 INTER-LIGAND FREE ENERGY PREDICTED BY IDOCK:   -5.24 KCAL/MOL
REMARK 924 INTRA-LIGAND FREE ENERGY PREDICTED BY IDOCK:   -0.28 KCAL/MOL
REMARK 927      BINDING AFFINITY PREDICTED BY RF-SCORE:    0.00 PKD
ROOT
HETATM    1  S   UNL     1      -8.782   6.007  69.115  1.00  0.00    -0.119 SA 
ENDROOT
BRANCH   1   2
HETATM    2  C   UNL     1      -9.190   5.127  67.647  1.00  0.00    -0.117 A  
HETATM    3  S   UNL     1     -10.490   5.618  66.644  1.00  0.00    -0.268 SA 
HETATM    4  N   UNL     1      -8.518   4.072  67.240  1.00  0.00    -0.099 NA 
HETATM    5  C   UNL     1     -10.138   4.331  65.557  1.00  0.00    -0.223 A  
HETATM    6  C   UNL     1      -9.043   3.614  66.045  1.00  0.00    -0.155 A  
HETATM    7  C   UNL     1     -10.784   3.976  64.362  1.00  0.00    -0.191 A  
HETATM    8  C   UNL     1      -8.574   2.509  65.308  1.00  0.00    -0.110 A  
HETATM    9  C   UNL     1     -10.306   2.867  63.655  1.00  0.00    -0.197 A  
HETATM   10  C   UNL     1      -9.212   2.143  64.119  1.00  0.00    -0.118 A  
ENDBRANCH   1   2
BRANCH   1  11
HETATM   11  S   UNL     1     -10.301   5.372  70.360  1.00  0.00    -0.277 SA 
BRANCH  11  12
HETATM   12  C   UNL     1     -11.132   6.899  70.619  1.00  0.00    -0.278 A  
HETATM   13  C   UNL     1     -12.210  11.387  70.665  1.00  0.00    -0.484 A  
HETATM   14  C   UNL     1     -13.144  11.041  71.635  1.00  0.00    -0.543 A  
HETATM   15  N   UNL     1     -10.791   8.003  69.992  1.00  0.00    -0.248 NA 
HETATM   16  C   UNL     1     -13.294   9.714  72.047  1.00  0.00    -0.547 A  
HETATM   17  C   UNL     1     -11.532   9.064  70.479  1.00  0.00    -0.212 A  
HETATM   18  C   UNL     1     -12.473   8.739  71.456  1.00  0.00    -0.326 A  
HETATM   19  C   UNL     1     -11.400  10.408  70.080  1.00  0.00    -0.384 A  
HETATM   20  S   UNL     1     -12.409   7.044  71.751  1.00  0.00    -0.347 SA 
ENDBRANCH  11  12
ENDBRANCH   1  11
TORSDOF 3
ENDMDL
MODEL      135
REMARK 921   NORMALIZED FREE ENERGY PREDICTED BY IDOCK:   -4.42 KCAL/MOL
REMARK 922        TOTAL FREE ENERGY PREDICTED BY IDOCK:   -5.50 KCAL/MOL
REMARK 923 INTER-LIGAND FREE ENERGY PREDICTED BY IDOCK:   -4.98 KCAL/MOL
REMARK 924 INTRA-LIGAND FREE ENERGY PREDICTED BY IDOCK:   -0.52 KCAL/MOL
REMARK 927      BINDING AFFINITY PREDICTED BY RF-SCORE:    0.00 PKD
ROOT
HETATM    1  S   UNL     1      -7.254   7.113  70.320  1.00  0.00    -0.072 SA 
ENDROOT
BRANCH   1   2
HETATM    2  C   UNL     1      -7.855   8.222  69.093  1.00  0.00    -0.106 A  
HETATM    3  S   UNL     1      -7.277   9.833  68.988  1.00  0.00    -0.079 SA 
HETATM    4  N   UNL     1      -8.751   7.875  68.196  1.00  0.00    -0.126 NA 
HETATM    5  C   UNL     1      -8.291  10.107  67.624  1.00  0.00    -0.114 A  
HETATM    6  C   UNL     1      -9.001   8.937  67.347  1.00  0.00    -0.132 A  
HETATM    7  C   UNL     1      -8.451  11.272  66.856  1.00  0.00    -0.152 A  
HETATM    8  C   UNL     1      -9.897   8.930  66.259  1.00  0.00    -0.355 A  
HETATM    9  C   UNL     1      -9.355  11.242  65.789  1.00  0.00    -0.245 A  
HETATM   10  C   UNL     1     -10.069  10.085  65.490  1.00  0.00    -0.325 A  
ENDBRANCH   1   2
BRANCH   1  11
HETATM   11  S   UNL     1      -7.857   8.095  72.032  1.00  0.00    -0.127 SA 
BRANCH  11  12
HETATM   12  C   UNL     1      -9.601   7.998  71.832  1.00  0.00    -0.183 A  
HETATM   13  C   UNL     1     -14.120   8.928  71.969  1.00  0.00    -0.477 A  
HETATM   14  C   UNL     1     -14.295   7.585  71.655  1.00  0.00    -0.621 A  
HETATM   15  N   UNL     1     -10.392   9.032  72.015  1.00  0.00    -0.308 NA 
HETATM   16  C   UNL     1     -13.196   6.743  71.462  1.00  0.00    -0.222 A  
HETATM   17  C   UNL     1     -11.711   8.636  71.908  1.00  0.00    -0.352 A  
HETATM   18  C   UNL     1     -11.909   7.290  71.597  1.00  0.00    -0.298 A  
HETATM   19  C   UNL     1     -12.834   9.464  72.097  1.00  0.00    -0.480 A  
HETATM   20  S   UNL     1     -10.376   6.523  71.435  1.00  0.00    -0.209 SA 
ENDBRANCH  11  12
ENDBRANCH   1  11
TORSDOF 3
ENDMDL
MODEL      136
REMARK 921   NORMALIZED FREE ENERGY PREDICTED BY IDOCK:   -4.41 KCAL/MOL
REMARK 922        TOTAL FREE ENERGY PREDICTED BY IDOCK:   -5.49 KCAL/MOL
REMARK 923 INTER-LIGAND FREE ENERGY PREDICTED BY IDOCK:   -5.23 KCAL/MOL
REMARK 924 INTRA-LIGAND FREE ENERGY PREDICTED BY IDOCK:   -0.25 KCAL/MOL
REMARK 927      BINDING AFFINITY PREDICTED BY RF-SCORE:    0.00 PKD
ROOT
HETATM    1  S   UNL     1     -10.536  17.157  67.301  1.00  0.00    -0.280 SA 
ENDROOT
BRANCH   1   2
HETATM    2  C   UNL     1      -9.220  18.301  67.065  1.00  0.00    -0.274 A  
HETATM    3  S   UNL     1      -8.833  19.473  68.255  1.00  0.00    -0.324 SA 
HETATM    4  N   UNL     1      -8.465  18.306  65.988  1.00  0.00    -0.511 NA 
HETATM    5  C   UNL     1      -7.539  20.042  67.272  1.00  0.00    -0.286 A  
HETATM    6  C   UNL     1      -7.497  19.288  66.098  1.00  0.00    -0.278 A  
HETATM    7  C   UNL     1      -6.628  21.082  67.519  1.00  0.00    -0.438 A  
HETATM    8  C   UNL     1      -6.506  19.579  65.140  1.00  0.00    -0.313 A  
HETATM    9  C   UNL     1      -5.661  21.359  66.546  1.00  0.00    -0.353 A  
HETATM   10  C   UNL     1      -5.597  20.615  65.371  1.00  0.00    -0.239 A  
ENDBRANCH   1   2
BRANCH   1  11
HETATM   11  S   UNL     1     -10.140  15.821  65.779  1.00  0.00    -0.388 SA 
BRANCH  11  12
HETATM   12  C   UNL     1      -9.182  14.640  66.660  1.00  0.00    -0.267 A  
HETATM   13  C   UNL     1      -7.847  10.867  68.960  1.00  0.00    -0.138 A  
HETATM   14  C   UNL     1      -6.752  11.627  69.354  1.00  0.00    -0.110 A  
HETATM   15  N   UNL     1      -9.579  13.399  66.839  1.00  0.00    -0.249 NA 
HETATM   16  C   UNL     1      -6.600  12.947  68.920  1.00  0.00    -0.095 A  
HETATM   17  C   UNL     1      -8.690  12.738  67.663  1.00  0.00    -0.180 A  
HETATM   18  C   UNL     1      -7.585  13.485  68.074  1.00  0.00    -0.143 A  
HETATM   19  C   UNL     1      -8.820  11.410  68.114  1.00  0.00    -0.162 A  
HETATM   20  S   UNL     1      -7.688  15.060  67.386  1.00  0.00    -0.204 SA 
ENDBRANCH  11  12
ENDBRANCH   1  11
TORSDOF 3
ENDMDL
MODEL      137
REMARK 921   NORMALIZED FREE ENERGY PREDICTED BY IDOCK:   -4.36 KCAL/MOL
REMARK 922        TOTAL FREE ENERGY PREDICTED BY IDOCK:   -5.43 KCAL/MOL
REMARK 923 INTER-LIGAND FREE ENERGY PREDICTED BY IDOCK:   -5.16 KCAL/MOL
REMARK 924 INTRA-LIGAND FREE ENERGY PREDICTED BY IDOCK:   -0.27 KCAL/MOL
REMARK 927      BINDING AFFINITY PREDICTED BY RF-SCORE:    0.00 PKD
ROOT
HETATM    1  S   UNL     1     -11.906  12.939  68.378  1.00  0.00    -0.270 SA 
ENDROOT
BRANCH   1   2
HETATM    2  C   UNL     1     -11.122  11.478  67.789  1.00  0.00    -0.260 A  
HETATM    3  S   UNL     1     -10.103  11.507  66.411  1.00  0.00    -0.223 SA 
HETATM    4  N   UNL     1     -11.261  10.309  68.375  1.00  0.00    -0.254 NA 
HETATM    5  C   UNL     1      -9.799   9.823  66.601  1.00  0.00    -0.215 A  
HETATM    6  C   UNL     1     -10.505   9.359  67.713  1.00  0.00    -0.254 A  
HETATM    7  C   UNL     1      -8.998   8.971  65.822  1.00  0.00    -0.242 A  
HETATM    8  C   UNL     1     -10.400   7.998  68.063  1.00  0.00    -0.262 A  
HETATM    9  C   UNL     1      -8.922   7.622  66.184  1.00  0.00    -0.197 A  
HETATM   10  C   UNL     1      -9.611   7.140  67.293  1.00  0.00    -0.179 A  
ENDBRANCH   1   2
BRANCH   1  11
HETATM   11  S   UNL     1     -12.167  13.958  66.603  1.00  0.00    -0.375 SA 
BRANCH  11  12
HETATM   12  C   UNL     1     -10.880  15.146  66.749  1.00  0.00    -0.322 A  
HETATM   13  C   UNL     1      -8.355  18.783  68.054  1.00  0.00    -0.315 A  
HETATM   14  C   UNL     1      -7.625  18.556  66.893  1.00  0.00    -0.235 A  
HETATM   15  N   UNL     1     -10.807  15.988  67.756  1.00  0.00    -0.326 NA 
HETATM   16  C   UNL     1      -7.946  17.496  66.039  1.00  0.00    -0.192 A  
HETATM   17  C   UNL     1      -9.769  16.876  67.548  1.00  0.00    -0.249 A  
HETATM   18  C   UNL     1      -9.026  16.668  66.385  1.00  0.00    -0.291 A  
HETATM   19  C   UNL     1      -9.426  17.950  68.393  1.00  0.00    -0.304 A  
HETATM   20  S   UNL     1      -9.668  15.307  65.549  1.00  0.00    -0.199 SA 
ENDBRANCH  11  12
ENDBRANCH   1  11
TORSDOF 3
ENDMDL
MODEL      138
REMARK 921   NORMALIZED FREE ENERGY PREDICTED BY IDOCK:   -4.36 KCAL/MOL
REMARK 922        TOTAL FREE ENERGY PREDICTED BY IDOCK:   -5.43 KCAL/MOL
REMARK 923 INTER-LIGAND FREE ENERGY PREDICTED BY IDOCK:   -4.91 KCAL/MOL
REMARK 924 INTRA-LIGAND FREE ENERGY PREDICTED BY IDOCK:   -0.52 KCAL/MOL
REMARK 927      BINDING AFFINITY PREDICTED BY RF-SCORE:    0.00 PKD
ROOT
HETATM    1  S   UNL     1     -10.958  10.257  69.361  1.00  0.00    -0.261 SA 
ENDROOT
BRANCH   1   2
HETATM    2  C   UNL     1     -11.082  11.531  68.154  1.00  0.00    -0.246 A  
HETATM    3  S   UNL     1     -10.197  12.992  68.306  1.00  0.00    -0.245 SA 
HETATM    4  N   UNL     1     -11.835  11.426  67.081  1.00  0.00    -0.522 NA 
HETATM    5  C   UNL     1     -10.852  13.543  66.812  1.00  0.00    -0.282 A  
HETATM    6  C   UNL     1     -11.706  12.562  66.303  1.00  0.00    -0.404 A  
HETATM    7  C   UNL     1     -10.631  14.756  66.139  1.00  0.00    -0.314 A  
HETATM    8  C   UNL     1     -12.356  12.799  65.076  1.00  0.00    -0.559 A  
HETATM    9  C   UNL     1     -11.298  14.971  64.929  1.00  0.00    -0.419 A  
HETATM   10  C   UNL     1     -12.148  14.004  64.400  1.00  0.00    -0.486 A  
ENDBRANCH   1   2
BRANCH   1  11
HETATM   11  S   UNL     1      -8.908  10.155  69.580  1.00  0.00    -0.152 SA 
BRANCH  11  12
HETATM   12  C   UNL     1      -8.466   9.583  67.977  1.00  0.00    -0.119 A  
HETATM   13  C   UNL     1      -7.152   9.417  63.555  1.00  0.00    -0.097 A  
HETATM   14  C   UNL     1      -7.648   8.118  63.570  1.00  0.00    -0.136 A  
HETATM   15  N   UNL     1      -7.857  10.348  67.098  1.00  0.00    -0.109 NA 
HETATM   16  C   UNL     1      -8.199   7.572  64.733  1.00  0.00    -0.068 A  
HETATM   17  C   UNL     1      -7.744   9.677  65.895  1.00  0.00    -0.102 A  
HETATM   18  C   UNL     1      -8.240   8.373  65.887  1.00  0.00    -0.123 A  
HETATM   19  C   UNL     1      -7.193  10.204  64.711  1.00  0.00    -0.130 A  
HETATM   20  S   UNL     1      -8.855   8.000  67.451  1.00  0.00    -0.131 SA 
ENDBRANCH  11  12
ENDBRANCH   1  11
TORSDOF 3
ENDMDL
MODEL      139
REMARK 921   NORMALIZED FREE ENERGY PREDICTED BY IDOCK:   -4.32 KCAL/MOL
REMARK 922        TOTAL FREE ENERGY PREDICTED BY IDOCK:   -5.38 KCAL/MOL
REMARK 923 INTER-LIGAND FREE ENERGY PREDICTED BY IDOCK:   -4.89 KCAL/MOL
REMARK 924 INTRA-LIGAND FREE ENERGY PREDICTED BY IDOCK:   -0.49 KCAL/MOL
REMARK 927      BINDING AFFINITY PREDICTED BY RF-SCORE:    0.00 PKD
ROOT
HETATM    1  S   UNL     1     -10.065   4.813  66.671  1.00  0.00    -0.239 SA 
ENDROOT
BRANCH   1   2
HETATM    2  C   UNL     1      -9.758   6.538  66.508  1.00  0.00    -0.126 A  
HETATM    3  S   UNL     1      -8.353   7.123  65.720  1.00  0.00    -0.143 SA 
HETATM    4  N   UNL     1     -10.586   7.455  66.960  1.00  0.00    -0.339 NA 
HETATM    5  C   UNL     1      -8.879   8.741  65.983  1.00  0.00    -0.175 A  
HETATM    6  C   UNL     1     -10.101   8.714  66.658  1.00  0.00    -0.294 A  
HETATM    7  C   UNL     1      -8.257   9.947  65.621  1.00  0.00    -0.138 A  
HETATM    8  C   UNL     1     -10.726   9.936  66.978  1.00  0.00    -0.237 A  
HETATM    9  C   UNL     1      -8.893  11.146  65.961  1.00  0.00    -0.196 A  
HETATM   10  C   UNL     1     -10.114  11.143  66.628  1.00  0.00    -0.256 A  
ENDBRANCH   1   2
BRANCH   1  11
HETATM   11  S   UNL     1      -8.934   4.394  68.346  1.00  0.00    -0.123 SA 
BRANCH  11  12
HETATM   12  C   UNL     1      -9.618   5.563  69.467  1.00  0.00    -0.151 A  
HETATM   13  C   UNL     1     -12.574   8.146  71.895  1.00  0.00    -0.368 A  
HETATM   14  C   UNL     1     -11.474   8.948  72.175  1.00  0.00    -0.387 A  
HETATM   15  N   UNL     1     -10.887   5.553  69.810  1.00  0.00    -0.298 NA 
HETATM   16  C   UNL     1     -10.206   8.627  71.681  1.00  0.00    -0.366 A  
HETATM   17  C   UNL     1     -11.165   6.651  70.602  1.00  0.00    -0.317 A  
HETATM   18  C   UNL     1     -10.074   7.472  70.892  1.00  0.00    -0.191 A  
HETATM   19  C   UNL     1     -12.432   6.995  71.112  1.00  0.00    -0.407 A  
HETATM   20  S   UNL     1      -8.669   6.821  70.139  1.00  0.00    -0.141 SA 
ENDBRANCH  11  12
ENDBRANCH   1  11
TORSDOF 3
ENDMDL
MODEL      140
REMARK 921   NORMALIZED FREE ENERGY PREDICTED BY IDOCK:   -4.31 KCAL/MOL
REMARK 922        TOTAL FREE ENERGY PREDICTED BY IDOCK:   -5.37 KCAL/MOL
REMARK 923 INTER-LIGAND FREE ENERGY PREDICTED BY IDOCK:   -5.08 KCAL/MOL
REMARK 924 INTRA-LIGAND FREE ENERGY PREDICTED BY IDOCK:   -0.29 KCAL/MOL
REMARK 927      BINDING AFFINITY PREDICTED BY RF-SCORE:    0.00 PKD
ROOT
HETATM    1  S   UNL     1      -8.018   8.641  68.694  1.00  0.00    -0.117 SA 
ENDROOT
BRANCH   1   2
HETATM    2  C   UNL     1      -8.775   7.494  69.793  1.00  0.00    -0.140 A  
HETATM    3  S   UNL     1      -8.007   6.020  70.213  1.00  0.00    -0.108 SA 
HETATM    4  N   UNL     1      -9.945   7.711  70.355  1.00  0.00    -0.188 NA 
HETATM    5  C   UNL     1      -9.328   5.626  71.244  1.00  0.00    -0.147 A  
HETATM    6  C   UNL     1     -10.266   6.658  71.191  1.00  0.00    -0.194 A  
HETATM    7  C   UNL     1      -9.523   4.485  72.040  1.00  0.00    -0.196 A  
HETATM    8  C   UNL     1     -11.438   6.549  71.966  1.00  0.00    -0.342 A  
HETATM    9  C   UNL     1     -10.701   4.396  72.790  1.00  0.00    -0.235 A  
HETATM   10  C   UNL     1     -11.647   5.416  72.758  1.00  0.00    -0.293 A  
ENDBRANCH   1   2
BRANCH   1  11
HETATM   11  S   UNL     1      -8.842   8.033  66.902  1.00  0.00    -0.137 SA 
BRANCH  11  12
HETATM   12  C   UNL     1      -9.823   9.444  66.533  1.00  0.00    -0.258 A  
HETATM   13  C   UNL     1     -11.839  12.969  64.337  1.00  0.00    -0.443 A  
HETATM   14  C   UNL     1     -12.139  13.447  65.608  1.00  0.00    -0.476 A  
HETATM   15  N   UNL     1     -10.074   9.827  65.300  1.00  0.00    -0.198 NA 
HETATM   16  C   UNL     1     -11.762  12.735  66.751  1.00  0.00    -0.459 A  
HETATM   17  C   UNL     1     -10.762  11.025  65.314  1.00  0.00    -0.164 A  
HETATM   18  C   UNL     1     -11.070  11.524  66.580  1.00  0.00    -0.295 A  
HETATM   19  C   UNL     1     -11.154  11.760  64.178  1.00  0.00    -0.442 A  
HETATM   20  S   UNL     1     -10.469  10.436  67.771  1.00  0.00    -0.246 SA 
ENDBRANCH  11  12
ENDBRANCH   1  11
TORSDOF 3
ENDMDL
MODEL      141
REMARK 921   NORMALIZED FREE ENERGY PREDICTED BY IDOCK:   -4.30 KCAL/MOL
REMARK 922        TOTAL FREE ENERGY PREDICTED BY IDOCK:   -5.36 KCAL/MOL
REMARK 923 INTER-LIGAND FREE ENERGY PREDICTED BY IDOCK:   -5.16 KCAL/MOL
REMARK 924 INTRA-LIGAND FREE ENERGY PREDICTED BY IDOCK:   -0.20 KCAL/MOL
REMARK 927      BINDING AFFINITY PREDICTED BY RF-SCORE:    0.00 PKD
ROOT
HETATM    1  S   UNL     1     -10.446  13.661  67.121  1.00  0.00    -0.265 SA 
ENDROOT
BRANCH   1   2
HETATM    2  C   UNL     1      -9.548  12.369  66.332  1.00  0.00    -0.246 A  
HETATM    3  S   UNL     1      -8.167  11.667  67.066  1.00  0.00    -0.173 SA 
HETATM    4  N   UNL     1      -9.894  11.871  65.165  1.00  0.00    -0.240 NA 
HETATM    5  C   UNL     1      -8.005  10.592  65.731  1.00  0.00    -0.158 A  
HETATM    6  C   UNL     1      -9.028  10.851  64.816  1.00  0.00    -0.140 A  
HETATM    7  C   UNL     1      -7.043   9.594  65.505  1.00  0.00    -0.098 A  
HETATM    8  C   UNL     1      -9.095  10.081  63.638  1.00  0.00    -0.301 A  
HETATM    9  C   UNL     1      -7.125   8.852  64.322  1.00  0.00    -0.090 A  
HETATM   10  C   UNL     1      -8.140   9.088  63.400  1.00  0.00    -0.167 A  
ENDBRANCH   1   2
BRANCH   1  11
HETATM   11  S   UNL     1      -9.074  14.243  68.550  1.00  0.00    -0.165 SA 
BRANCH  11  12
HETATM   12  C   UNL     1      -9.086  15.980  68.283  1.00  0.00    -0.191 A  
HETATM   13  C   UNL     1     -10.182  20.213  66.803  1.00  0.00    -0.562 A  
HETATM   14  C   UNL     1      -8.913  20.577  67.241  1.00  0.00    -0.431 A  
HETATM   15  N   UNL     1     -10.113  16.606  67.752  1.00  0.00    -0.266 NA 
HETATM   16  C   UNL     1      -8.063  19.640  67.837  1.00  0.00    -0.339 A  
HETATM   17  C   UNL     1      -9.797  17.936  67.552  1.00  0.00    -0.309 A  
HETATM   18  C   UNL     1      -8.526  18.321  67.981  1.00  0.00    -0.262 A  
HETATM   19  C   UNL     1     -10.635  18.898  66.955  1.00  0.00    -0.510 A  
HETATM   20  S   UNL     1      -7.726  16.954  68.656  1.00  0.00    -0.243 SA 
ENDBRANCH  11  12
ENDBRANCH   1  11
TORSDOF 3
ENDMDL
MODEL      142
REMARK 921   NORMALIZED FREE ENERGY PREDICTED BY IDOCK:   -4.30 KCAL/MOL
REMARK 922        TOTAL FREE ENERGY PREDICTED BY IDOCK:   -5.36 KCAL/MOL
REMARK 923 INTER-LIGAND FREE ENERGY PREDICTED BY IDOCK:   -4.96 KCAL/MOL
REMARK 924 INTRA-LIGAND FREE ENERGY PREDICTED BY IDOCK:   -0.39 KCAL/MOL
REMARK 927      BINDING AFFINITY PREDICTED BY RF-SCORE:    0.00 PKD
ROOT
HETATM    1  S   UNL     1      -7.574  10.116  67.541  1.00  0.00    -0.090 SA 
ENDROOT
BRANCH   1   2
HETATM    2  C   UNL     1      -8.841  10.747  66.495  1.00  0.00    -0.155 A  
HETATM    3  S   UNL     1      -8.902  10.349  64.829  1.00  0.00    -0.203 SA 
HETATM    4  N   UNL     1      -9.802  11.530  66.934  1.00  0.00    -0.195 NA 
HETATM    5  C   UNL     1     -10.337  11.284  64.659  1.00  0.00    -0.315 A  
HETATM    6  C   UNL     1     -10.667  11.836  65.899  1.00  0.00    -0.282 A  
HETATM    7  C   UNL     1     -11.114  11.518  63.512  1.00  0.00    -0.434 A  
HETATM    8  C   UNL     1     -11.818  12.643  65.997  1.00  0.00    -0.492 A  
HETATM    9  C   UNL     1     -12.245  12.333  63.635  1.00  0.00    -0.665 A  
HETATM   10  C   UNL     1     -12.596  12.887  64.862  1.00  0.00    -0.525 A  
ENDBRANCH   1   2
BRANCH   1  11
HETATM   11  S   UNL     1      -8.711   9.070  68.909  1.00  0.00    -0.137 SA 
BRANCH  11  12
HETATM   12  C   UNL     1      -8.967   7.583  68.008  1.00  0.00    -0.129 A  
HETATM   13  C   UNL     1      -8.288   3.763  65.507  1.00  0.00    -0.105 A  
HETATM   14  C   UNL     1      -9.658   3.808  65.267  1.00  0.00    -0.174 A  
HETATM   15  N   UNL     1      -7.983   6.770  67.693  1.00  0.00    -0.111 NA 
HETATM   16  C   UNL     1     -10.452   4.815  65.824  1.00  0.00    -0.275 A  
HETATM   17  C   UNL     1      -8.458   5.753  66.888  1.00  0.00    -0.108 A  
HETATM   18  C   UNL     1      -9.829   5.781  66.631  1.00  0.00    -0.165 A  
HETATM   19  C   UNL     1      -7.679   4.728  66.316  1.00  0.00    -0.091 A  
HETATM   20  S   UNL     1     -10.520   7.134  67.442  1.00  0.00    -0.314 SA 
ENDBRANCH  11  12
ENDBRANCH   1  11
TORSDOF 3
ENDMDL
MODEL      143
REMARK 921   NORMALIZED FREE ENERGY PREDICTED BY IDOCK:   -4.29 KCAL/MOL
REMARK 922        TOTAL FREE ENERGY PREDICTED BY IDOCK:   -5.34 KCAL/MOL
REMARK 923 INTER-LIGAND FREE ENERGY PREDICTED BY IDOCK:   -5.03 KCAL/MOL
REMARK 924 INTRA-LIGAND FREE ENERGY PREDICTED BY IDOCK:   -0.31 KCAL/MOL
REMARK 927      BINDING AFFINITY PREDICTED BY RF-SCORE:    0.00 PKD
ROOT
HETATM    1  S   UNL     1      -9.830   4.467  71.453  1.00  0.00    -0.193 SA 
ENDROOT
BRANCH   1   2
HETATM    2  C   UNL     1      -9.655   4.082  69.745  1.00  0.00    -0.210 A  
HETATM    3  S   UNL     1      -9.050   2.561  69.232  1.00  0.00    -0.131 SA 
HETATM    4  N   UNL     1      -9.988   4.919  68.787  1.00  0.00    -0.159 NA 
HETATM    5  C   UNL     1      -9.253   3.036  67.589  1.00  0.00    -0.197 A  
HETATM    6  C   UNL     1      -9.773   4.332  67.554  1.00  0.00    -0.148 A  
HETATM    7  C   UNL     1      -8.971   2.317  66.416  1.00  0.00    -0.118 A  
HETATM    8  C   UNL     1     -10.025   4.927  66.302  1.00  0.00    -0.256 A  
HETATM    9  C   UNL     1      -9.219   2.936  65.186  1.00  0.00    -0.145 A  
HETATM   10  C   UNL     1      -9.743   4.224  65.127  1.00  0.00    -0.199 A  
ENDBRANCH   1   2
BRANCH   1  11
HETATM   11  S   UNL     1      -8.666   6.168  71.568  1.00  0.00    -0.135 SA 
BRANCH  11  12
HETATM   12  C   UNL     1      -9.922   7.394  71.492  1.00  0.00    -0.181 A  
HETATM   13  C   UNL     1     -12.247  11.287  70.624  1.00  0.00    -0.489 A  
HETATM   14  C   UNL     1     -13.132  10.848  71.603  1.00  0.00    -0.538 A  
HETATM   15  N   UNL     1      -9.855   8.424  70.678  1.00  0.00    -0.178 NA 
HETATM   16  C   UNL     1     -12.932   9.629  72.259  1.00  0.00    -0.440 A  
HETATM   17  C   UNL     1     -10.913   9.280  70.919  1.00  0.00    -0.299 A  
HETATM   18  C   UNL     1     -11.811   8.860  71.902  1.00  0.00    -0.370 A  
HETATM   19  C   UNL     1     -11.137  10.511  70.273  1.00  0.00    -0.359 A  
HETATM   20  S   UNL     1     -11.290   7.341  72.522  1.00  0.00    -0.286 SA 
ENDBRANCH  11  12
ENDBRANCH   1  11
TORSDOF 3
ENDMDL
MODEL      144
REMARK 921   NORMALIZED FREE ENERGY PREDICTED BY IDOCK:   -4.26 KCAL/MOL
REMARK 922        TOTAL FREE ENERGY PREDICTED BY IDOCK:   -5.31 KCAL/MOL
REMARK 923 INTER-LIGAND FREE ENERGY PREDICTED BY IDOCK:   -5.45 KCAL/MOL
REMARK 924 INTRA-LIGAND FREE ENERGY PREDICTED BY IDOCK:    0.13 KCAL/MOL
REMARK 927      BINDING AFFINITY PREDICTED BY RF-SCORE:    0.00 PKD
ROOT
HETATM    1  S   UNL     1      -9.869   8.864  71.177  1.00  0.00    -0.301 SA 
ENDROOT
BRANCH   1   2
HETATM    2  C   UNL     1      -9.832   7.575  69.979  1.00  0.00    -0.180 A  
HETATM    3  S   UNL     1      -8.863   6.179  70.202  1.00  0.00    -0.145 SA 
HETATM    4  N   UNL     1     -10.548   7.607  68.877  1.00  0.00    -0.194 NA 
HETATM    5  C   UNL     1      -9.442   5.541  68.712  1.00  0.00    -0.129 A  
HETATM    6  C   UNL     1     -10.341   6.449  68.150  1.00  0.00    -0.192 A  
HETATM    7  C   UNL     1      -9.123   4.326  68.082  1.00  0.00    -0.168 A  
HETATM    8  C   UNL     1     -10.948   6.129  66.919  1.00  0.00    -0.384 A  
HETATM    9  C   UNL     1      -9.730   4.039  66.855  1.00  0.00    -0.215 A  
HETATM   10  C   UNL     1     -10.634   4.926  66.280  1.00  0.00    -0.307 A  
ENDBRANCH   1   2
BRANCH   1  11
HETATM   11  S   UNL     1     -11.852   9.423  71.056  1.00  0.00    -0.334 SA 
BRANCH  11  12
HETATM   12  C   UNL     1     -11.717  10.753  69.916  1.00  0.00    -0.333 A  
HETATM   13  C   UNL     1     -11.906  14.931  67.961  1.00  0.00    -0.296 A  
HETATM   14  C   UNL     1     -11.725  14.257  66.758  1.00  0.00    -0.424 A  
HETATM   15  N   UNL     1     -11.826  12.011  70.281  1.00  0.00    -0.314 NA 
HETATM   16  C   UNL     1     -11.579  12.866  66.729  1.00  0.00    -0.416 A  
HETATM   17  C   UNL     1     -11.798  12.826  69.166  1.00  0.00    -0.301 A  
HETATM   18  C   UNL     1     -11.622  12.169  67.948  1.00  0.00    -0.347 A  
HETATM   19  C   UNL     1     -11.942  14.227  69.169  1.00  0.00    -0.372 A  
HETATM   20  S   UNL     1     -11.485  10.478  68.241  1.00  0.00    -0.095 SA 
ENDBRANCH  11  12
ENDBRANCH   1  11
TORSDOF 3
ENDMDL
MODEL      145
REMARK 921   NORMALIZED FREE ENERGY PREDICTED BY IDOCK:   -4.24 KCAL/MOL
REMARK 922        TOTAL FREE ENERGY PREDICTED BY IDOCK:   -5.28 KCAL/MOL
REMARK 923 INTER-LIGAND FREE ENERGY PREDICTED BY IDOCK:   -4.98 KCAL/MOL
REMARK 924 INTRA-LIGAND FREE ENERGY PREDICTED BY IDOCK:   -0.30 KCAL/MOL
REMARK 927      BINDING AFFINITY PREDICTED BY RF-SCORE:    0.00 PKD
ROOT
HETATM    1  S   UNL     1      -8.868   5.194  72.458  1.00  0.00    -0.126 SA 
ENDROOT
BRANCH   1   2
HETATM    2  C   UNL     1     -10.221   6.308  72.313  1.00  0.00    -0.187 A  
HETATM    3  S   UNL     1     -10.019   7.994  72.556  1.00  0.00    -0.297 SA 
HETATM    4  N   UNL     1     -11.436   5.916  71.998  1.00  0.00    -0.278 NA 
HETATM    5  C   UNL     1     -11.685   8.244  72.204  1.00  0.00    -0.365 A  
HETATM    6  C   UNL     1     -12.278   7.011  71.924  1.00  0.00    -0.327 A  
HETATM    7  C   UNL     1     -12.418   9.442  72.181  1.00  0.00    -0.396 A  
HETATM    8  C   UNL     1     -13.650   6.976  71.602  1.00  0.00    -0.346 A  
HETATM    9  C   UNL     1     -13.780   9.378  71.870  1.00  0.00    -0.440 A  
HETATM   10  C   UNL     1     -14.390   8.161  71.581  1.00  0.00    -0.570 A  
ENDBRANCH   1   2
BRANCH   1  11
HETATM   11  S   UNL     1      -9.809   3.411  72.015  1.00  0.00    -0.157 SA 
BRANCH  11  12
HETATM   12  C   UNL     1      -9.528   3.350  70.281  1.00  0.00    -0.177 A  
HETATM   13  C   UNL     1      -9.496   4.350  65.774  1.00  0.00    -0.174 A  
HETATM   14  C   UNL     1      -9.125   3.022  65.593  1.00  0.00    -0.149 A  
HETATM   15  N   UNL     1      -9.713   4.390  69.498  1.00  0.00    -0.205 NA 
HETATM   16  C   UNL     1      -8.951   2.169  66.687  1.00  0.00    -0.122 A  
HETATM   17  C   UNL     1      -9.533   4.020  68.179  1.00  0.00    -0.158 A  
HETATM   18  C   UNL     1      -9.163   2.689  67.975  1.00  0.00    -0.205 A  
HETATM   19  C   UNL     1      -9.701   4.859  67.061  1.00  0.00    -0.193 A  
HETATM   20  S   UNL     1      -9.042   1.903  69.502  1.00  0.00    -0.107 SA 
ENDBRANCH  11  12
ENDBRANCH   1  11
TORSDOF 3
ENDMDL
MODEL      146
REMARK 921   NORMALIZED FREE ENERGY PREDICTED BY IDOCK:   -4.23 KCAL/MOL
REMARK 922        TOTAL FREE ENERGY PREDICTED BY IDOCK:   -5.27 KCAL/MOL
REMARK 923 INTER-LIGAND FREE ENERGY PREDICTED BY IDOCK:   -5.09 KCAL/MOL
REMARK 924 INTRA-LIGAND FREE ENERGY PREDICTED BY IDOCK:   -0.18 KCAL/MOL
REMARK 927      BINDING AFFINITY PREDICTED BY RF-SCORE:    0.00 PKD
ROOT
HETATM    1  S   UNL     1     -11.086  10.572  69.208  1.00  0.00    -0.263 SA 
ENDROOT
BRANCH   1   2
HETATM    2  C   UNL     1     -10.756   8.844  69.195  1.00  0.00    -0.143 A  
HETATM    3  S   UNL     1     -10.261   8.041  67.763  1.00  0.00    -0.233 SA 
HETATM    4  N   UNL     1     -10.853   8.092  70.269  1.00  0.00    -0.241 NA 
HETATM    5  C   UNL     1     -10.150   6.560  68.632  1.00  0.00    -0.161 A  
HETATM    6  C   UNL     1     -10.501   6.790  69.964  1.00  0.00    -0.210 A  
HETATM    7  C   UNL     1      -9.782   5.285  68.171  1.00  0.00    -0.184 A  
HETATM    8  C   UNL     1     -10.478   5.709  70.868  1.00  0.00    -0.323 A  
HETATM    9  C   UNL     1      -9.779   4.227  69.086  1.00  0.00    -0.226 A  
HETATM   10  C   UNL     1     -10.119   4.434  70.420  1.00  0.00    -0.175 A  
ENDBRANCH   1   2
BRANCH   1  11
HETATM   11  S   UNL     1     -12.891  10.595  70.208  1.00  0.00    -0.021 SA 
BRANCH  11  12
HETATM   12  C   UNL     1     -12.839  12.219  70.879  1.00  0.00    -0.092 A  
HETATM   13  C   UNL     1     -11.655  16.589  71.779  1.00  0.00    -0.207 A  
HETATM   14  C   UNL     1     -12.427  16.447  72.928  1.00  0.00    -0.388 A  
HETATM   15  N   UNL     1     -12.154  13.192  70.320  1.00  0.00    -0.356 NA 
HETATM   16  C   UNL     1     -13.094  15.249  73.201  1.00  0.00    -0.627 A  
HETATM   17  C   UNL     1     -12.197  14.315  71.124  1.00  0.00    -0.356 A  
HETATM   18  C   UNL     1     -12.964  14.192  72.284  1.00  0.00    -0.382 A  
HETATM   19  C   UNL     1     -11.535  15.532  70.871  1.00  0.00    -0.410 A  
HETATM   20  S   UNL     1     -13.643  12.611  72.340  1.00  0.00    -0.092 SA 
ENDBRANCH  11  12
ENDBRANCH   1  11
TORSDOF 3
ENDMDL
MODEL      147
REMARK 921   NORMALIZED FREE ENERGY PREDICTED BY IDOCK:   -4.18 KCAL/MOL
REMARK 922        TOTAL FREE ENERGY PREDICTED BY IDOCK:   -5.22 KCAL/MOL
REMARK 923 INTER-LIGAND FREE ENERGY PREDICTED BY IDOCK:   -4.82 KCAL/MOL
REMARK 924 INTRA-LIGAND FREE ENERGY PREDICTED BY IDOCK:   -0.41 KCAL/MOL
REMARK 927      BINDING AFFINITY PREDICTED BY RF-SCORE:    0.00 PKD
ROOT
HETATM    1  S   UNL     1     -11.013  12.592  67.101  1.00  0.00    -0.275 SA 
ENDROOT
BRANCH   1   2
HETATM    2  C   UNL     1     -11.570  13.164  68.669  1.00  0.00    -0.321 A  
HETATM    3  S   UNL     1     -12.049  12.069  69.898  1.00  0.00    -0.220 SA 
HETATM    4  N   UNL     1     -11.631  14.439  68.981  1.00  0.00    -0.278 NA 
HETATM    5  C   UNL     1     -12.359  13.392  70.955  1.00  0.00    -0.353 A  
HETATM    6  C   UNL     1     -12.070  14.583  70.285  1.00  0.00    -0.323 A  
HETATM    7  C   UNL     1     -12.826  13.380  72.279  1.00  0.00    -0.288 A  
HETATM    8  C   UNL     1     -12.249  15.804  70.965  1.00  0.00    -0.466 A  
HETATM    9  C   UNL     1     -13.007  14.606  72.927  1.00  0.00    -0.592 A  
HETATM   10  C   UNL     1     -12.719  15.805  72.281  1.00  0.00    -0.525 A  
ENDBRANCH   1   2
BRANCH   1  11
HETATM   11  S   UNL     1      -9.009  13.073  67.224  1.00  0.00    -0.220 SA 
BRANCH  11  12
HETATM   12  C   UNL     1      -8.399  11.612  67.987  1.00  0.00    -0.148 A  
HETATM   13  C   UNL     1      -8.089   7.386  69.818  1.00  0.00    -0.127 A  
HETATM   14  C   UNL     1      -6.894   7.832  70.374  1.00  0.00    -0.046 A  
HETATM   15  N   UNL     1      -9.063  10.477  67.971  1.00  0.00    -0.136 NA 
HETATM   16  C   UNL     1      -6.431   9.129  70.133  1.00  0.00    -0.046 A  
HETATM   17  C   UNL     1      -8.405   9.541  68.746  1.00  0.00    -0.117 A  
HETATM   18  C   UNL     1      -7.206   9.970  69.316  1.00  0.00    -0.078 A  
HETATM   19  C   UNL     1      -8.850   8.229  69.003  1.00  0.00    -0.143 A  
HETATM   20  S   UNL     1      -6.917  11.601  68.846  1.00  0.00    -0.113 SA 
ENDBRANCH  11  12
ENDBRANCH   1  11
TORSDOF 3
ENDMDL
MODEL      148
REMARK 921   NORMALIZED FREE ENERGY PREDICTED BY IDOCK:   -4.18 KCAL/MOL
REMARK 922        TOTAL FREE ENERGY PREDICTED BY IDOCK:   -5.22 KCAL/MOL
REMARK 923 INTER-LIGAND FREE ENERGY PREDICTED BY IDOCK:   -5.06 KCAL/MOL
REMARK 924 INTRA-LIGAND FREE ENERGY PREDICTED BY IDOCK:   -0.16 KCAL/MOL
REMARK 927      BINDING AFFINITY PREDICTED BY RF-SCORE:    0.00 PKD
ROOT
HETATM    1  S   UNL     1      -9.861  11.311  67.368  1.00  0.00    -0.183 SA 
ENDROOT
BRANCH   1   2
HETATM    2  C   UNL     1      -9.266  12.956  67.175  1.00  0.00    -0.225 A  
HETATM    3  S   UNL     1      -7.662  13.380  67.608  1.00  0.00    -0.186 SA 
HETATM    4  N   UNL     1     -10.002  13.927  66.681  1.00  0.00    -0.271 NA 
HETATM    5  C   UNL     1      -7.949  14.995  67.088  1.00  0.00    -0.206 A  
HETATM    6  C   UNL     1      -9.260  15.092  66.617  1.00  0.00    -0.270 A  
HETATM    7  C   UNL     1      -7.081  16.099  67.097  1.00  0.00    -0.253 A  
HETATM    8  C   UNL     1      -9.717  16.334  66.133  1.00  0.00    -0.357 A  
HETATM    9  C   UNL     1      -7.562  17.323  66.623  1.00  0.00    -0.293 A  
HETATM   10  C   UNL     1      -8.863  17.441  66.142  1.00  0.00    -0.180 A  
ENDBRANCH   1   2
BRANCH   1  11
HETATM   11  S   UNL     1      -8.389  10.526  68.583  1.00  0.00    -0.140 SA 
BRANCH  11  12
HETATM   12  C   UNL     1      -9.363   9.450  69.574  1.00  0.00    -0.180 A  
HETATM   13  C   UNL     1     -10.967   6.930  73.093  1.00  0.00    -0.297 A  
HETATM   14  C   UNL     1     -11.732   6.276  72.134  1.00  0.00    -0.368 A  
HETATM   15  N   UNL     1      -9.235   9.384  70.880  1.00  0.00    -0.226 NA 
HETATM   16  C   UNL     1     -11.670   6.649  70.788  1.00  0.00    -0.445 A  
HETATM   17  C   UNL     1     -10.037   8.375  71.377  1.00  0.00    -0.215 A  
HETATM   18  C   UNL     1     -10.811   7.703  70.431  1.00  0.00    -0.244 A  
HETATM   19  C   UNL     1     -10.118   7.981  72.727  1.00  0.00    -0.378 A  
HETATM   20  S   UNL     1     -10.507   8.381  68.878  1.00  0.00    -0.148 SA 
ENDBRANCH  11  12
ENDBRANCH   1  11
TORSDOF 3
ENDMDL
MODEL      149
REMARK 921   NORMALIZED FREE ENERGY PREDICTED BY IDOCK:   -4.18 KCAL/MOL
REMARK 922        TOTAL FREE ENERGY PREDICTED BY IDOCK:   -5.22 KCAL/MOL
REMARK 923 INTER-LIGAND FREE ENERGY PREDICTED BY IDOCK:   -4.90 KCAL/MOL
REMARK 924 INTRA-LIGAND FREE ENERGY PREDICTED BY IDOCK:   -0.32 KCAL/MOL
REMARK 927      BINDING AFFINITY PREDICTED BY RF-SCORE:    0.00 PKD
ROOT
HETATM    1  S   UNL     1      -7.596  13.199  68.225  1.00  0.00    -0.148 SA 
ENDROOT
BRANCH   1   2
HETATM    2  C   UNL     1      -8.828  13.655  67.055  1.00  0.00    -0.223 A  
HETATM    3  S   UNL     1      -9.049  15.289  66.585  1.00  0.00    -0.301 SA 
HETATM    4  N   UNL     1      -9.619  12.780  66.475  1.00  0.00    -0.254 NA 
HETATM    5  C   UNL     1     -10.299  14.808  65.504  1.00  0.00    -0.364 A  
HETATM    6  C   UNL     1     -10.456  13.423  65.582  1.00  0.00    -0.290 A  
HETATM    7  C   UNL     1     -11.088  15.598  64.650  1.00  0.00    -0.387 A  
HETATM    8  C   UNL     1     -11.430  12.804  64.773  1.00  0.00    -0.356 A  
HETATM    9  C   UNL     1     -12.056  14.960  63.867  1.00  0.00     0.024 A  
HETATM   10  C   UNL     1     -12.225  13.580  63.924  1.00  0.00    -0.458 A  
ENDBRANCH   1   2
BRANCH   1  11
HETATM   11  S   UNL     1      -7.338  11.211  67.733  1.00  0.00    -0.097 SA 
BRANCH  11  12
HETATM   12  C   UNL     1      -8.087  10.458  69.133  1.00  0.00    -0.151 A  
HETATM   13  C   UNL     1      -8.801   7.976  72.959  1.00  0.00    -0.302 A  
HETATM   14  C   UNL     1     -10.154   8.122  72.671  1.00  0.00    -0.379 A  
HETATM   15  N   UNL     1      -7.385   9.907  70.099  1.00  0.00    -0.148 NA 
HETATM   16  C   UNL     1     -10.576   8.848  71.553  1.00  0.00    -0.399 A  
HETATM   17  C   UNL     1      -8.233   9.293  71.001  1.00  0.00    -0.068 A  
HETATM   18  C   UNL     1      -9.596   9.425  70.728  1.00  0.00    -0.255 A  
HETATM   19  C   UNL     1      -7.834   8.558  72.133  1.00  0.00    -0.136 A  
HETATM   20  S   UNL     1      -9.790  10.356  69.292  1.00  0.00    -0.209 SA 
ENDBRANCH  11  12
ENDBRANCH   1  11
TORSDOF 3
ENDMDL
MODEL      150
REMARK 921   NORMALIZED FREE ENERGY PREDICTED BY IDOCK:   -4.15 KCAL/MOL
REMARK 922        TOTAL FREE ENERGY PREDICTED BY IDOCK:   -5.19 KCAL/MOL
REMARK 923 INTER-LIGAND FREE ENERGY PREDICTED BY IDOCK:   -5.03 KCAL/MOL
REMARK 924 INTRA-LIGAND FREE ENERGY PREDICTED BY IDOCK:   -0.16 KCAL/MOL
REMARK 927      BINDING AFFINITY PREDICTED BY RF-SCORE:    0.00 PKD
ROOT
HETATM    1  S   UNL     1     -11.094   9.274  69.131  1.00  0.00     0.118 SA 
ENDROOT
BRANCH   1   2
HETATM    2  C   UNL     1     -11.040   7.881  70.204  1.00  0.00    -0.201 A  
HETATM    3  S   UNL     1     -11.979   7.823  71.638  1.00  0.00    -0.310 SA 
HETATM    4  N   UNL     1     -10.302   6.820  69.959  1.00  0.00    -0.194 NA 
HETATM    5  C   UNL     1     -11.372   6.247  71.971  1.00  0.00    -0.300 A  
HETATM    6  C   UNL     1     -10.489   5.878  70.953  1.00  0.00    -0.244 A  
HETATM    7  C   UNL     1     -11.652   5.398  73.054  1.00  0.00    -0.268 A  
HETATM    8  C   UNL     1      -9.870   4.614  71.018  1.00  0.00    -0.268 A  
HETATM    9  C   UNL     1     -11.014   4.153  73.101  1.00  0.00    -0.278 A  
HETATM   10  C   UNL     1     -10.136   3.762  72.094  1.00  0.00    -0.220 A  
ENDBRANCH   1   2
BRANCH   1  11
HETATM   11  S   UNL     1     -12.227  10.572  70.268  1.00  0.00    -0.299 SA 
BRANCH  11  12
HETATM   12  C   UNL     1     -11.609  12.106  69.674  1.00  0.00    -0.291 A  
HETATM   13  C   UNL     1     -11.153  16.582  68.645  1.00  0.00    -0.329 A  
HETATM   14  C   UNL     1     -10.164  16.166  67.760  1.00  0.00    -0.267 A  
HETATM   15  N   UNL     1     -12.107  13.262  70.052  1.00  0.00    -0.328 NA 
HETATM   16  C   UNL     1      -9.828  14.815  67.642  1.00  0.00    -0.218 A  
HETATM   17  C   UNL     1     -11.510  14.283  69.338  1.00  0.00    -0.292 A  
HETATM   18  C   UNL     1     -10.517  13.887  68.440  1.00  0.00    -0.247 A  
HETATM   19  C   UNL     1     -11.831  15.651  69.439  1.00  0.00    -0.391 A  
HETATM   20  S   UNL     1     -10.345  12.176  68.519  1.00  0.00    -0.200 SA 
ENDBRANCH  11  12
ENDBRANCH   1  11
TORSDOF 3
ENDMDL
MODEL      151
REMARK 921   NORMALIZED FREE ENERGY PREDICTED BY IDOCK:   -4.15 KCAL/MOL
REMARK 922        TOTAL FREE ENERGY PREDICTED BY IDOCK:   -5.18 KCAL/MOL
REMARK 923 INTER-LIGAND FREE ENERGY PREDICTED BY IDOCK:   -4.83 KCAL/MOL
REMARK 924 INTRA-LIGAND FREE ENERGY PREDICTED BY IDOCK:   -0.35 KCAL/MOL
REMARK 927      BINDING AFFINITY PREDICTED BY RF-SCORE:    0.00 PKD
ROOT
HETATM    1  S   UNL     1     -11.182  15.411  65.321  1.00  0.00    -0.270 SA 
ENDROOT
BRANCH   1   2
HETATM    2  C   UNL     1     -10.136  16.418  66.315  1.00  0.00    -0.331 A  
HETATM    3  S   UNL     1      -8.501  15.991  66.607  1.00  0.00    -0.313 SA 
HETATM    4  N   UNL     1     -10.542  17.542  66.864  1.00  0.00    -0.270 NA 
HETATM    5  C   UNL     1      -8.294  17.425  67.537  1.00  0.00    -0.206 A  
HETATM    6  C   UNL     1      -9.498  18.130  67.555  1.00  0.00    -0.262 A  
HETATM    7  C   UNL     1      -7.150  17.892  68.205  1.00  0.00    -0.224 A  
HETATM    8  C   UNL     1      -9.560  19.348  68.261  1.00  0.00    -0.454 A  
HETATM    9  C   UNL     1      -7.241  19.098  68.908  1.00  0.00    -0.376 A  
HETATM   10  C   UNL     1      -8.430  19.821  68.934  1.00  0.00    -0.144 A  
ENDBRANCH   1   2
BRANCH   1  11
HETATM   11  S   UNL     1     -11.824  14.045  66.728  1.00  0.00    -0.442 SA 
BRANCH  11  12
HETATM   12  C   UNL     1     -10.573  12.823  66.549  1.00  0.00    -0.254 A  
HETATM   13  C   UNL     1      -6.730  10.325  67.097  1.00  0.00    -0.078 A  
HETATM   14  C   UNL     1      -7.024   9.799  65.844  1.00  0.00    -0.101 A  
HETATM   15  N   UNL     1      -9.646  12.623  67.459  1.00  0.00    -0.180 NA 
HETATM   16  C   UNL     1      -8.165  10.202  65.145  1.00  0.00    -0.151 A  
HETATM   17  C   UNL     1      -8.734  11.692  67.001  1.00  0.00    -0.173 A  
HETATM   18  C   UNL     1      -9.008  11.155  65.742  1.00  0.00    -0.196 A  
HETATM   19  C   UNL     1      -7.578  11.270  67.685  1.00  0.00    -0.106 A  
HETATM   20  S   UNL     1     -10.462  11.853  65.142  1.00  0.00    -0.299 SA 
ENDBRANCH  11  12
ENDBRANCH   1  11
TORSDOF 3
ENDMDL
MODEL      152
REMARK 921   NORMALIZED FREE ENERGY PREDICTED BY IDOCK:   -4.12 KCAL/MOL
REMARK 922        TOTAL FREE ENERGY PREDICTED BY IDOCK:   -5.14 KCAL/MOL
REMARK 923 INTER-LIGAND FREE ENERGY PREDICTED BY IDOCK:   -4.82 KCAL/MOL
REMARK 924 INTRA-LIGAND FREE ENERGY PREDICTED BY IDOCK:   -0.32 KCAL/MOL
REMARK 927      BINDING AFFINITY PREDICTED BY RF-SCORE:    0.00 PKD
ROOT
HETATM    1  S   UNL     1      -7.719  11.536  67.281  1.00  0.00    -0.158 SA 
ENDROOT
BRANCH   1   2
HETATM    2  C   UNL     1      -8.421  13.145  67.394  1.00  0.00    -0.201 A  
HETATM    3  S   UNL     1     -10.117  13.373  67.504  1.00  0.00    -0.230 SA 
HETATM    4  N   UNL     1      -7.693  14.240  67.416  1.00  0.00    -0.185 NA 
HETATM    5  C   UNL     1      -9.881  15.075  67.603  1.00  0.00    -0.220 A  
HETATM    6  C   UNL     1      -8.512  15.346  67.545  1.00  0.00    -0.173 A  
HETATM    7  C   UNL     1     -10.836  16.099  67.720  1.00  0.00    -0.318 A  
HETATM    8  C   UNL     1      -8.083  16.687  67.613  1.00  0.00    -0.184 A  
HETATM    9  C   UNL     1     -10.384  17.422  67.773  1.00  0.00    -0.358 A  
HETATM   10  C   UNL     1      -9.024  17.714  67.724  1.00  0.00    -0.247 A  
ENDBRANCH   1   2
BRANCH   1  11
HETATM   11  S   UNL     1      -9.287  10.510  66.414  1.00  0.00    -0.173 SA 
BRANCH  11  12
HETATM   12  C   UNL     1      -9.832   9.575  67.799  1.00  0.00    -0.160 A  
HETATM   13  C   UNL     1     -10.594   8.093  72.104  1.00  0.00    -0.358 A  
HETATM   14  C   UNL     1     -10.951   6.888  71.510  1.00  0.00    -0.268 A  
HETATM   15  N   UNL     1      -9.801  10.046  69.026  1.00  0.00    -0.188 NA 
HETATM   16  C   UNL     1     -10.927   6.737  70.120  1.00  0.00    -0.340 A  
HETATM   17  C   UNL     1     -10.174   9.056  69.915  1.00  0.00    -0.202 A  
HETATM   18  C   UNL     1     -10.532   7.837  69.340  1.00  0.00    -0.220 A  
HETATM   19  C   UNL     1     -10.206   9.183  71.318  1.00  0.00    -0.400 A  
HETATM   20  S   UNL     1     -10.392   7.965  67.628  1.00  0.00    -0.242 SA 
ENDBRANCH  11  12
ENDBRANCH   1  11
TORSDOF 3
ENDMDL
MODEL      153
REMARK 921   NORMALIZED FREE ENERGY PREDICTED BY IDOCK:   -4.10 KCAL/MOL
REMARK 922        TOTAL FREE ENERGY PREDICTED BY IDOCK:   -5.12 KCAL/MOL
REMARK 923 INTER-LIGAND FREE ENERGY PREDICTED BY IDOCK:   -4.82 KCAL/MOL
REMARK 924 INTRA-LIGAND FREE ENERGY PREDICTED BY IDOCK:   -0.30 KCAL/MOL
REMARK 927      BINDING AFFINITY PREDICTED BY RF-SCORE:    0.00 PKD
ROOT
HETATM    1  S   UNL     1      -7.537   9.874  65.845  1.00  0.00    -0.113 SA 
ENDROOT
BRANCH   1   2
HETATM    2  C   UNL     1      -8.897  10.873  65.347  1.00  0.00    -0.180 A  
HETATM    3  S   UNL     1      -9.429  10.908  63.718  1.00  0.00    -0.297 SA 
HETATM    4  N   UNL     1      -9.578  11.620  66.188  1.00  0.00    -0.226 NA 
HETATM    5  C   UNL     1     -10.685  12.002  64.151  1.00  0.00    -0.357 A  
HETATM    6  C   UNL     1     -10.606  12.261  65.521  1.00  0.00    -0.269 A  
HETATM    7  C   UNL     1     -11.669  12.591  63.341  1.00  0.00    -0.567 A  
HETATM    8  C   UNL     1     -11.546  13.136  66.102  1.00  0.00    -0.396 A  
HETATM    9  C   UNL     1     -12.583  13.465  63.939  1.00  0.00    -0.186 A  
HETATM   10  C   UNL     1     -12.526  13.733  65.304  1.00  0.00    -0.512 A  
ENDBRANCH   1   2
BRANCH   1  11
HETATM   11  S   UNL     1      -8.161   8.031  65.156  1.00  0.00    -0.145 SA 
BRANCH  11  12
HETATM   12  C   UNL     1      -8.888   7.396  66.624  1.00  0.00    -0.143 A  
HETATM   13  C   UNL     1      -9.598   5.096  70.563  1.00  0.00    -0.244 A  
HETATM   14  C   UNL     1     -10.945   5.378  70.358  1.00  0.00    -0.100 A  
HETATM   15  N   UNL     1      -8.185   6.797  67.559  1.00  0.00    -0.121 NA 
HETATM   16  C   UNL     1     -11.363   6.117  69.247  1.00  0.00    -0.361 A  
HETATM   17  C   UNL     1      -9.029   6.298  68.532  1.00  0.00    -0.123 A  
HETATM   18  C   UNL     1     -10.386   6.566  68.343  1.00  0.00    -0.189 A  
HETATM   19  C   UNL     1      -8.633   5.552  69.659  1.00  0.00    -0.108 A  
HETATM   20  S   UNL     1     -10.578   7.478  66.895  1.00  0.00    -0.182 SA 
ENDBRANCH  11  12
ENDBRANCH   1  11
TORSDOF 3
ENDMDL
MODEL      154
REMARK 921   NORMALIZED FREE ENERGY PREDICTED BY IDOCK:   -4.09 KCAL/MOL
REMARK 922        TOTAL FREE ENERGY PREDICTED BY IDOCK:   -5.11 KCAL/MOL
REMARK 923 INTER-LIGAND FREE ENERGY PREDICTED BY IDOCK:   -4.75 KCAL/MOL
REMARK 924 INTRA-LIGAND FREE ENERGY PREDICTED BY IDOCK:   -0.36 KCAL/MOL
REMARK 927      BINDING AFFINITY PREDICTED BY RF-SCORE:    0.00 PKD
ROOT
HETATM    1  S   UNL     1      -7.895   9.202  68.148  1.00  0.00    -0.100 SA 
ENDROOT
BRANCH   1   2
HETATM    2  C   UNL     1      -8.669   8.165  69.340  1.00  0.00    -0.143 A  
HETATM    3  S   UNL     1      -8.773   6.469  69.113  1.00  0.00    -0.128 SA 
HETATM    4  N   UNL     1      -9.185   8.627  70.458  1.00  0.00    -0.165 NA 
HETATM    5  C   UNL     1      -9.563   6.315  70.635  1.00  0.00    -0.172 A  
HETATM    6  C   UNL     1      -9.690   7.582  71.209  1.00  0.00    -0.164 A  
HETATM    7  C   UNL     1     -10.040   5.159  71.275  1.00  0.00    -0.278 A  
HETATM    8  C   UNL     1     -10.308   7.696  72.470  1.00  0.00    -0.310 A  
HETATM    9  C   UNL     1     -10.662   5.302  72.520  1.00  0.00    -0.290 A  
HETATM   10  C   UNL     1     -10.792   6.553  73.114  1.00  0.00    -0.286 A  
ENDBRANCH   1   2
BRANCH   1  11
HETATM   11  S   UNL     1      -9.479   9.537  66.867  1.00  0.00    -0.167 SA 
BRANCH  11  12
HETATM   12  C   UNL     1     -10.009  11.106  67.453  1.00  0.00    -0.179 A  
HETATM   13  C   UNL     1     -12.184  14.446  69.783  1.00  0.00    -0.370 A  
HETATM   14  C   UNL     1     -11.730  15.293  68.778  1.00  0.00    -0.374 A  
HETATM   15  N   UNL     1     -10.692  11.250  68.567  1.00  0.00    -0.189 NA 
HETATM   16  C   UNL     1     -10.946  14.806  67.727  1.00  0.00    -0.294 A  
HETATM   17  C   UNL     1     -11.073  12.570  68.714  1.00  0.00    -0.270 A  
HETATM   18  C   UNL     1     -10.631  13.437  67.714  1.00  0.00    -0.245 A  
HETATM   19  C   UNL     1     -11.861  13.085  69.763  1.00  0.00    -0.381 A  
HETATM   20  S   UNL     1      -9.707  12.543  66.569  1.00  0.00    -0.249 SA 
ENDBRANCH  11  12
ENDBRANCH   1  11
TORSDOF 3
ENDMDL
MODEL      155
REMARK 921   NORMALIZED FREE ENERGY PREDICTED BY IDOCK:   -4.09 KCAL/MOL
REMARK 922        TOTAL FREE ENERGY PREDICTED BY IDOCK:   -5.11 KCAL/MOL
REMARK 923 INTER-LIGAND FREE ENERGY PREDICTED BY IDOCK:   -4.73 KCAL/MOL
REMARK 924 INTRA-LIGAND FREE ENERGY PREDICTED BY IDOCK:   -0.37 KCAL/MOL
REMARK 927      BINDING AFFINITY PREDICTED BY RF-SCORE:    0.00 PKD
ROOT
HETATM    1  S   UNL     1      -9.907  14.964  67.183  1.00  0.00    -0.234 SA 
ENDROOT
BRANCH   1   2
HETATM    2  C   UNL     1     -10.943  14.518  68.534  1.00  0.00    -0.249 A  
HETATM    3  S   UNL     1     -11.893  15.687  69.353  1.00  0.00    -0.338 SA 
HETATM    4  N   UNL     1     -11.053  13.283  68.970  1.00  0.00    -0.258 NA 
HETATM    5  C   UNL     1     -12.526  14.456  70.376  1.00  0.00    -0.357 A  
HETATM    6  C   UNL     1     -11.959  13.232  70.013  1.00  0.00    -0.329 A  
HETATM    7  C   UNL     1     -13.453  14.562  71.426  1.00  0.00    -0.445 A  
HETATM    8  C   UNL     1     -12.338  12.073  70.720  1.00  0.00    -0.403 A  
HETATM    9  C   UNL     1     -13.802  13.399  72.119  1.00  0.00    -0.605 A  
HETATM   10  C   UNL     1     -13.256  12.168  71.770  1.00  0.00    -0.423 A  
ENDBRANCH   1   2
BRANCH   1  11
HETATM   11  S   UNL     1      -8.072  14.359  67.909  1.00  0.00    -0.167 SA 
BRANCH  11  12
HETATM   12  C   UNL     1      -7.868  12.870  66.998  1.00  0.00     0.004 A  
HETATM   13  C   UNL     1      -8.687   8.944  64.712  1.00  0.00    -0.162 A  
HETATM   14  C   UNL     1      -7.333   8.685  64.890  1.00  0.00    -0.090 A  
HETATM   15  N   UNL     1      -8.870  12.268  66.395  1.00  0.00    -0.130 NA 
HETATM   16  C   UNL     1      -6.508   9.599  65.552  1.00  0.00    -0.078 A  
HETATM   17  C   UNL     1      -8.441  11.067  65.863  1.00  0.00    -0.140 A  
HETATM   18  C   UNL     1      -7.084  10.786  66.034  1.00  0.00    -0.102 A  
HETATM   19  C   UNL     1      -9.251  10.131  65.192  1.00  0.00    -0.262 A  
HETATM   20  S   UNL     1      -6.348  12.088  66.887  1.00  0.00     0.033 SA 
ENDBRANCH  11  12
ENDBRANCH   1  11
TORSDOF 3
ENDMDL
MODEL      156
REMARK 921   NORMALIZED FREE ENERGY PREDICTED BY IDOCK:   -4.08 KCAL/MOL
REMARK 922        TOTAL FREE ENERGY PREDICTED BY IDOCK:   -5.10 KCAL/MOL
REMARK 923 INTER-LIGAND FREE ENERGY PREDICTED BY IDOCK:   -4.80 KCAL/MOL
REMARK 924 INTRA-LIGAND FREE ENERGY PREDICTED BY IDOCK:   -0.30 KCAL/MOL
REMARK 927      BINDING AFFINITY PREDICTED BY RF-SCORE:    0.00 PKD
ROOT
HETATM    1  S   UNL     1      -7.044  14.587  68.934  1.00  0.00    -0.124 SA 
ENDROOT
BRANCH   1   2
HETATM    2  C   UNL     1      -7.861  13.459  67.859  1.00  0.00    -0.152 A  
HETATM    3  S   UNL     1      -9.497  13.690  67.401  1.00  0.00    -0.234 SA 
HETATM    4  N   UNL     1      -7.265  12.405  67.346  1.00  0.00    -0.144 NA 
HETATM    5  C   UNL     1      -9.421  12.277  66.421  1.00  0.00    -0.237 A  
HETATM    6  C   UNL     1      -8.140  11.728  66.517  1.00  0.00    -0.035 A  
HETATM    7  C   UNL     1     -10.421  11.692  65.626  1.00  0.00    -0.314 A  
HETATM    8  C   UNL     1      -7.847  10.558  65.788  1.00  0.00    -0.154 A  
HETATM    9  C   UNL     1     -10.108  10.524  64.923  1.00  0.00    -0.403 A  
HETATM   10  C   UNL     1      -8.836   9.964  64.998  1.00  0.00    -0.220 A  
ENDBRANCH   1   2
BRANCH   1  11
HETATM   11  S   UNL     1      -8.493  16.046  69.107  1.00  0.00    -0.223 SA 
BRANCH  11  12
HETATM   12  C   UNL     1      -7.737  17.328  68.172  1.00  0.00    -0.217 A  
HETATM   13  C   UNL     1      -5.891  21.361  66.893  1.00  0.00    -0.392 A  
HETATM   14  C   UNL     1      -6.066  20.904  65.591  1.00  0.00    -0.277 A  
HETATM   15  N   UNL     1      -7.222  18.401  68.731  1.00  0.00    -0.281 NA 
HETATM   16  C   UNL     1      -6.612  19.642  65.340  1.00  0.00    -0.312 A  
HETATM   17  C   UNL     1      -6.809  19.285  67.753  1.00  0.00    -0.225 A  
HETATM   18  C   UNL     1      -6.979  18.847  66.439  1.00  0.00    -0.221 A  
HETATM   19  C   UNL     1      -6.256  20.560  67.980  1.00  0.00    -0.320 A  
HETATM   20  S   UNL     1      -7.677  17.273  66.461  1.00  0.00    -0.317 SA 
ENDBRANCH  11  12
ENDBRANCH   1  11
TORSDOF 3
ENDMDL
MODEL      157
REMARK 921   NORMALIZED FREE ENERGY PREDICTED BY IDOCK:   -4.08 KCAL/MOL
REMARK 922        TOTAL FREE ENERGY PREDICTED BY IDOCK:   -5.10 KCAL/MOL
REMARK 923 INTER-LIGAND FREE ENERGY PREDICTED BY IDOCK:   -4.87 KCAL/MOL
REMARK 924 INTRA-LIGAND FREE ENERGY PREDICTED BY IDOCK:   -0.23 KCAL/MOL
REMARK 927      BINDING AFFINITY PREDICTED BY RF-SCORE:    0.00 PKD
ROOT
HETATM    1  S   UNL     1     -10.757   7.647  72.973  1.00  0.00    -0.383 SA 
ENDROOT
BRANCH   1   2
HETATM    2  C   UNL     1      -9.970   6.262  72.227  1.00  0.00    -0.165 A  
HETATM    3  S   UNL     1      -8.867   5.284  73.103  1.00  0.00    -0.118 SA 
HETATM    4  N   UNL     1     -10.195   5.899  70.983  1.00  0.00    -0.202 NA 
HETATM    5  C   UNL     1      -8.668   4.274  71.724  1.00  0.00    -0.110 A  
HETATM    6  C   UNL     1      -9.466   4.762  70.687  1.00  0.00    -0.171 A  
HETATM    7  C   UNL     1      -7.862   3.134  71.567  1.00  0.00    -0.056 A  
HETATM    8  C   UNL     1      -9.464   4.082  69.452  1.00  0.00    -0.259 A  
HETATM    9  C   UNL     1      -7.869   2.485  70.327  1.00  0.00    -0.048 A  
HETATM   10  C   UNL     1      -8.662   2.950  69.282  1.00  0.00    -0.134 A  
ENDBRANCH   1   2
BRANCH   1  11
HETATM   11  S   UNL     1     -12.374   7.877  71.709  1.00  0.00    -0.332 SA 
BRANCH  11  12
HETATM   12  C   UNL     1     -12.119   9.539  71.200  1.00  0.00    -0.347 A  
HETATM   13  C   UNL     1     -12.438  14.125  70.770  1.00  0.00    -0.436 A  
HETATM   14  C   UNL     1     -11.731  13.954  69.585  1.00  0.00    -0.370 A  
HETATM   15  N   UNL     1     -12.588  10.565  71.876  1.00  0.00    -0.332 NA 
HETATM   16  C   UNL     1     -11.317  12.684  69.172  1.00  0.00    -0.339 A  
HETATM   17  C   UNL     1     -12.341  11.734  71.182  1.00  0.00    -0.224 A  
HETATM   18  C   UNL     1     -11.635  11.584  69.987  1.00  0.00    -0.282 A  
HETATM   19  C   UNL     1     -12.746  13.024  71.577  1.00  0.00    -0.349 A  
HETATM   20  S   UNL     1     -11.281   9.916  69.754  1.00  0.00    -0.208 SA 
ENDBRANCH  11  12
ENDBRANCH   1  11
TORSDOF 3
ENDMDL
MODEL      158
REMARK 921   NORMALIZED FREE ENERGY PREDICTED BY IDOCK:   -4.08 KCAL/MOL
REMARK 922        TOTAL FREE ENERGY PREDICTED BY IDOCK:   -5.10 KCAL/MOL
REMARK 923 INTER-LIGAND FREE ENERGY PREDICTED BY IDOCK:   -4.77 KCAL/MOL
REMARK 924 INTRA-LIGAND FREE ENERGY PREDICTED BY IDOCK:   -0.32 KCAL/MOL
REMARK 927      BINDING AFFINITY PREDICTED BY RF-SCORE:    0.00 PKD
ROOT
HETATM    1  S   UNL     1      -8.200  10.878  67.315  1.00  0.00    -0.126 SA 
ENDROOT
BRANCH   1   2
HETATM    2  C   UNL     1      -8.621  12.553  67.648  1.00  0.00    -0.178 A  
HETATM    3  S   UNL     1      -7.415  13.765  67.785  1.00  0.00    -0.178 SA 
HETATM    4  N   UNL     1      -9.863  12.961  67.791  1.00  0.00    -0.215 NA 
HETATM    5  C   UNL     1      -8.636  14.950  68.047  1.00  0.00    -0.160 A  
HETATM    6  C   UNL     1      -9.886  14.327  68.009  1.00  0.00    -0.224 A  
HETATM    7  C   UNL     1      -8.502  16.329  68.272  1.00  0.00    -0.187 A  
HETATM    8  C   UNL     1     -11.041  15.112  68.197  1.00  0.00    -0.306 A  
HETATM    9  C   UNL     1      -9.663  17.084  68.468  1.00  0.00    -0.282 A  
HETATM   10  C   UNL     1     -10.919  16.485  68.428  1.00  0.00    -0.348 A  
ENDBRANCH   1   2
BRANCH   1  11
HETATM   11  S   UNL     1     -10.054  10.127  66.803  1.00  0.00    -0.227 SA 
BRANCH  11  12
HETATM   12  C   UNL     1     -10.423   9.224  68.265  1.00  0.00    -0.215 A  
HETATM   13  C   UNL     1     -11.352   5.812  71.231  1.00  0.00    -0.154 A  
HETATM   14  C   UNL     1     -11.790   6.819  72.085  1.00  0.00    -0.326 A  
HETATM   15  N   UNL     1     -10.297   7.918  68.339  1.00  0.00    -0.206 NA 
HETATM   16  C   UNL     1     -11.730   8.162  71.701  1.00  0.00    -0.330 A  
HETATM   17  C   UNL     1     -10.769   7.472  69.558  1.00  0.00    -0.217 A  
HETATM   18  C   UNL     1     -11.217   8.467  70.429  1.00  0.00    -0.213 A  
HETATM   19  C   UNL     1     -10.839   6.126  69.968  1.00  0.00    -0.408 A  
HETATM   20  S   UNL     1     -11.024  10.000  69.670  1.00  0.00    -0.274 SA 
ENDBRANCH  11  12
ENDBRANCH   1  11
TORSDOF 3
ENDMDL
MODEL      159
REMARK 921   NORMALIZED FREE ENERGY PREDICTED BY IDOCK:   -4.04 KCAL/MOL
REMARK 922        TOTAL FREE ENERGY PREDICTED BY IDOCK:   -5.06 KCAL/MOL
REMARK 923 INTER-LIGAND FREE ENERGY PREDICTED BY IDOCK:   -4.71 KCAL/MOL
REMARK 924 INTRA-LIGAND FREE ENERGY PREDICTED BY IDOCK:   -0.35 KCAL/MOL
REMARK 927      BINDING AFFINITY PREDICTED BY RF-SCORE:    0.00 PKD
ROOT
HETATM    1  S   UNL     1      -8.842   4.687  70.012  1.00  0.00    -0.089 SA 
ENDROOT
BRANCH   1   2
HETATM    2  C   UNL     1      -9.130   4.207  68.343  1.00  0.00    -0.132 A  
HETATM    3  S   UNL     1      -8.295   2.885  67.640  1.00  0.00    -0.087 SA 
HETATM    4  N   UNL     1      -9.998   4.816  67.566  1.00  0.00    -0.165 NA 
HETATM    5  C   UNL     1      -9.161   3.120  66.171  1.00  0.00    -0.128 A  
HETATM    6  C   UNL     1     -10.032   4.200  66.328  1.00  0.00    -0.166 A  
HETATM    7  C   UNL     1      -9.076   2.405  64.965  1.00  0.00    -0.129 A  
HETATM    8  C   UNL     1     -10.852   4.574  65.245  1.00  0.00    -0.095 A  
HETATM    9  C   UNL     1      -9.891   2.804  63.901  1.00  0.00    -0.149 A  
HETATM   10  C   UNL     1     -10.772   3.873  64.038  1.00  0.00    -0.226 A  
ENDBRANCH   1   2
BRANCH   1  11
HETATM   11  S   UNL     1      -8.526   6.711  69.763  1.00  0.00    -0.133 SA 
BRANCH  11  12
HETATM   12  C   UNL     1      -9.996   7.335  70.497  1.00  0.00    -0.190 A  
HETATM   13  C   UNL     1     -14.389   7.884  71.805  1.00  0.00    -0.589 A  
HETATM   14  C   UNL     1     -14.016   9.185  72.128  1.00  0.00    -0.466 A  
HETATM   15  N   UNL     1     -11.095   6.619  70.594  1.00  0.00    -0.277 NA 
HETATM   16  C   UNL     1     -12.700   9.621  71.947  1.00  0.00    -0.499 A  
HETATM   17  C   UNL     1     -12.117   7.400  71.101  1.00  0.00    -0.325 A  
HETATM   18  C   UNL     1     -11.764   8.710  71.428  1.00  0.00    -0.297 A  
HETATM   19  C   UNL     1     -13.449   6.984  71.293  1.00  0.00    -0.265 A  
HETATM   20  S   UNL     1     -10.093   8.941  71.084  1.00  0.00    -0.298 SA 
ENDBRANCH  11  12
ENDBRANCH   1  11
TORSDOF 3
ENDMDL
MODEL      160
REMARK 921   NORMALIZED FREE ENERGY PREDICTED BY IDOCK:   -4.02 KCAL/MOL
REMARK 922        TOTAL FREE ENERGY PREDICTED BY IDOCK:   -5.03 KCAL/MOL
REMARK 923 INTER-LIGAND FREE ENERGY PREDICTED BY IDOCK:   -4.73 KCAL/MOL
REMARK 924 INTRA-LIGAND FREE ENERGY PREDICTED BY IDOCK:   -0.30 KCAL/MOL
REMARK 927      BINDING AFFINITY PREDICTED BY RF-SCORE:    0.00 PKD
ROOT
HETATM    1  S   UNL     1      -8.807  10.469  68.090  1.00  0.00    -0.139 SA 
ENDROOT
BRANCH   1   2
HETATM    2  C   UNL     1      -9.558  11.786  67.196  1.00  0.00    -0.181 A  
HETATM    3  S   UNL     1      -8.975  13.393  67.319  1.00  0.00    -0.230 SA 
HETATM    4  N   UNL     1     -10.579  11.606  66.386  1.00  0.00    -0.248 NA 
HETATM    5  C   UNL     1     -10.168  13.911  66.191  1.00  0.00    -0.301 A  
HETATM    6  C   UNL     1     -10.930  12.808  65.800  1.00  0.00    -0.277 A  
HETATM    7  C   UNL     1     -10.417  15.200  65.690  1.00  0.00    -0.378 A  
HETATM    8  C   UNL     1     -11.972  12.998  64.871  1.00  0.00    -0.441 A  
HETATM    9  C   UNL     1     -11.465  15.364  64.778  1.00  0.00    -0.337 A  
HETATM   10  C   UNL     1     -12.232  14.277  64.369  1.00  0.00    -0.471 A  
ENDBRANCH   1   2
BRANCH   1  11
HETATM   11  S   UNL     1     -10.434   9.228  68.356  1.00  0.00    -0.186 SA 
BRANCH  11  12
HETATM   12  C   UNL     1      -9.972   7.901  67.301  1.00  0.00    -0.215 A  
HETATM   13  C   UNL     1      -9.565   3.724  65.378  1.00  0.00    -0.174 A  
HETATM   14  C   UNL     1      -8.453   4.251  64.729  1.00  0.00    -0.119 A  
HETATM   15  N   UNL     1     -10.609   6.751  67.292  1.00  0.00    -0.277 NA 
HETATM   16  C   UNL     1      -8.070   5.581  64.926  1.00  0.00    -0.124 A  
HETATM   17  C   UNL     1      -9.957   5.862  66.459  1.00  0.00    -0.153 A  
HETATM   18  C   UNL     1      -8.836   6.370  65.800  1.00  0.00    -0.099 A  
HETATM   19  C   UNL     1     -10.324   4.520  66.243  1.00  0.00    -0.227 A  
HETATM   20  S   UNL     1      -8.620   8.017  66.254  1.00  0.00    -0.151 SA 
ENDBRANCH  11  12
ENDBRANCH   1  11
TORSDOF 3
ENDMDL
MODEL      161
REMARK 921   NORMALIZED FREE ENERGY PREDICTED BY IDOCK:   -3.95 KCAL/MOL
REMARK 922        TOTAL FREE ENERGY PREDICTED BY IDOCK:   -4.94 KCAL/MOL
REMARK 923 INTER-LIGAND FREE ENERGY PREDICTED BY IDOCK:   -4.52 KCAL/MOL
REMARK 924 INTRA-LIGAND FREE ENERGY PREDICTED BY IDOCK:   -0.43 KCAL/MOL
REMARK 927      BINDING AFFINITY PREDICTED BY RF-SCORE:    0.00 PKD
ROOT
HETATM    1  S   UNL     1      -7.164   6.060  71.111  1.00  0.00    -0.076 SA 
ENDROOT
BRANCH   1   2
HETATM    2  C   UNL     1      -7.693   5.799  69.453  1.00  0.00    -0.092 A  
HETATM    3  S   UNL     1      -6.703   6.235  68.123  1.00  0.00    -0.071 SA 
HETATM    4  N   UNL     1      -8.849   5.250  69.152  1.00  0.00    -0.099 NA 
HETATM    5  C   UNL     1      -7.898   5.636  67.038  1.00  0.00    -0.101 A  
HETATM    6  C   UNL     1      -8.974   5.142  67.779  1.00  0.00    -0.110 A  
HETATM    7  C   UNL     1      -7.888   5.606  65.634  1.00  0.00    -0.099 A  
HETATM    8  C   UNL     1     -10.075   4.594  67.092  1.00  0.00    -0.187 A  
HETATM    9  C   UNL     1      -8.999   5.068  64.976  1.00  0.00    -0.131 A  
HETATM   10  C   UNL     1     -10.079   4.564  65.694  1.00  0.00    -0.261 A  
ENDBRANCH   1   2
BRANCH   1  11
HETATM   11  S   UNL     1      -7.075   8.122  71.149  1.00  0.00    -0.063 SA 
BRANCH  11  12
HETATM   12  C   UNL     1      -8.788   8.491  71.283  1.00  0.00    -0.190 A  
HETATM   13  C   UNL     1     -12.886  10.600  71.013  1.00  0.00    -0.496 A  
HETATM   14  C   UNL     1     -13.302   9.677  71.966  1.00  0.00    -0.547 A  
HETATM   15  N   UNL     1      -9.357   9.462  70.603  1.00  0.00    -0.260 NA 
HETATM   16  C   UNL     1     -12.425   8.703  72.453  1.00  0.00    -0.428 A  
HETATM   17  C   UNL     1     -10.675   9.597  70.995  1.00  0.00    -0.323 A  
HETATM   18  C   UNL     1     -11.112   8.682  71.954  1.00  0.00    -0.346 A  
HETATM   19  C   UNL     1     -11.577  10.569  70.520  1.00  0.00    -0.441 A  
HETATM   20  S   UNL     1      -9.810   7.629  72.355  1.00  0.00    -0.198 SA 
ENDBRANCH  11  12
ENDBRANCH   1  11
TORSDOF 3
ENDMDL
MODEL      162
REMARK 921   NORMALIZED FREE ENERGY PREDICTED BY IDOCK:   -3.93 KCAL/MOL
REMARK 922        TOTAL FREE ENERGY PREDICTED BY IDOCK:   -4.92 KCAL/MOL
REMARK 923 INTER-LIGAND FREE ENERGY PREDICTED BY IDOCK:   -4.69 KCAL/MOL
REMARK 924 INTRA-LIGAND FREE ENERGY PREDICTED BY IDOCK:   -0.23 KCAL/MOL
REMARK 927      BINDING AFFINITY PREDICTED BY RF-SCORE:    0.00 PKD
ROOT
HETATM    1  S   UNL     1      -9.555  10.572  69.489  1.00  0.00    -0.016 SA 
ENDROOT
BRANCH   1   2
HETATM    2  C   UNL     1     -10.023   9.272  70.579  1.00  0.00    -0.249 A  
HETATM    3  S   UNL     1     -11.256   8.157  70.158  1.00  0.00    -0.061 SA 
HETATM    4  N   UNL     1      -9.451   9.080  71.747  1.00  0.00    -0.327 NA 
HETATM    5  C   UNL     1     -11.013   7.328  71.647  1.00  0.00    -0.226 A  
HETATM    6  C   UNL     1      -9.999   7.970  72.362  1.00  0.00    -0.251 A  
HETATM    7  C   UNL     1     -11.672   6.195  72.151  1.00  0.00    -0.361 A  
HETATM    8  C   UNL     1      -9.626   7.457  73.620  1.00  0.00    -0.337 A  
HETATM    9  C   UNL     1     -11.292   5.713  73.408  1.00  0.00    -0.050 A  
HETATM   10  C   UNL     1     -10.279   6.332  74.134  1.00  0.00    -0.338 A  
ENDBRANCH   1   2
BRANCH   1  11
HETATM   11  S   UNL     1     -11.174  10.581  68.209  1.00  0.00    -0.264 SA 
BRANCH  11  12
HETATM   12  C   UNL     1     -10.337  10.437  66.670  1.00  0.00    -0.231 A  
HETATM   13  C   UNL     1      -8.915  11.134  62.334  1.00  0.00    -0.321 A  
HETATM   14  C   UNL     1      -8.397   9.846  62.412  1.00  0.00    -0.158 A  
HETATM   15  N   UNL     1     -10.342  11.396  65.771  1.00  0.00    -0.247 NA 
HETATM   16  C   UNL     1      -8.521   9.092  63.582  1.00  0.00    -0.173 A  
HETATM   17  C   UNL     1      -9.710  10.962  64.622  1.00  0.00    -0.280 A  
HETATM   18  C   UNL     1      -9.185   9.669  64.677  1.00  0.00    -0.234 A  
HETATM   19  C   UNL     1      -9.571  11.702  63.431  1.00  0.00    -0.308 A  
HETATM   20  S   UNL     1      -9.505   9.004  66.233  1.00  0.00    -0.262 SA 
ENDBRANCH  11  12
ENDBRANCH   1  11
TORSDOF 3
ENDMDL
MODEL      163
REMARK 921   NORMALIZED FREE ENERGY PREDICTED BY IDOCK:   -3.91 KCAL/MOL
REMARK 922        TOTAL FREE ENERGY PREDICTED BY IDOCK:   -4.91 KCAL/MOL
REMARK 923 INTER-LIGAND FREE ENERGY PREDICTED BY IDOCK:   -4.52 KCAL/MOL
REMARK 924 INTRA-LIGAND FREE ENERGY PREDICTED BY IDOCK:   -0.39 KCAL/MOL
REMARK 927      BINDING AFFINITY PREDICTED BY RF-SCORE:    0.00 PKD
ROOT
HETATM    1  S   UNL     1      -6.342   9.078  70.724  1.00  0.00    -0.062 SA 
ENDROOT
BRANCH   1   2
HETATM    2  C   UNL     1      -6.173  10.721  70.116  1.00  0.00    -0.136 A  
HETATM    3  S   UNL     1      -6.310  11.071  68.443  1.00  0.00    -0.053 SA 
HETATM    4  N   UNL     1      -5.954  11.752  70.902  1.00  0.00    -0.333 NA 
HETATM    5  C   UNL     1      -6.070  12.743  68.774  1.00  0.00    -0.071 A  
HETATM    6  C   UNL     1      -5.902  12.912  70.150  1.00  0.00    -0.155 A  
HETATM    7  C   UNL     1      -6.029  13.828  67.883  1.00  0.00    -0.145 A  
HETATM    8  C   UNL     1      -5.693  14.211  70.653  1.00  0.00    -0.178 A  
HETATM    9  C   UNL     1      -5.808  15.106  68.407  1.00  0.00    -0.107 A  
HETATM   10  C   UNL     1      -5.645  15.298  69.775  1.00  0.00    -0.111 A  
ENDBRANCH   1   2
BRANCH   1  11
HETATM   11  S   UNL     1      -7.700   8.320  69.366  1.00  0.00    -0.104 SA 
BRANCH  11  12
HETATM   12  C   UNL     1      -9.197   8.864  70.108  1.00  0.00    -0.180 A  
HETATM   13  C   UNL     1     -13.124   9.020  72.530  1.00  0.00    -0.450 A  
HETATM   14  C   UNL     1     -13.404  10.167  71.795  1.00  0.00    -0.485 A  
HETATM   15  N   UNL     1      -9.786   8.202  71.078  1.00  0.00    -0.177 NA 
HETATM   16  C   UNL     1     -12.500  10.651  70.845  1.00  0.00    -0.495 A  
HETATM   17  C   UNL     1     -10.998   8.794  71.380  1.00  0.00    -0.289 A  
HETATM   18  C   UNL     1     -11.300   9.945  70.651  1.00  0.00    -0.339 A  
HETATM   19  C   UNL     1     -11.925   8.327  72.332  1.00  0.00    -0.447 A  
HETATM   20  S   UNL     1     -10.006  10.274  69.565  1.00  0.00    -0.204 SA 
ENDBRANCH  11  12
ENDBRANCH   1  11
TORSDOF 3
ENDMDL
MODEL      164
REMARK 921   NORMALIZED FREE ENERGY PREDICTED BY IDOCK:   -3.91 KCAL/MOL
REMARK 922        TOTAL FREE ENERGY PREDICTED BY IDOCK:   -4.90 KCAL/MOL
REMARK 923 INTER-LIGAND FREE ENERGY PREDICTED BY IDOCK:   -4.55 KCAL/MOL
REMARK 924 INTRA-LIGAND FREE ENERGY PREDICTED BY IDOCK:   -0.35 KCAL/MOL
REMARK 927      BINDING AFFINITY PREDICTED BY RF-SCORE:    0.00 PKD
ROOT
HETATM    1  S   UNL     1      -9.797   4.631  70.438  1.00  0.00    -0.235 SA 
ENDROOT
BRANCH   1   2
HETATM    2  C   UNL     1      -9.315   4.828  68.757  1.00  0.00    -0.134 A  
HETATM    3  S   UNL     1      -7.945   5.766  68.327  1.00  0.00    -0.105 SA 
HETATM    4  N   UNL     1      -9.959   4.262  67.760  1.00  0.00    -0.068 NA 
HETATM    5  C   UNL     1      -8.209   5.388  66.668  1.00  0.00    -0.108 A  
HETATM    6  C   UNL     1      -9.333   4.566  66.565  1.00  0.00    -0.151 A  
HETATM    7  C   UNL     1      -7.478   5.791  65.539  1.00  0.00    -0.077 A  
HETATM    8  C   UNL     1      -9.736   4.126  65.289  1.00  0.00    -0.200 A  
HETATM    9  C   UNL     1      -7.907   5.350  64.282  1.00  0.00    -0.104 A  
HETATM   10  C   UNL     1      -9.020   4.524  64.156  1.00  0.00    -0.144 A  
ENDBRANCH   1   2
BRANCH   1  11
HETATM   11  S   UNL     1      -8.579   6.033  71.338  1.00  0.00    -0.129 SA 
BRANCH  11  12
HETATM   12  C   UNL     1      -9.664   7.416  71.333  1.00  0.00    -0.167 A  
HETATM   13  C   UNL     1     -13.357  10.134  71.870  1.00  0.00    -0.505 A  
HETATM   14  C   UNL     1     -12.717  10.993  70.983  1.00  0.00    -0.485 A  
HETATM   15  N   UNL     1     -10.781   7.440  72.026  1.00  0.00    -0.215 NA 
HETATM   16  C   UNL     1     -11.461  10.678  70.457  1.00  0.00    -0.407 A  
HETATM   17  C   UNL     1     -11.484   8.594  71.739  1.00  0.00    -0.324 A  
HETATM   18  C   UNL     1     -10.862   9.469  70.847  1.00  0.00    -0.337 A  
HETATM   19  C   UNL     1     -12.750   8.934  72.256  1.00  0.00    -0.464 A  
HETATM   20  S   UNL     1      -9.347   8.801  70.375  1.00  0.00    -0.194 SA 
ENDBRANCH  11  12
ENDBRANCH   1  11
TORSDOF 3
ENDMDL
MODEL      165
REMARK 921   NORMALIZED FREE ENERGY PREDICTED BY IDOCK:   -3.90 KCAL/MOL
REMARK 922        TOTAL FREE ENERGY PREDICTED BY IDOCK:   -4.88 KCAL/MOL
REMARK 923 INTER-LIGAND FREE ENERGY PREDICTED BY IDOCK:   -4.65 KCAL/MOL
REMARK 924 INTRA-LIGAND FREE ENERGY PREDICTED BY IDOCK:   -0.23 KCAL/MOL
REMARK 927      BINDING AFFINITY PREDICTED BY RF-SCORE:    0.00 PKD
ROOT
HETATM    1  S   UNL     1     -10.660   7.878  67.501  1.00  0.00    -0.204 SA 
ENDROOT
BRANCH   1   2
HETATM    2  C   UNL     1     -10.099   6.389  68.252  1.00  0.00    -0.153 A  
HETATM    3  S   UNL     1      -9.527   6.366  69.868  1.00  0.00    -0.154 SA 
HETATM    4  N   UNL     1     -10.105   5.230  67.630  1.00  0.00    -0.172 NA 
HETATM    5  C   UNL     1      -9.270   4.668  69.753  1.00  0.00    -0.123 A  
HETATM    6  C   UNL     1      -9.644   4.240  68.477  1.00  0.00    -0.136 A  
HETATM    7  C   UNL     1      -8.770   3.777  70.717  1.00  0.00    -0.121 A  
HETATM    8  C   UNL     1      -9.521   2.873  68.157  1.00  0.00    -0.220 A  
HETATM    9  C   UNL     1      -8.646   2.428  70.370  1.00  0.00    -0.102 A  
HETATM   10  C   UNL     1      -9.020   1.978  69.107  1.00  0.00    -0.159 A  
ENDBRANCH   1   2
BRANCH   1  11
HETATM   11  S   UNL     1      -9.410   9.244  68.413  1.00  0.00    -0.138 SA 
BRANCH  11  12
HETATM   12  C   UNL     1     -10.598  10.191  69.296  1.00  0.00    -0.230 A  
HETATM   13  C   UNL     1     -13.015  13.702  71.068  1.00  0.00    -0.303 A  
HETATM   14  C   UNL     1     -13.527  12.760  71.954  1.00  0.00    -0.452 A  
HETATM   15  N   UNL     1     -10.792  11.471  69.069  1.00  0.00    -0.214 NA 
HETATM   16  C   UNL     1     -13.139  11.419  71.881  1.00  0.00    -0.505 A  
HETATM   17  C   UNL     1     -11.693  11.977  69.986  1.00  0.00    -0.267 A  
HETATM   18  C   UNL     1     -12.216  11.049  70.888  1.00  0.00    -0.367 A  
HETATM   19  C   UNL     1     -12.100  13.322  70.080  1.00  0.00    -0.403 A  
HETATM   20  S   UNL     1     -11.542   9.501  70.549  1.00  0.00    -0.227 SA 
ENDBRANCH  11  12
ENDBRANCH   1  11
TORSDOF 3
ENDMDL
MODEL      166
REMARK 921   NORMALIZED FREE ENERGY PREDICTED BY IDOCK:   -3.89 KCAL/MOL
REMARK 922        TOTAL FREE ENERGY PREDICTED BY IDOCK:   -4.88 KCAL/MOL
REMARK 923 INTER-LIGAND FREE ENERGY PREDICTED BY IDOCK:   -4.61 KCAL/MOL
REMARK 924 INTRA-LIGAND FREE ENERGY PREDICTED BY IDOCK:   -0.28 KCAL/MOL
REMARK 927      BINDING AFFINITY PREDICTED BY RF-SCORE:    0.00 PKD
ROOT
HETATM    1  S   UNL     1      -8.184   6.536  72.334  1.00  0.00    -0.104 SA 
ENDROOT
BRANCH   1   2
HETATM    2  C   UNL     1      -9.477   7.674  71.978  1.00  0.00    -0.153 A  
HETATM    3  S   UNL     1      -9.224   9.013  70.937  1.00  0.00    -0.266 SA 
HETATM    4  N   UNL     1     -10.691   7.550  72.469  1.00  0.00    -0.259 NA 
HETATM    5  C   UNL     1     -10.870   9.477  71.136  1.00  0.00    -0.355 A  
HETATM    6  C   UNL     1     -11.497   8.566  71.989  1.00  0.00    -0.361 A  
HETATM    7  C   UNL     1     -11.559  10.568  70.581  1.00  0.00    -0.445 A  
HETATM    8  C   UNL     1     -12.861   8.749  72.292  1.00  0.00    -0.465 A  
HETATM    9  C   UNL     1     -12.909  10.734  70.908  1.00  0.00    -0.443 A  
HETATM   10  C   UNL     1     -13.555   9.834  71.751  1.00  0.00    -0.397 A  
ENDBRANCH   1   2
BRANCH   1  11
HETATM   11  S   UNL     1      -9.271   4.792  72.532  1.00  0.00    -0.128 SA 
BRANCH  11  12
HETATM   12  C   UNL     1      -9.288   4.261  70.856  1.00  0.00    -0.150 A  
HETATM   13  C   UNL     1      -8.257   2.151  66.882  1.00  0.00    -0.081 A  
HETATM   14  C   UNL     1      -9.068   3.112  66.287  1.00  0.00    -0.158 A  
HETATM   15  N   UNL     1      -8.609   3.215  70.440  1.00  0.00    -0.060 NA 
HETATM   16  C   UNL     1      -9.713   4.084  67.058  1.00  0.00    -0.214 A  
HETATM   17  C   UNL     1      -8.713   3.107  69.066  1.00  0.00    -0.086 A  
HETATM   18  C   UNL     1      -9.519   4.065  68.449  1.00  0.00    -0.149 A  
HETATM   19  C   UNL     1      -8.074   2.138  68.269  1.00  0.00    -0.068 A  
HETATM   20  S   UNL     1     -10.157   5.117  69.654  1.00  0.00    -0.265 SA 
ENDBRANCH  11  12
ENDBRANCH   1  11
TORSDOF 3
ENDMDL
MODEL      167
REMARK 921   NORMALIZED FREE ENERGY PREDICTED BY IDOCK:   -3.89 KCAL/MOL
REMARK 922        TOTAL FREE ENERGY PREDICTED BY IDOCK:   -4.88 KCAL/MOL
REMARK 923 INTER-LIGAND FREE ENERGY PREDICTED BY IDOCK:   -4.55 KCAL/MOL
REMARK 924 INTRA-LIGAND FREE ENERGY PREDICTED BY IDOCK:   -0.32 KCAL/MOL
REMARK 927      BINDING AFFINITY PREDICTED BY RF-SCORE:    0.00 PKD
ROOT
HETATM    1  S   UNL     1      -7.935  11.207  68.916  1.00  0.00    -0.091 SA 
ENDROOT
BRANCH   1   2
HETATM    2  C   UNL     1      -9.266  11.878  67.980  1.00  0.00    -0.190 A  
HETATM    3  S   UNL     1     -10.085  13.296  68.485  1.00  0.00    -0.162 SA 
HETATM    4  N   UNL     1      -9.684  11.344  66.853  1.00  0.00    -0.190 NA 
HETATM    5  C   UNL     1     -11.084  13.217  67.085  1.00  0.00    -0.286 A  
HETATM    6  C   UNL     1     -10.714  12.104  66.328  1.00  0.00    -0.261 A  
HETATM    7  C   UNL     1     -12.122  14.075  66.685  1.00  0.00    -0.487 A  
HETATM    8  C   UNL     1     -11.400  11.842  65.126  1.00  0.00    -0.328 A  
HETATM    9  C   UNL     1     -12.796  13.786  65.494  1.00  0.00    -0.464 A  
HETATM   10  C   UNL     1     -12.439  12.685  64.720  1.00  0.00    -0.555 A  
ENDBRANCH   1   2
BRANCH   1  11
HETATM   11  S   UNL     1      -7.258   9.760  67.610  1.00  0.00    -0.089 SA 
BRANCH  11  12
HETATM   12  C   UNL     1      -8.034   8.345  68.305  1.00  0.00    -0.119 A  
HETATM   13  C   UNL     1      -9.205   4.897  71.143  1.00  0.00    -0.191 A  
HETATM   14  C   UNL     1      -9.823   4.336  70.030  1.00  0.00    -0.275 A  
HETATM   15  N   UNL     1      -7.917   8.027  69.576  1.00  0.00    -0.112 NA 
HETATM   16  C   UNL     1      -9.809   4.990  68.795  1.00  0.00    -0.236 A  
HETATM   17  C   UNL     1      -8.528   6.811  69.812  1.00  0.00    -0.133 A  
HETATM   18  C   UNL     1      -9.152   6.229  68.707  1.00  0.00    -0.127 A  
HETATM   19  C   UNL     1      -8.557   6.133  71.046  1.00  0.00    -0.132 A  
HETATM   20  S   UNL     1      -8.953   7.263  67.345  1.00  0.00    -0.123 SA 
ENDBRANCH  11  12
ENDBRANCH   1  11
TORSDOF 3
ENDMDL
MODEL      168
REMARK 921   NORMALIZED FREE ENERGY PREDICTED BY IDOCK:   -3.89 KCAL/MOL
REMARK 922        TOTAL FREE ENERGY PREDICTED BY IDOCK:   -4.87 KCAL/MOL
REMARK 923 INTER-LIGAND FREE ENERGY PREDICTED BY IDOCK:   -4.38 KCAL/MOL
REMARK 924 INTRA-LIGAND FREE ENERGY PREDICTED BY IDOCK:   -0.50 KCAL/MOL
REMARK 927      BINDING AFFINITY PREDICTED BY RF-SCORE:    0.00 PKD
ROOT
HETATM    1  S   UNL     1      -8.517   5.298  69.437  1.00  0.00    -0.094 SA 
ENDROOT
BRANCH   1   2
HETATM    2  C   UNL     1      -8.518   6.727  68.411  1.00  0.00    -0.122 A  
HETATM    3  S   UNL     1      -9.899   7.166  67.495  1.00  0.00    -0.164 SA 
HETATM    4  N   UNL     1      -7.482   7.531  68.308  1.00  0.00    -0.106 NA 
HETATM    5  C   UNL     1      -9.068   8.555  66.909  1.00  0.00    -0.146 A  
HETATM    6  C   UNL     1      -7.786   8.581  67.461  1.00  0.00    -0.099 A  
HETATM    7  C   UNL     1      -9.514   9.548  66.022  1.00  0.00    -0.294 A  
HETATM    8  C   UNL     1      -6.923   9.642  67.121  1.00  0.00    -0.085 A  
HETATM    9  C   UNL     1      -8.633  10.583  65.690  1.00  0.00    -0.182 A  
HETATM   10  C   UNL     1      -7.354  10.633  66.235  1.00  0.00    -0.137 A  
ENDBRANCH   1   2
BRANCH   1  11
HETATM   11  S   UNL     1      -8.007   6.145  71.249  1.00  0.00    -0.114 SA 
BRANCH  11  12
HETATM   12  C   UNL     1      -9.342   7.273  71.437  1.00  0.00    -0.149 A  
HETATM   13  C   UNL     1     -13.568   9.082  71.863  1.00  0.00    -0.486 A  
HETATM   14  C   UNL     1     -12.962  10.294  71.552  1.00  0.00    -0.556 A  
HETATM   15  N   UNL     1     -10.556   6.883  71.757  1.00  0.00    -0.211 NA 
HETATM   16  C   UNL     1     -11.586  10.370  71.316  1.00  0.00    -0.231 A  
HETATM   17  C   UNL     1     -11.419   7.961  71.715  1.00  0.00    -0.269 A  
HETATM   18  C   UNL     1     -10.832   9.187  71.401  1.00  0.00    -0.349 A  
HETATM   19  C   UNL     1     -12.807   7.911  71.949  1.00  0.00    -0.331 A  
HETATM   20  S   UNL     1      -9.143   8.952  71.159  1.00  0.00    -0.253 SA 
ENDBRANCH  11  12
ENDBRANCH   1  11
TORSDOF 3
ENDMDL
MODEL      169
REMARK 921   NORMALIZED FREE ENERGY PREDICTED BY IDOCK:   -3.87 KCAL/MOL
REMARK 922        TOTAL FREE ENERGY PREDICTED BY IDOCK:   -4.85 KCAL/MOL
REMARK 923 INTER-LIGAND FREE ENERGY PREDICTED BY IDOCK:   -4.53 KCAL/MOL
REMARK 924 INTRA-LIGAND FREE ENERGY PREDICTED BY IDOCK:   -0.33 KCAL/MOL
REMARK 927      BINDING AFFINITY PREDICTED BY RF-SCORE:    0.00 PKD
ROOT
HETATM    1  S   UNL     1     -10.475   8.645  67.293  1.00  0.00    -0.250 SA 
ENDROOT
BRANCH   1   2
HETATM    2  C   UNL     1     -10.973  10.177  68.000  1.00  0.00    -0.270 A  
HETATM    3  S   UNL     1     -10.963  11.627  67.085  1.00  0.00    -0.295 SA 
HETATM    4  N   UNL     1     -11.389  10.287  69.243  1.00  0.00    -0.219 NA 
HETATM    5  C   UNL     1     -11.576  12.488  68.444  1.00  0.00    -0.322 A  
HETATM    6  C   UNL     1     -11.744  11.597  69.506  1.00  0.00    -0.344 A  
HETATM    7  C   UNL     1     -11.882  13.854  68.565  1.00  0.00    -0.401 A  
HETATM    8  C   UNL     1     -12.243  12.086  70.729  1.00  0.00    -0.382 A  
HETATM    9  C   UNL     1     -12.364  14.316  69.795  1.00  0.00    -0.342 A  
HETATM   10  C   UNL     1     -12.546  13.444  70.864  1.00  0.00    -0.406 A  
ENDBRANCH   1   2
BRANCH   1  11
HETATM   11  S   UNL     1      -8.512   8.567  67.929  1.00  0.00    -0.131 SA 
BRANCH  11  12
HETATM   12  C   UNL     1      -8.704   7.565  69.360  1.00  0.00    -0.137 A  
HETATM   13  C   UNL     1      -8.449   5.920  73.666  1.00  0.00    -0.119 A  
HETATM   14  C   UNL     1      -8.873   4.715  73.115  1.00  0.00    -0.111 A  
HETATM   15  N   UNL     1      -8.428   8.000  70.570  1.00  0.00    -0.123 NA 
HETATM   16  C   UNL     1      -9.144   4.607  71.748  1.00  0.00    -0.169 A  
HETATM   17  C   UNL     1      -8.556   6.967  71.478  1.00  0.00    -0.117 A  
HETATM   18  C   UNL     1      -8.976   5.748  70.945  1.00  0.00    -0.145 A  
HETATM   19  C   UNL     1      -8.290   7.051  72.859  1.00  0.00    -0.121 A  
HETATM   20  S   UNL     1      -9.215   5.933  69.250  1.00  0.00    -0.122 SA 
ENDBRANCH  11  12
ENDBRANCH   1  11
TORSDOF 3
ENDMDL
MODEL      170
REMARK 921   NORMALIZED FREE ENERGY PREDICTED BY IDOCK:   -3.82 KCAL/MOL
REMARK 922        TOTAL FREE ENERGY PREDICTED BY IDOCK:   -4.80 KCAL/MOL
REMARK 923 INTER-LIGAND FREE ENERGY PREDICTED BY IDOCK:   -5.59 KCAL/MOL
REMARK 924 INTRA-LIGAND FREE ENERGY PREDICTED BY IDOCK:    0.79 KCAL/MOL
REMARK 927      BINDING AFFINITY PREDICTED BY RF-SCORE:    0.00 PKD
ROOT
HETATM    1  S   UNL     1      -9.283  15.268  69.084  1.00  0.00    -0.231 SA 
ENDROOT
BRANCH   1   2
HETATM    2  C   UNL     1      -9.352  13.640  68.419  1.00  0.00    -0.181 A  
HETATM    3  S   UNL     1      -8.073  13.011  67.466  1.00  0.00    -0.186 SA 
HETATM    4  N   UNL     1     -10.364  12.827  68.628  1.00  0.00    -0.215 NA 
HETATM    5  C   UNL     1      -8.918  11.519  67.318  1.00  0.00    -0.162 A  
HETATM    6  C   UNL     1     -10.125  11.612  68.014  1.00  0.00    -0.189 A  
HETATM    7  C   UNL     1      -8.544  10.350  66.634  1.00  0.00    -0.128 A  
HETATM    8  C   UNL     1     -10.985  10.496  68.032  1.00  0.00    -0.345 A  
HETATM    9  C   UNL     1      -9.421   9.261  66.658  1.00  0.00    -0.246 A  
HETATM   10  C   UNL     1     -10.626   9.329  67.350  1.00  0.00    -0.324 A  
ENDBRANCH   1   2
BRANCH   1  11
HETATM   11  S   UNL     1     -10.956  16.096  68.205  1.00  0.00    -0.342 SA 
BRANCH  11  12
HETATM   12  C   UNL     1     -11.100  15.054  66.798  1.00  0.00    -0.326 A  
HETATM   13  C   UNL     1     -12.514  11.816  63.827  1.00  0.00    -0.436 A  
HETATM   14  C   UNL     1     -11.277  11.991  63.215  1.00  0.00    -0.403 A  
HETATM   15  N   UNL     1     -12.171  14.328  66.563  1.00  0.00    -0.437 NA 
HETATM   16  C   UNL     1     -10.360  12.925  63.706  1.00  0.00    -0.143 A  
HETATM   17  C   UNL     1     -11.957  13.523  65.461  1.00  0.00    -0.390 A  
HETATM   18  C   UNL     1     -10.720  13.680  64.834  1.00  0.00    -0.391 A  
HETATM   19  C   UNL     1     -12.865  12.576  64.947  1.00  0.00    -0.216 A  
HETATM   20  S   UNL     1      -9.820  14.886  65.672  1.00  0.00    -0.296 SA 
ENDBRANCH  11  12
ENDBRANCH   1  11
TORSDOF 3
ENDMDL
MODEL      171
REMARK 921   NORMALIZED FREE ENERGY PREDICTED BY IDOCK:   -3.77 KCAL/MOL
REMARK 922        TOTAL FREE ENERGY PREDICTED BY IDOCK:   -4.74 KCAL/MOL
REMARK 923 INTER-LIGAND FREE ENERGY PREDICTED BY IDOCK:   -4.95 KCAL/MOL
REMARK 924 INTRA-LIGAND FREE ENERGY PREDICTED BY IDOCK:    0.21 KCAL/MOL
REMARK 927      BINDING AFFINITY PREDICTED BY RF-SCORE:    0.00 PKD
ROOT
HETATM    1  S   UNL     1      -8.354  15.842  67.557  1.00  0.00    -0.176 SA 
ENDROOT
BRANCH   1   2
HETATM    2  C   UNL     1      -9.336  14.576  68.285  1.00  0.00    -0.203 A  
HETATM    3  S   UNL     1     -10.771  14.946  69.147  1.00  0.00    -0.258 SA 
HETATM    4  N   UNL     1      -9.034  13.299  68.194  1.00  0.00    -0.192 NA 
HETATM    5  C   UNL     1     -11.037  13.268  69.422  1.00  0.00    -0.090 A  
HETATM    6  C   UNL     1     -10.001  12.542  68.830  1.00  0.00    -0.015 A  
HETATM    7  C   UNL     1     -12.084  12.636  70.115  1.00  0.00    -0.368 A  
HETATM    8  C   UNL     1     -10.016  11.137  68.927  1.00  0.00    -0.188 A  
HETATM    9  C   UNL     1     -12.068  11.240  70.207  1.00  0.00    -0.459 A  
HETATM   10  C   UNL     1     -11.049  10.497  69.618  1.00  0.00    -0.338 A  
ENDBRANCH   1   2
BRANCH   1  11
HETATM   11  S   UNL     1      -9.751  16.728  66.323  1.00  0.00    -0.294 SA 
BRANCH  11  12
HETATM   12  C   UNL     1     -10.425  15.296  65.560  1.00  0.00    -0.374 A  
HETATM   13  C   UNL     1     -10.884  11.183  63.515  1.00  0.00    -0.275 A  
HETATM   14  C   UNL     1     -12.159  11.619  63.170  1.00  0.00    -0.133 A  
HETATM   15  N   UNL     1      -9.735  14.188  65.404  1.00  0.00    -0.179 NA 
HETATM   16  C   UNL     1     -12.618  12.880  63.561  1.00  0.00    -0.308 A  
HETATM   17  C   UNL     1     -10.473  13.278  64.672  1.00  0.00    -0.402 A  
HETATM   18  C   UNL     1     -11.755  13.697  64.311  1.00  0.00    -0.403 A  
HETATM   19  C   UNL     1     -10.034  12.002  64.266  1.00  0.00    -0.266 A  
HETATM   20  S   UNL     1     -12.017  15.283  64.927  1.00  0.00    -0.029 SA 
ENDBRANCH  11  12
ENDBRANCH   1  11
TORSDOF 3
ENDMDL
MODEL      172
REMARK 921   NORMALIZED FREE ENERGY PREDICTED BY IDOCK:   -3.69 KCAL/MOL
REMARK 922        TOTAL FREE ENERGY PREDICTED BY IDOCK:   -4.64 KCAL/MOL
REMARK 923 INTER-LIGAND FREE ENERGY PREDICTED BY IDOCK:   -4.49 KCAL/MOL
REMARK 924 INTRA-LIGAND FREE ENERGY PREDICTED BY IDOCK:   -0.16 KCAL/MOL
REMARK 927      BINDING AFFINITY PREDICTED BY RF-SCORE:    0.00 PKD
ROOT
HETATM    1  S   UNL     1      -9.242   8.616  69.284  1.00  0.00    -0.150 SA 
ENDROOT
BRANCH   1   2
HETATM    2  C   UNL     1      -9.984  10.017  68.520  1.00  0.00    -0.162 A  
HETATM    3  S   UNL     1     -10.295  10.054  66.834  1.00  0.00    -0.220 SA 
HETATM    4  N   UNL     1     -10.349  11.086  69.194  1.00  0.00    -0.210 NA 
HETATM    5  C   UNL     1     -10.989  11.621  66.997  1.00  0.00    -0.288 A  
HETATM    6  C   UNL     1     -10.932  12.004  68.338  1.00  0.00    -0.237 A  
HETATM    7  C   UNL     1     -11.541  12.454  66.010  1.00  0.00    -0.455 A  
HETATM    8  C   UNL     1     -11.451  13.260  68.707  1.00  0.00    -0.346 A  
HETATM    9  C   UNL     1     -12.038  13.702  66.401  1.00  0.00    -0.478 A  
HETATM   10  C   UNL     1     -11.998  14.101  67.734  1.00  0.00    -0.389 A  
ENDBRANCH   1   2
BRANCH   1  11
HETATM   11  S   UNL     1     -10.908   7.434  69.583  1.00  0.00    -0.169 SA 
BRANCH  11  12
HETATM   12  C   UNL     1     -10.222   6.220  70.652  1.00  0.00    -0.194 A  
HETATM   13  C   UNL     1      -9.222   2.217  72.723  1.00  0.00    -0.106 A  
HETATM   14  C   UNL     1      -8.698   3.001  73.745  1.00  0.00    -0.073 A  
HETATM   15  N   UNL     1     -10.313   4.931  70.408  1.00  0.00    -0.223 NA 
HETATM   16  C   UNL     1      -8.710   4.396  73.657  1.00  0.00    -0.102 A  
HETATM   17  C   UNL     1      -9.793   4.217  71.470  1.00  0.00    -0.184 A  
HETATM   18  C   UNL     1      -9.266   4.985  72.509  1.00  0.00    -0.132 A  
HETATM   19  C   UNL     1      -9.770   2.813  71.582  1.00  0.00    -0.226 A  
HETATM   20  S   UNL     1      -9.435   6.652  72.112  1.00  0.00    -0.142 SA 
ENDBRANCH  11  12
ENDBRANCH   1  11
TORSDOF 3
ENDMDL
MODEL      173
REMARK 921   NORMALIZED FREE ENERGY PREDICTED BY IDOCK:   -3.67 KCAL/MOL
REMARK 922        TOTAL FREE ENERGY PREDICTED BY IDOCK:   -4.62 KCAL/MOL
REMARK 923 INTER-LIGAND FREE ENERGY PREDICTED BY IDOCK:   -4.18 KCAL/MOL
REMARK 924 INTRA-LIGAND FREE ENERGY PREDICTED BY IDOCK:   -0.44 KCAL/MOL
REMARK 927      BINDING AFFINITY PREDICTED BY RF-SCORE:    0.00 PKD
ROOT
HETATM    1  S   UNL     1     -11.255   7.260  70.082  1.00  0.00    -0.202 SA 
ENDROOT
BRANCH   1   2
HETATM    2  C   UNL     1     -11.770   8.897  70.471  1.00  0.00    -0.111 A  
HETATM    3  S   UNL     1     -12.864   9.206  71.755  1.00  0.00    -0.408 SA 
HETATM    4  N   UNL     1     -11.338   9.954  69.819  1.00  0.00    -0.223 NA 
HETATM    5  C   UNL     1     -12.756  10.895  71.440  1.00  0.00    -0.434 A  
HETATM    6  C   UNL     1     -11.885  11.100  70.367  1.00  0.00    -0.369 A  
HETATM    7  C   UNL     1     -13.397  11.962  72.089  1.00  0.00    -0.361 A  
HETATM    8  C   UNL     1     -11.641  12.418  69.934  1.00  0.00    -0.260 A  
HETATM    9  C   UNL     1     -13.148  13.260  71.632  1.00  0.00    -0.453 A  
HETATM   10  C   UNL     1     -12.278  13.488  70.569  1.00  0.00    -0.433 A  
ENDBRANCH   1   2
BRANCH   1  11
HETATM   11  S   UNL     1      -9.754   7.005  71.475  1.00  0.00    -0.163 SA 
BRANCH  11  12
HETATM   12  C   UNL     1      -8.479   7.946  70.714  1.00  0.00    -0.124 A  
HETATM   13  C   UNL     1      -5.767  11.429  69.364  1.00  0.00    -0.058 A  
HETATM   14  C   UNL     1      -5.311  10.551  68.386  1.00  0.00    -0.033 A  
HETATM   15  N   UNL     1      -8.194   9.175  71.081  1.00  0.00    -0.303 NA 
HETATM   16  C   UNL     1      -5.802   9.244  68.309  1.00  0.00    -0.038 A  
HETATM   17  C   UNL     1      -7.238   9.705  70.236  1.00  0.00    -0.135 A  
HETATM   18  C   UNL     1      -6.769   8.842  69.245  1.00  0.00    -0.050 A  
HETATM   19  C   UNL     1      -6.728  11.017  70.294  1.00  0.00     0.081 A  
HETATM   20  S   UNL     1      -7.566   7.324  69.405  1.00  0.00    -0.099 SA 
ENDBRANCH  11  12
ENDBRANCH   1  11
TORSDOF 3
ENDMDL
MODEL      174
REMARK 921   NORMALIZED FREE ENERGY PREDICTED BY IDOCK:   -3.65 KCAL/MOL
REMARK 922        TOTAL FREE ENERGY PREDICTED BY IDOCK:   -4.59 KCAL/MOL
REMARK 923 INTER-LIGAND FREE ENERGY PREDICTED BY IDOCK:   -4.20 KCAL/MOL
REMARK 924 INTRA-LIGAND FREE ENERGY PREDICTED BY IDOCK:   -0.40 KCAL/MOL
REMARK 927      BINDING AFFINITY PREDICTED BY RF-SCORE:    0.00 PKD
ROOT
HETATM    1  S   UNL     1      -9.813  18.141  66.467  1.00  0.00    -0.371 SA 
ENDROOT
BRANCH   1   2
HETATM    2  C   UNL     1      -8.533  18.285  67.666  1.00  0.00    -0.255 A  
HETATM    3  S   UNL     1      -8.074  19.810  68.302  1.00  0.00    -0.244 SA 
HETATM    4  N   UNL     1      -7.883  17.246  68.142  1.00  0.00    -0.212 NA 
HETATM    5  C   UNL     1      -6.914  19.038  69.313  1.00  0.00    -0.267 A  
HETATM    6  C   UNL     1      -6.964  17.661  69.089  1.00  0.00    -0.217 A  
HETATM    7  C   UNL     1      -6.021  19.608  70.236  1.00  0.00    -0.310 A  
HETATM    8  C   UNL     1      -6.096  16.823  69.817  1.00  0.00    -0.224 A  
HETATM    9  C   UNL     1      -5.162  18.756  70.937  1.00  0.00    -0.267 A  
HETATM   10  C   UNL     1      -5.199  17.379  70.735  1.00  0.00    -0.254 A  
ENDBRANCH   1   2
BRANCH   1  11
HETATM   11  S   UNL     1     -11.439  17.831  67.700  1.00  0.00     1.161 SA 
BRANCH  11  12
HETATM   12  C   UNL     1     -11.340  16.086  67.889  1.00  0.00    -0.218 A  
HETATM   13  C   UNL     1     -10.804  11.578  67.056  1.00  0.00    -0.320 A  
HETATM   14  C   UNL     1     -11.445  11.387  68.275  1.00  0.00    -0.369 A  
HETATM   15  N   UNL     1     -10.796  15.307  66.981  1.00  0.00    -0.318 NA 
HETATM   16  C   UNL     1     -11.859  12.477  69.047  1.00  0.00    -0.344 A  
HETATM   17  C   UNL     1     -10.966  13.984  67.338  1.00  0.00    -0.293 A  
HETATM   18  C   UNL     1     -11.611  13.770  68.557  1.00  0.00    -0.338 A  
HETATM   19  C   UNL     1     -10.558  12.870  66.579  1.00  0.00    -0.272 A  
HETATM   20  S   UNL     1     -12.001  15.294  69.257  1.00  0.00    -0.267 SA 
ENDBRANCH  11  12
ENDBRANCH   1  11
TORSDOF 3
ENDMDL
MODEL      175
REMARK 921   NORMALIZED FREE ENERGY PREDICTED BY IDOCK:   -3.60 KCAL/MOL
REMARK 922        TOTAL FREE ENERGY PREDICTED BY IDOCK:   -4.54 KCAL/MOL
REMARK 923 INTER-LIGAND FREE ENERGY PREDICTED BY IDOCK:   -4.38 KCAL/MOL
REMARK 924 INTRA-LIGAND FREE ENERGY PREDICTED BY IDOCK:   -0.16 KCAL/MOL
REMARK 927      BINDING AFFINITY PREDICTED BY RF-SCORE:    0.00 PKD
ROOT
HETATM    1  S   UNL     1      -9.109  13.821  67.017  1.00  0.00    -0.241 SA 
ENDROOT
BRANCH   1   2
HETATM    2  C   UNL     1      -9.280  12.071  66.933  1.00  0.00    -0.197 A  
HETATM    3  S   UNL     1     -10.540  11.257  67.763  1.00  0.00    -0.215 SA 
HETATM    4  N   UNL     1      -8.473  11.310  66.227  1.00  0.00    -0.170 NA 
HETATM    5  C   UNL     1      -9.986   9.756  67.129  1.00  0.00    -0.198 A  
HETATM    6  C   UNL     1      -8.870   9.989  66.323  1.00  0.00    -0.143 A  
HETATM    7  C   UNL     1     -10.498   8.463  67.332  1.00  0.00    -0.354 A  
HETATM    8  C   UNL     1      -8.249   8.894  65.691  1.00  0.00    -0.126 A  
HETATM    9  C   UNL     1      -9.855   7.392  66.703  1.00  0.00    -0.263 A  
HETATM   10  C   UNL     1      -8.746   7.602  65.889  1.00  0.00    -0.176 A  
ENDBRANCH   1   2
BRANCH   1  11
HETATM   11  S   UNL     1      -7.131  13.971  67.590  1.00  0.00    -0.165 SA 
BRANCH  11  12
HETATM   12  C   UNL     1      -7.009  15.714  67.778  1.00  0.00    -0.158 A  
HETATM   13  C   UNL     1      -6.246  19.926  69.508  1.00  0.00    -0.370 A  
HETATM   14  C   UNL     1      -7.030  20.382  68.453  1.00  0.00    -0.221 A  
HETATM   15  N   UNL     1      -6.333  16.272  68.758  1.00  0.00    -0.121 NA 
HETATM   16  C   UNL     1      -7.568  19.490  67.520  1.00  0.00    -0.290 A  
HETATM   17  C   UNL     1      -6.509  17.642  68.726  1.00  0.00    -0.213 A  
HETATM   18  C   UNL     1      -7.296  18.121  67.677  1.00  0.00    -0.213 A  
HETATM   19  C   UNL     1      -5.978  18.560  69.653  1.00  0.00    -0.270 A  
HETATM   20  S   UNL     1      -7.814  16.790  66.715  1.00  0.00    -0.277 SA 
ENDBRANCH  11  12
ENDBRANCH   1  11
TORSDOF 3
ENDMDL
MODEL      176
REMARK 921   NORMALIZED FREE ENERGY PREDICTED BY IDOCK:   -3.58 KCAL/MOL
REMARK 922        TOTAL FREE ENERGY PREDICTED BY IDOCK:   -4.51 KCAL/MOL
REMARK 923 INTER-LIGAND FREE ENERGY PREDICTED BY IDOCK:   -4.00 KCAL/MOL
REMARK 924 INTRA-LIGAND FREE ENERGY PREDICTED BY IDOCK:   -0.51 KCAL/MOL
REMARK 927      BINDING AFFINITY PREDICTED BY RF-SCORE:    0.00 PKD
ROOT
HETATM    1  S   UNL     1     -10.832   7.233  73.261  1.00  0.00    -0.302 SA 
ENDROOT
BRANCH   1   2
HETATM    2  C   UNL     1     -10.696   7.443  71.519  1.00  0.00    -0.222 A  
HETATM    3  S   UNL     1     -10.001   8.857  70.843  1.00  0.00    -0.266 SA 
HETATM    4  N   UNL     1     -11.098   6.534  70.658  1.00  0.00    -0.287 NA 
HETATM    5  C   UNL     1     -10.237   8.216  69.263  1.00  0.00    -0.214 A  
HETATM    6  C   UNL     1     -10.833   6.958  69.369  1.00  0.00    -0.249 A  
HETATM    7  C   UNL     1      -9.921   8.785  68.018  1.00  0.00    -0.220 A  
HETATM    8  C   UNL     1     -11.118   6.241  68.191  1.00  0.00    -0.364 A  
HETATM    9  C   UNL     1     -10.225   8.057  66.862  1.00  0.00    -0.385 A  
HETATM   10  C   UNL     1     -10.813   6.798  66.945  1.00  0.00    -0.402 A  
ENDBRANCH   1   2
BRANCH   1  11
HETATM   11  S   UNL     1      -8.917   6.603  73.707  1.00  0.00    -0.150 SA 
BRANCH  11  12
HETATM   12  C   UNL     1      -8.769   5.274  72.567  1.00  0.00    -0.120 A  
HETATM   13  C   UNL     1      -7.761   2.745  68.839  1.00  0.00    -0.048 A  
HETATM   14  C   UNL     1      -8.692   1.839  69.336  1.00  0.00    -0.112 A  
HETATM   15  N   UNL     1      -7.956   5.316  71.534  1.00  0.00    -0.112 NA 
HETATM   16  C   UNL     1      -9.361   2.084  70.538  1.00  0.00    -0.183 A  
HETATM   17  C   UNL     1      -8.136   4.192  70.752  1.00  0.00    -0.063 A  
HETATM   18  C   UNL     1      -9.069   3.271  71.231  1.00  0.00    -0.108 A  
HETATM   19  C   UNL     1      -7.474   3.922  69.538  1.00  0.00    -0.053 A  
HETATM   20  S   UNL     1      -9.722   3.858  72.712  1.00  0.00    -0.145 SA 
ENDBRANCH  11  12
ENDBRANCH   1  11
TORSDOF 3
ENDMDL
MODEL      177
REMARK 921   NORMALIZED FREE ENERGY PREDICTED BY IDOCK:   -3.57 KCAL/MOL
REMARK 922        TOTAL FREE ENERGY PREDICTED BY IDOCK:   -4.50 KCAL/MOL
REMARK 923 INTER-LIGAND FREE ENERGY PREDICTED BY IDOCK:   -3.96 KCAL/MOL
REMARK 924 INTRA-LIGAND FREE ENERGY PREDICTED BY IDOCK:   -0.54 KCAL/MOL
REMARK 927      BINDING AFFINITY PREDICTED BY RF-SCORE:    0.00 PKD
ROOT
HETATM    1  S   UNL     1     -10.354   8.982  71.107  1.00  0.00    -0.319 SA 
ENDROOT
BRANCH   1   2
HETATM    2  C   UNL     1     -10.507  10.335  69.993  1.00  0.00    -0.241 A  
HETATM    3  S   UNL     1     -12.015  11.106  69.729  1.00  0.00    -0.370 SA 
HETATM    4  N   UNL     1      -9.486  10.828  69.327  1.00  0.00    -0.138 NA 
HETATM    5  C   UNL     1     -11.261  12.207  68.642  1.00  0.00    -0.269 A  
HETATM    6  C   UNL     1      -9.901  11.902  68.560  1.00  0.00    -0.183 A  
HETATM    7  C   UNL     1     -11.829  13.263  67.911  1.00  0.00    -0.388 A  
HETATM    8  C   UNL     1      -9.079  12.683  67.724  1.00  0.00    -0.192 A  
HETATM    9  C   UNL     1     -10.994  14.016  67.078  1.00  0.00    -0.302 A  
HETATM   10  C   UNL     1      -9.634  13.734  66.987  1.00  0.00    -0.251 A  
ENDBRANCH   1   2
BRANCH   1  11
HETATM   11  S   UNL     1     -11.073   7.448  69.926  1.00  0.00    -0.137 SA 
BRANCH  11  12
HETATM   12  C   UNL     1     -10.019   7.628  68.532  1.00  0.00    -0.180 A  
HETATM   13  C   UNL     1      -6.304   8.156  65.843  1.00  0.00    -0.045 A  
HETATM   14  C   UNL     1      -7.210   8.494  64.843  1.00  0.00    -0.084 A  
HETATM   15  N   UNL     1      -8.715   7.482  68.609  1.00  0.00    -0.129 NA 
HETATM   16  C   UNL     1      -8.586   8.493  65.091  1.00  0.00    -0.179 A  
HETATM   17  C   UNL     1      -8.137   7.797  67.394  1.00  0.00    -0.123 A  
HETATM   18  C   UNL     1      -9.029   8.143  66.378  1.00  0.00    -0.171 A  
HETATM   19  C   UNL     1      -6.756   7.805  67.120  1.00  0.00    -0.068 A  
HETATM   20  S   UNL     1     -10.635   8.057  66.992  1.00  0.00    -0.190 SA 
ENDBRANCH  11  12
ENDBRANCH   1  11
TORSDOF 3
ENDMDL
MODEL      178
REMARK 921   NORMALIZED FREE ENERGY PREDICTED BY IDOCK:   -3.56 KCAL/MOL
REMARK 922        TOTAL FREE ENERGY PREDICTED BY IDOCK:   -4.49 KCAL/MOL
REMARK 923 INTER-LIGAND FREE ENERGY PREDICTED BY IDOCK:   -4.45 KCAL/MOL
REMARK 924 INTRA-LIGAND FREE ENERGY PREDICTED BY IDOCK:   -0.04 KCAL/MOL
REMARK 927      BINDING AFFINITY PREDICTED BY RF-SCORE:    0.00 PKD
ROOT
HETATM    1  S   UNL     1     -10.535  11.613  66.049  1.00  0.00    -0.260 SA 
ENDROOT
BRANCH   1   2
HETATM    2  C   UNL     1     -11.179  12.431  67.468  1.00  0.00    -0.294 A  
HETATM    3  S   UNL     1     -11.871  11.551  68.767  1.00  0.00    -0.289 SA 
HETATM    4  N   UNL     1     -11.149  13.737  67.612  1.00  0.00    -0.267 NA 
HETATM    5  C   UNL     1     -12.152  13.023  69.614  1.00  0.00    -0.241 A  
HETATM    6  C   UNL     1     -11.692  14.087  68.835  1.00  0.00    -0.340 A  
HETATM    7  C   UNL     1     -12.739  13.224  70.874  1.00  0.00    -0.332 A  
HETATM    8  C   UNL     1     -11.818  15.398  69.337  1.00  0.00    -0.372 A  
HETATM    9  C   UNL     1     -12.863  14.536  71.343  1.00  0.00    -0.406 A  
HETATM   10  C   UNL     1     -12.405  15.611  70.587  1.00  0.00    -0.457 A  
ENDBRANCH   1   2
BRANCH   1  11
HETATM   11  S   UNL     1     -10.224   9.725  66.821  1.00  0.00    -0.221 SA 
BRANCH  11  12
HETATM   12  C   UNL     1      -8.853  10.054  67.870  1.00  0.00    -0.125 A  
HETATM   13  C   UNL     1      -5.780   9.871  71.309  1.00  0.00    -0.054 A  
HETATM   14  C   UNL     1      -5.415  11.151  70.906  1.00  0.00    -0.104 A  
HETATM   15  N   UNL     1      -8.440   9.202  68.782  1.00  0.00    -0.128 NA 
HETATM   16  C   UNL     1      -6.041  11.768  69.818  1.00  0.00    -0.136 A  
HETATM   17  C   UNL     1      -7.430   9.773  69.531  1.00  0.00    -0.101 A  
HETATM   18  C   UNL     1      -7.050  11.060  69.145  1.00  0.00    -0.116 A  
HETATM   19  C   UNL     1      -6.783   9.173  70.629  1.00  0.00    -0.076 A  
HETATM   20  S   UNL     1      -8.005  11.541  67.795  1.00  0.00    -0.136 SA 
ENDBRANCH  11  12
ENDBRANCH   1  11
TORSDOF 3
ENDMDL
MODEL      179
REMARK 921   NORMALIZED FREE ENERGY PREDICTED BY IDOCK:   -3.56 KCAL/MOL
REMARK 922        TOTAL FREE ENERGY PREDICTED BY IDOCK:   -4.49 KCAL/MOL
REMARK 923 INTER-LIGAND FREE ENERGY PREDICTED BY IDOCK:   -4.46 KCAL/MOL
REMARK 924 INTRA-LIGAND FREE ENERGY PREDICTED BY IDOCK:   -0.03 KCAL/MOL
REMARK 927      BINDING AFFINITY PREDICTED BY RF-SCORE:    0.00 PKD
ROOT
HETATM    1  S   UNL     1      -9.918  15.639  66.868  1.00  0.00    -0.255 SA 
ENDROOT
BRANCH   1   2
HETATM    2  C   UNL     1      -8.722  16.494  67.836  1.00  0.00    -0.188 A  
HETATM    3  S   UNL     1      -7.583  15.647  68.798  1.00  0.00    -0.177 SA 
HETATM    4  N   UNL     1      -8.630  17.805  67.860  1.00  0.00    -0.245 NA 
HETATM    5  C   UNL     1      -6.887  17.143  69.289  1.00  0.00    -0.209 A  
HETATM    6  C   UNL     1      -7.582  18.188  68.677  1.00  0.00    -0.295 A  
HETATM    7  C   UNL     1      -5.807  17.377  70.156  1.00  0.00    -0.184 A  
HETATM    8  C   UNL     1      -7.179  19.513  68.934  1.00  0.00    -0.397 A  
HETATM    9  C   UNL     1      -5.435  18.703  70.405  1.00  0.00    -0.236 A  
HETATM   10  C   UNL     1      -6.109  19.759  69.800  1.00  0.00    -0.362 A  
ENDBRANCH   1   2
BRANCH   1  11
HETATM   11  S   UNL     1     -10.807  14.476  68.323  1.00  0.00    -0.249 SA 
BRANCH  11  12
HETATM   12  C   UNL     1     -10.241  12.889  67.822  1.00  0.00    -0.224 A  
HETATM   13  C   UNL     1     -10.077   8.433  66.627  1.00  0.00    -0.358 A  
HETATM   14  C   UNL     1      -8.709   8.535  66.854  1.00  0.00    -0.137 A  
HETATM   15  N   UNL     1     -11.057  11.948  67.402  1.00  0.00    -0.261 NA 
HETATM   16  C   UNL     1      -8.135   9.746  67.252  1.00  0.00    -0.117 A  
HETATM   17  C   UNL     1     -10.353  10.778  67.193  1.00  0.00    -0.224 A  
HETATM   18  C   UNL     1      -8.978  10.857  67.419  1.00  0.00    -0.136 A  
HETATM   19  C   UNL     1     -10.907   9.547  66.791  1.00  0.00    -0.031 A  
HETATM   20  S   UNL     1      -8.583  12.462  67.903  1.00  0.00    -0.180 SA 
ENDBRANCH  11  12
ENDBRANCH   1  11
TORSDOF 3
ENDMDL
MODEL      180
REMARK 921   NORMALIZED FREE ENERGY PREDICTED BY IDOCK:   -3.55 KCAL/MOL
REMARK 922        TOTAL FREE ENERGY PREDICTED BY IDOCK:   -4.47 KCAL/MOL
REMARK 923 INTER-LIGAND FREE ENERGY PREDICTED BY IDOCK:   -4.30 KCAL/MOL
REMARK 924 INTRA-LIGAND FREE ENERGY PREDICTED BY IDOCK:   -0.18 KCAL/MOL
REMARK 927      BINDING AFFINITY PREDICTED BY RF-SCORE:    0.00 PKD
ROOT
HETATM    1  S   UNL     1     -10.190  12.100  63.737  1.00  0.00    -0.405 SA 
ENDROOT
BRANCH   1   2
HETATM    2  C   UNL     1     -10.620  13.075  65.137  1.00  0.00    -0.312 A  
HETATM    3  S   UNL     1     -11.810  12.554  66.256  1.00  0.00    -0.341 SA 
HETATM    4  N   UNL     1     -10.049  14.229  65.404  1.00  0.00    -0.357 NA 
HETATM    5  C   UNL     1     -11.548  13.973  67.195  1.00  0.00    -0.372 A  
HETATM    6  C   UNL     1     -10.562  14.747  66.579  1.00  0.00    -0.299 A  
HETATM    7  C   UNL     1     -12.170  14.376  68.388  1.00  0.00    -0.178 A  
HETATM    8  C   UNL     1     -10.181  15.963  67.180  1.00  0.00    -0.278 A  
HETATM    9  C   UNL     1     -11.782  15.593  68.957  1.00  0.00    -0.408 A  
HETATM   10  C   UNL     1     -10.797  16.377  68.364  1.00  0.00    -0.342 A  
ENDBRANCH   1   2
BRANCH   1  11
HETATM   11  S   UNL     1     -10.154  10.222  64.594  1.00  0.00    -0.108 SA 
BRANCH  11  12
HETATM   12  C   UNL     1      -9.086  10.536  65.954  1.00  0.00    -0.168 A  
HETATM   13  C   UNL     1      -5.468  11.799  68.527  1.00  0.00    -0.045 A  
HETATM   14  C   UNL     1      -6.053  11.034  69.531  1.00  0.00    -0.072 A  
HETATM   15  N   UNL     1      -8.020  11.299  65.853  1.00  0.00     0.003 NA 
HETATM   16  C   UNL     1      -7.266  10.374  69.316  1.00  0.00    -0.100 A  
HETATM   17  C   UNL     1      -7.310  11.269  67.038  1.00  0.00    -0.136 A  
HETATM   18  C   UNL     1      -7.878  10.503  68.058  1.00  0.00    -0.105 A  
HETATM   19  C   UNL     1      -6.087  11.925  67.279  1.00  0.00    -0.141 A  
HETATM   20  S   UNL     1      -9.350   9.816  67.486  1.00  0.00    -0.133 SA 
ENDBRANCH  11  12
ENDBRANCH   1  11
TORSDOF 3
ENDMDL
MODEL      181
REMARK 921   NORMALIZED FREE ENERGY PREDICTED BY IDOCK:   -3.47 KCAL/MOL
REMARK 922        TOTAL FREE ENERGY PREDICTED BY IDOCK:   -4.38 KCAL/MOL
REMARK 923 INTER-LIGAND FREE ENERGY PREDICTED BY IDOCK:   -3.96 KCAL/MOL
REMARK 924 INTRA-LIGAND FREE ENERGY PREDICTED BY IDOCK:   -0.42 KCAL/MOL
REMARK 927      BINDING AFFINITY PREDICTED BY RF-SCORE:    0.00 PKD
ROOT
HETATM    1  S   UNL     1      -8.326   7.648  65.433  1.00  0.00    -0.100 SA 
ENDROOT
BRANCH   1   2
HETATM    2  C   UNL     1      -8.703   9.276  65.984  1.00  0.00    -0.153 A  
HETATM    3  S   UNL     1      -7.470  10.444  66.222  1.00  0.00    -0.133 SA 
HETATM    4  N   UNL     1      -9.931   9.681  66.223  1.00  0.00    -0.256 NA 
HETATM    5  C   UNL     1      -8.659  11.605  66.672  1.00  0.00    -0.179 A  
HETATM    6  C   UNL     1      -9.920  11.010  66.607  1.00  0.00    -0.209 A  
HETATM    7  C   UNL     1      -8.490  12.945  67.059  1.00  0.00    -0.146 A  
HETATM    8  C   UNL     1     -11.052  11.782  66.933  1.00  0.00    -0.361 A  
HETATM    9  C   UNL     1      -9.629  13.686  67.390  1.00  0.00    -0.226 A  
HETATM   10  C   UNL     1     -10.897  13.115  67.325  1.00  0.00    -0.270 A  
ENDBRANCH   1   2
BRANCH   1  11
HETATM   11  S   UNL     1      -6.968   7.074  66.878  1.00  0.00    -0.071 SA 
BRANCH  11  12
HETATM   12  C   UNL     1      -7.890   7.461  68.323  1.00  0.00    -0.122 A  
HETATM   13  C   UNL     1     -11.267   7.772  71.455  1.00  0.00    -0.278 A  
HETATM   14  C   UNL     1     -10.513   8.802  72.006  1.00  0.00    -0.414 A  
HETATM   15  N   UNL     1      -9.015   6.852  68.627  1.00  0.00    -0.130 NA 
HETATM   16  C   UNL     1      -9.287   9.174  71.447  1.00  0.00    -0.246 A  
HETATM   17  C   UNL     1      -9.577   7.439  69.745  1.00  0.00    -0.163 A  
HETATM   18  C   UNL     1      -8.837   8.478  70.311  1.00  0.00    -0.148 A  
HETATM   19  C   UNL     1     -10.809   7.083  70.327  1.00  0.00    -0.283 A  
HETATM   20  S   UNL     1      -7.396   8.701  69.397  1.00  0.00    -0.073 SA 
ENDBRANCH  11  12
ENDBRANCH   1  11
TORSDOF 3
ENDMDL
MODEL      182
REMARK 921   NORMALIZED FREE ENERGY PREDICTED BY IDOCK:   -3.45 KCAL/MOL
REMARK 922        TOTAL FREE ENERGY PREDICTED BY IDOCK:   -4.36 KCAL/MOL
REMARK 923 INTER-LIGAND FREE ENERGY PREDICTED BY IDOCK:   -3.86 KCAL/MOL
REMARK 924 INTRA-LIGAND FREE ENERGY PREDICTED BY IDOCK:   -0.50 KCAL/MOL
REMARK 927      BINDING AFFINITY PREDICTED BY RF-SCORE:    0.00 PKD
ROOT
HETATM    1  S   UNL     1      -9.880   9.920  65.427  1.00  0.00    -0.267 SA 
ENDROOT
BRANCH   1   2
HETATM    2  C   UNL     1     -10.584  10.762  66.802  1.00  0.00    -0.250 A  
HETATM    3  S   UNL     1     -11.033   9.922  68.228  1.00  0.00    -0.148 SA 
HETATM    4  N   UNL     1     -10.785  12.062  66.815  1.00  0.00    -0.234 NA 
HETATM    5  C   UNL     1     -11.531  11.405  68.945  1.00  0.00    -0.298 A  
HETATM    6  C   UNL     1     -11.315  12.442  68.035  1.00  0.00    -0.287 A  
HETATM    7  C   UNL     1     -12.076  11.637  70.218  1.00  0.00    -0.443 A  
HETATM    8  C   UNL     1     -11.649  13.757  68.413  1.00  0.00    -0.369 A  
HETATM    9  C   UNL     1     -12.410  12.950  70.565  1.00  0.00    -0.362 A  
HETATM   10  C   UNL     1     -12.198  14.000  69.676  1.00  0.00    -0.383 A  
ENDBRANCH   1   2
BRANCH   1  11
HETATM   11  S   UNL     1      -7.898  10.453  65.643  1.00  0.00    -0.148 SA 
BRANCH  11  12
HETATM   12  C   UNL     1      -7.569   9.743  67.217  1.00  0.00    -0.088 A  
HETATM   13  C   UNL     1      -6.141   9.095  71.558  1.00  0.00    -0.076 A  
HETATM   14  C   UNL     1      -6.334   7.741  71.305  1.00  0.00    -0.034 A  
HETATM   15  N   UNL     1      -7.203  10.462  68.254  1.00  0.00    -0.082 NA 
HETATM   16  C   UNL     1      -6.808   7.303  70.064  1.00  0.00    -0.055 A  
HETATM   17  C   UNL     1      -6.899   9.631  69.315  1.00  0.00    -0.050 A  
HETATM   18  C   UNL     1      -7.082   8.268  69.080  1.00  0.00    -0.064 A  
HETATM   19  C   UNL     1      -6.421  10.047  70.573  1.00  0.00    -0.121 A  
HETATM   20  S   UNL     1      -7.659   8.051  67.473  1.00  0.00    -0.103 SA 
ENDBRANCH  11  12
ENDBRANCH   1  11
TORSDOF 3
ENDMDL
MODEL      183
REMARK 921   NORMALIZED FREE ENERGY PREDICTED BY IDOCK:   -3.41 KCAL/MOL
REMARK 922        TOTAL FREE ENERGY PREDICTED BY IDOCK:   -4.31 KCAL/MOL
REMARK 923 INTER-LIGAND FREE ENERGY PREDICTED BY IDOCK:   -3.73 KCAL/MOL
REMARK 924 INTRA-LIGAND FREE ENERGY PREDICTED BY IDOCK:   -0.58 KCAL/MOL
REMARK 927      BINDING AFFINITY PREDICTED BY RF-SCORE:    0.00 PKD
ROOT
HETATM    1  S   UNL     1      -9.105   5.726  66.162  1.00  0.00    -0.146 SA 
ENDROOT
BRANCH   1   2
HETATM    2  C   UNL     1      -8.907   7.455  66.425  1.00  0.00    -0.156 A  
HETATM    3  S   UNL     1     -10.239   8.452  66.838  1.00  0.00    -0.307 SA 
HETATM    4  N   UNL     1      -7.743   8.060  66.336  1.00  0.00    -0.091 NA 
HETATM    5  C   UNL     1      -9.190   9.815  66.922  1.00  0.00    -0.147 A  
HETATM    6  C   UNL     1      -7.889   9.404  66.626  1.00  0.00    -0.104 A  
HETATM    7  C   UNL     1      -9.495  11.153  67.224  1.00  0.00    -0.178 A  
HETATM    8  C   UNL     1      -6.856  10.361  66.640  1.00  0.00    -0.099 A  
HETATM    9  C   UNL     1      -8.453  12.086  67.219  1.00  0.00    -0.175 A  
HETATM   10  C   UNL     1      -7.147  11.697  66.934  1.00  0.00    -0.124 A  
ENDBRANCH   1   2
BRANCH   1  11
HETATM   11  S   UNL     1      -8.028   4.985  67.759  1.00  0.00    -0.094 SA 
BRANCH  11  12
HETATM   12  C   UNL     1      -8.844   5.812  69.078  1.00  0.00    -0.111 A  
HETATM   13  C   UNL     1      -9.703   8.216  72.924  1.00  0.00    -0.340 A  
HETATM   14  C   UNL     1     -10.993   7.705  72.825  1.00  0.00    -0.432 A  
HETATM   15  N   UNL     1      -8.220   6.643  69.884  1.00  0.00    -0.125 NA 
HETATM   16  C   UNL     1     -11.352   6.862  71.769  1.00  0.00    -0.295 A  
HETATM   17  C   UNL     1      -9.076   7.047  70.890  1.00  0.00    -0.153 A  
HETATM   18  C   UNL     1     -10.375   6.543  70.812  1.00  0.00    -0.204 A  
HETATM   19  C   UNL     1      -8.738   7.895  71.963  1.00  0.00    -0.180 A  
HETATM   20  S   UNL     1     -10.500   5.538  69.420  1.00  0.00    -0.273 SA 
ENDBRANCH  11  12
ENDBRANCH   1  11
TORSDOF 3
ENDMDL
MODEL      184
REMARK 921   NORMALIZED FREE ENERGY PREDICTED BY IDOCK:   -3.37 KCAL/MOL
REMARK 922        TOTAL FREE ENERGY PREDICTED BY IDOCK:   -4.27 KCAL/MOL
REMARK 923 INTER-LIGAND FREE ENERGY PREDICTED BY IDOCK:   -4.11 KCAL/MOL
REMARK 924 INTRA-LIGAND FREE ENERGY PREDICTED BY IDOCK:   -0.16 KCAL/MOL
REMARK 927      BINDING AFFINITY PREDICTED BY RF-SCORE:    0.00 PKD
ROOT
HETATM    1  S   UNL     1     -10.907  10.143  67.734  1.00  0.00    -0.274 SA 
ENDROOT
BRANCH   1   2
HETATM    2  C   UNL     1     -10.879  11.890  67.944  1.00  0.00    -0.213 A  
HETATM    3  S   UNL     1     -11.841  12.660  69.136  1.00  0.00    -0.269 SA 
HETATM    4  N   UNL     1     -10.118  12.682  67.222  1.00  0.00    -0.213 NA 
HETATM    5  C   UNL     1     -11.192  14.186  68.673  1.00  0.00    -0.266 A  
HETATM    6  C   UNL     1     -10.280  13.992  67.633  1.00  0.00    -0.241 A  
HETATM    7  C   UNL     1     -11.470  15.463  69.188  1.00  0.00    -0.344 A  
HETATM    8  C   UNL     1      -9.618  15.113  67.094  1.00  0.00    -0.224 A  
HETATM    9  C   UNL     1     -10.809  16.560  68.627  1.00  0.00    -0.345 A  
HETATM   10  C   UNL     1      -9.891  16.390  67.595  1.00  0.00    -0.243 A  
ENDBRANCH   1   2
BRANCH   1  11
HETATM   11  S   UNL     1      -8.951   9.683  68.204  1.00  0.00    -0.122 SA 
BRANCH  11  12
HETATM   12  C   UNL     1      -9.121   7.967  68.541  1.00  0.00    -0.132 A  
HETATM   13  C   UNL     1      -8.798   3.796  70.494  1.00  0.00    -0.140 A  
HETATM   14  C   UNL     1      -9.238   3.308  69.268  1.00  0.00    -0.218 A  
HETATM   15  N   UNL     1      -8.821   7.443  69.709  1.00  0.00    -0.141 NA 
HETATM   16  C   UNL     1      -9.535   4.177  68.214  1.00  0.00    -0.213 A  
HETATM   17  C   UNL     1      -8.938   6.068  69.648  1.00  0.00    -0.132 A  
HETATM   18  C   UNL     1      -9.375   5.557  68.425  1.00  0.00    -0.111 A  
HETATM   19  C   UNL     1      -8.646   5.172  70.696  1.00  0.00    -0.126 A  
HETATM   20  S   UNL     1      -9.644   6.864  67.338  1.00  0.00    -0.142 SA 
ENDBRANCH  11  12
ENDBRANCH   1  11
TORSDOF 3
ENDMDL
MODEL      185
REMARK 921   NORMALIZED FREE ENERGY PREDICTED BY IDOCK:   -3.33 KCAL/MOL
REMARK 922        TOTAL FREE ENERGY PREDICTED BY IDOCK:   -4.22 KCAL/MOL
REMARK 923 INTER-LIGAND FREE ENERGY PREDICTED BY IDOCK:   -3.97 KCAL/MOL
REMARK 924 INTRA-LIGAND FREE ENERGY PREDICTED BY IDOCK:   -0.25 KCAL/MOL
REMARK 927      BINDING AFFINITY PREDICTED BY RF-SCORE:    0.00 PKD
ROOT
HETATM    1  S   UNL     1     -11.091   8.006  72.690  1.00  0.00    -0.373 SA 
ENDROOT
BRANCH   1   2
HETATM    2  C   UNL     1     -10.941   9.079  71.303  1.00  0.00    -0.313 A  
HETATM    3  S   UNL     1      -9.526   9.091  70.334  1.00  0.00    -0.229 SA 
HETATM    4  N   UNL     1     -11.896   9.903  70.933  1.00  0.00    -0.329 NA 
HETATM    5  C   UNL     1     -10.234  10.286  69.317  1.00  0.00    -0.227 A  
HETATM    6  C   UNL     1     -11.510  10.590  69.797  1.00  0.00    -0.294 A  
HETATM    7  C   UNL     1      -9.700  10.913  68.179  1.00  0.00    -0.174 A  
HETATM    8  C   UNL     1     -12.281  11.549  69.111  1.00  0.00    -0.221 A  
HETATM    9  C   UNL     1     -10.482  11.870  67.524  1.00  0.00    -0.233 A  
HETATM   10  C   UNL     1     -11.759  12.183  67.980  1.00  0.00    -0.409 A  
ENDBRANCH   1   2
BRANCH   1  11
HETATM   11  S   UNL     1     -11.846   6.320  71.771  1.00  0.00    -0.225 SA 
BRANCH  11  12
HETATM   12  C   UNL     1     -10.543   5.190  72.105  1.00  0.00    -0.211 A  
HETATM   13  C   UNL     1      -7.692   2.235  74.216  1.00  0.00    -0.045 A  
HETATM   14  C   UNL     1      -6.839   2.459  73.140  1.00  0.00    -0.026 A  
HETATM   15  N   UNL     1     -10.525   4.429  73.178  1.00  0.00    -0.172 NA 
HETATM   16  C   UNL     1      -7.206   3.317  72.099  1.00  0.00    -0.050 A  
HETATM   17  C   UNL     1      -9.331   3.736  73.239  1.00  0.00    -0.105 A  
HETATM   18  C   UNL     1      -8.459   3.949  72.170  1.00  0.00    -0.099 A  
HETATM   19  C   UNL     1      -8.939   2.866  74.275  1.00  0.00    -0.087 A  
HETATM   20  S   UNL     1      -9.186   5.054  71.068  1.00  0.00    -0.152 SA 
ENDBRANCH  11  12
ENDBRANCH   1  11
TORSDOF 3
ENDMDL
MODEL      186
REMARK 921   NORMALIZED FREE ENERGY PREDICTED BY IDOCK:   -3.31 KCAL/MOL
REMARK 922        TOTAL FREE ENERGY PREDICTED BY IDOCK:   -4.19 KCAL/MOL
REMARK 923 INTER-LIGAND FREE ENERGY PREDICTED BY IDOCK:   -3.90 KCAL/MOL
REMARK 924 INTRA-LIGAND FREE ENERGY PREDICTED BY IDOCK:   -0.29 KCAL/MOL
REMARK 927      BINDING AFFINITY PREDICTED BY RF-SCORE:    0.00 PKD
ROOT
HETATM    1  S   UNL     1      -8.623   6.689  69.589  1.00  0.00    -0.133 SA 
ENDROOT
BRANCH   1   2
HETATM    2  C   UNL     1      -8.776   5.938  68.005  1.00  0.00    -0.111 A  
HETATM    3  S   UNL     1      -9.709   4.518  67.778  1.00  0.00    -0.117 SA 
HETATM    4  N   UNL     1      -8.206   6.428  66.926  1.00  0.00    -0.109 NA 
HETATM    5  C   UNL     1      -9.344   4.548  66.096  1.00  0.00    -0.156 A  
HETATM    6  C   UNL     1      -8.529   5.650  65.830  1.00  0.00    -0.140 A  
HETATM    7  C   UNL     1      -9.744   3.659  65.084  1.00  0.00    -0.157 A  
HETATM    8  C   UNL     1      -8.106   5.877  64.505  1.00  0.00    -0.132 A  
HETATM    9  C   UNL     1      -9.300   3.900  63.779  1.00  0.00    -0.143 A  
HETATM   10  C   UNL     1      -8.494   4.997  63.490  1.00  0.00    -0.127 A  
ENDBRANCH   1   2
BRANCH   1  11
HETATM   11  S   UNL     1     -10.597   7.161  69.965  1.00  0.00    -0.238 SA 
BRANCH  11  12
HETATM   12  C   UNL     1     -10.547   8.895  69.683  1.00  0.00    -0.226 A  
HETATM   13  C   UNL     1     -11.674  13.365  69.445  1.00  0.00    -0.382 A  
HETATM   14  C   UNL     1     -10.588  13.482  68.585  1.00  0.00    -0.259 A  
HETATM   15  N   UNL     1     -11.426   9.722  70.205  1.00  0.00    -0.260 NA 
HETATM   16  C   UNL     1      -9.797  12.372  68.273  1.00  0.00    -0.224 A  
HETATM   17  C   UNL     1     -11.214  10.997  69.719  1.00  0.00    -0.268 A  
HETATM   18  C   UNL     1     -10.130  11.136  68.851  1.00  0.00    -0.186 A  
HETATM   19  C   UNL     1     -11.995  12.130  70.019  1.00  0.00    -0.391 A  
HETATM   20  S   UNL     1      -9.369   9.603  68.660  1.00  0.00    -0.145 SA 
ENDBRANCH  11  12
ENDBRANCH   1  11
TORSDOF 3
ENDMDL
MODEL      187
REMARK 921   NORMALIZED FREE ENERGY PREDICTED BY IDOCK:   -3.18 KCAL/MOL
REMARK 922        TOTAL FREE ENERGY PREDICTED BY IDOCK:   -4.04 KCAL/MOL
REMARK 923 INTER-LIGAND FREE ENERGY PREDICTED BY IDOCK:   -3.84 KCAL/MOL
REMARK 924 INTRA-LIGAND FREE ENERGY PREDICTED BY IDOCK:   -0.20 KCAL/MOL
REMARK 927      BINDING AFFINITY PREDICTED BY RF-SCORE:    0.00 PKD
ROOT
HETATM    1  S   UNL     1      -6.273  14.998  69.892  1.00  0.00    -0.164 SA 
ENDROOT
BRANCH   1   2
HETATM    2  C   UNL     1      -6.481  13.270  69.636  1.00  0.00    -0.053 A  
HETATM    3  S   UNL     1      -5.517  12.122  70.468  1.00  0.00    -0.165 SA 
HETATM    4  N   UNL     1      -7.384  12.775  68.818  1.00  0.00    -0.097 NA 
HETATM    5  C   UNL     1      -6.370  10.844  69.693  1.00  0.00    -0.100 A  
HETATM    6  C   UNL     1      -7.337  11.393  68.849  1.00  0.00    -0.114 A  
HETATM    7  C   UNL     1      -6.196   9.456  69.819  1.00  0.00    -0.039 A  
HETATM    8  C   UNL     1      -8.164  10.524  68.110  1.00  0.00    -0.114 A  
HETATM    9  C   UNL     1      -7.021   8.615  69.065  1.00  0.00    -0.064 A  
HETATM   10  C   UNL     1      -7.997   9.140  68.222  1.00  0.00    -0.103 A  
ENDBRANCH   1   2
BRANCH   1  11
HETATM   11  S   UNL     1      -8.058  15.702  69.130  1.00  0.00    -0.249 SA 
BRANCH  11  12
HETATM   12  C   UNL     1      -7.474  17.114  68.262  1.00  0.00    -0.217 A  
HETATM   13  C   UNL     1      -5.945  21.347  67.235  1.00  0.00    -0.421 A  
HETATM   14  C   UNL     1      -6.276  21.030  65.922  1.00  0.00    -0.273 A  
HETATM   15  N   UNL     1      -6.924  18.140  68.871  1.00  0.00    -0.265 NA 
HETATM   16  C   UNL     1      -6.809  19.778  65.598  1.00  0.00    -0.316 A  
HETATM   17  C   UNL     1      -6.673  19.146  67.958  1.00  0.00    -0.235 A  
HETATM   18  C   UNL     1      -7.002  18.850  66.634  1.00  0.00    -0.208 A  
HETATM   19  C   UNL     1      -6.137  20.414  68.260  1.00  0.00    -0.326 A  
HETATM   20  S   UNL     1      -7.639  17.252  66.562  1.00  0.00    -0.317 SA 
ENDBRANCH  11  12
ENDBRANCH   1  11
TORSDOF 3
ENDMDL
MODEL      188
REMARK 921   NORMALIZED FREE ENERGY PREDICTED BY IDOCK:   -3.14 KCAL/MOL
REMARK 922        TOTAL FREE ENERGY PREDICTED BY IDOCK:   -4.00 KCAL/MOL
REMARK 923 INTER-LIGAND FREE ENERGY PREDICTED BY IDOCK:   -3.80 KCAL/MOL
REMARK 924 INTRA-LIGAND FREE ENERGY PREDICTED BY IDOCK:   -0.20 KCAL/MOL
REMARK 927      BINDING AFFINITY PREDICTED BY RF-SCORE:    0.00 PKD
ROOT
HETATM    1  S   UNL     1      -7.670  11.503  67.124  1.00  0.00    -0.166 SA 
ENDROOT
BRANCH   1   2
HETATM    2  C   UNL     1      -8.553  12.974  67.519  1.00  0.00    -0.192 A  
HETATM    3  S   UNL     1     -10.266  12.996  67.580  1.00  0.00    -0.220 SA 
HETATM    4  N   UNL     1      -7.954  14.110  67.801  1.00  0.00    -0.154 NA 
HETATM    5  C   UNL     1     -10.227  14.657  68.032  1.00  0.00    -0.231 A  
HETATM    6  C   UNL     1      -8.897  15.075  68.104  1.00  0.00    -0.167 A  
HETATM    7  C   UNL     1     -11.295  15.530  68.300  1.00  0.00    -0.360 A  
HETATM    8  C   UNL     1      -8.624  16.410  68.463  1.00  0.00    -0.223 A  
HETATM    9  C   UNL     1     -10.997  16.853  68.642  1.00  0.00    -0.262 A  
HETATM   10  C   UNL     1      -9.678  17.289  68.727  1.00  0.00    -0.280 A  
ENDBRANCH   1   2
BRANCH   1  11
HETATM   11  S   UNL     1      -9.078  10.527  65.973  1.00  0.00    -0.176 SA 
BRANCH  11  12
HETATM   12  C   UNL     1      -8.959   8.914  66.662  1.00  0.00    -0.136 A  
HETATM   13  C   UNL     1      -9.930   4.615  68.033  1.00  0.00    -0.129 A  
HETATM   14  C   UNL     1      -8.799   4.731  68.835  1.00  0.00    -0.120 A  
HETATM   15  N   UNL     1      -9.835   7.969  66.404  1.00  0.00    -0.207 NA 
HETATM   16  C   UNL     1      -8.030   5.899  68.826  1.00  0.00    -0.103 A  
HETATM   17  C   UNL     1      -9.559   6.854  67.171  1.00  0.00    -0.147 A  
HETATM   18  C   UNL     1      -8.430   6.951  67.986  1.00  0.00    -0.124 A  
HETATM   19  C   UNL     1     -10.318   5.667  67.197  1.00  0.00    -0.301 A  
HETATM   20  S   UNL     1      -7.710   8.499  67.759  1.00  0.00    -0.103 SA 
ENDBRANCH  11  12
ENDBRANCH   1  11
TORSDOF 3
ENDMDL
MODEL      189
REMARK 921   NORMALIZED FREE ENERGY PREDICTED BY IDOCK:   -3.04 KCAL/MOL
REMARK 922        TOTAL FREE ENERGY PREDICTED BY IDOCK:   -3.88 KCAL/MOL
REMARK 923 INTER-LIGAND FREE ENERGY PREDICTED BY IDOCK:   -4.04 KCAL/MOL
REMARK 924 INTRA-LIGAND FREE ENERGY PREDICTED BY IDOCK:    0.17 KCAL/MOL
REMARK 927      BINDING AFFINITY PREDICTED BY RF-SCORE:    0.00 PKD
ROOT
HETATM    1  S   UNL     1     -10.479  11.426  65.551  1.00  0.00    -0.266 SA 
ENDROOT
BRANCH   1   2
HETATM    2  C   UNL     1     -11.067  12.270  66.978  1.00  0.00    -0.287 A  
HETATM    3  S   UNL     1     -11.591  13.900  66.898  1.00  0.00    -0.400 SA 
HETATM    4  N   UNL     1     -11.150  11.698  68.160  1.00  0.00    -0.224 NA 
HETATM    5  C   UNL     1     -11.978  13.858  68.574  1.00  0.00    -0.359 A  
HETATM    6  C   UNL     1     -11.677  12.590  69.076  1.00  0.00    -0.318 A  
HETATM    7  C   UNL     1     -12.507  14.872  69.389  1.00  0.00    -0.075 A  
HETATM    8  C   UNL     1     -11.919  12.325  70.439  1.00  0.00    -0.349 A  
HETATM    9  C   UNL     1     -12.727  14.587  70.741  1.00  0.00    -0.425 A  
HETATM   10  C   UNL     1     -12.441  13.328  71.261  1.00  0.00    -0.351 A  
ENDBRANCH   1   2
BRANCH   1  11
HETATM   11  S   UNL     1     -10.258   9.520  66.314  1.00  0.00    -0.166 SA 
BRANCH  11  12
HETATM   12  C   UNL     1      -9.010   9.823  67.514  1.00  0.00    -0.131 A  
HETATM   13  C   UNL     1      -5.165  11.273  69.616  1.00  0.00    -0.046 A  
HETATM   14  C   UNL     1      -5.471  10.328  70.590  1.00  0.00    -0.076 A  
HETATM   15  N   UNL     1      -8.074  10.731  67.345  1.00  0.00    -0.111 NA 
HETATM   16  C   UNL     1      -6.619   9.537  70.487  1.00  0.00    -0.094 A  
HETATM   17  C   UNL     1      -7.168  10.666  68.386  1.00  0.00    -0.084 A  
HETATM   18  C   UNL     1      -7.455   9.721  69.373  1.00  0.00    -0.099 A  
HETATM   19  C   UNL     1      -6.006  11.451  68.513  1.00  0.00    -0.045 A  
HETATM   20  S   UNL     1      -8.915   8.908  68.958  1.00  0.00    -0.137 SA 
ENDBRANCH  11  12
ENDBRANCH   1  11
TORSDOF 3
ENDMDL
MODEL      190
REMARK 921   NORMALIZED FREE ENERGY PREDICTED BY IDOCK:   -3.00 KCAL/MOL
REMARK 922        TOTAL FREE ENERGY PREDICTED BY IDOCK:   -3.83 KCAL/MOL
REMARK 923 INTER-LIGAND FREE ENERGY PREDICTED BY IDOCK:   -3.47 KCAL/MOL
REMARK 924 INTRA-LIGAND FREE ENERGY PREDICTED BY IDOCK:   -0.36 KCAL/MOL
REMARK 927      BINDING AFFINITY PREDICTED BY RF-SCORE:    0.00 PKD
ROOT
HETATM    1  S   UNL     1     -10.749   7.010  67.062  1.00  0.00    -0.308 SA 
ENDROOT
BRANCH   1   2
HETATM    2  C   UNL     1      -9.461   7.966  67.785  1.00  0.00    -0.144 A  
HETATM    3  S   UNL     1      -9.798   9.189  68.938  1.00  0.00    -0.179 SA 
HETATM    4  N   UNL     1      -8.191   7.784  67.496  1.00  0.00    -0.123 NA 
HETATM    5  C   UNL     1      -8.113   9.510  69.089  1.00  0.00    -0.103 A  
HETATM    6  C   UNL     1      -7.412   8.652  68.240  1.00  0.00    -0.095 A  
HETATM    7  C   UNL     1      -7.458  10.455  69.896  1.00  0.00    -0.134 A  
HETATM    8  C   UNL     1      -6.006   8.736  68.201  1.00  0.00    -0.046 A  
HETATM    9  C   UNL     1      -6.063  10.526  69.830  1.00  0.00    -0.065 A  
HETATM   10  C   UNL     1      -5.343   9.676  68.996  1.00  0.00    -0.036 A  
ENDBRANCH   1   2
BRANCH   1  11
HETATM   11  S   UNL     1      -9.917   5.124  67.176  1.00  0.00    -0.204 SA 
BRANCH  11  12
HETATM   12  C   UNL     1     -10.030   4.854  68.908  1.00  0.00    -0.149 A  
HETATM   13  C   UNL     1     -10.827   5.406  73.421  1.00  0.00    -0.347 A  
HETATM   14  C   UNL     1      -9.990   4.309  73.593  1.00  0.00    -0.171 A  
HETATM   15  N   UNL     1     -10.745   5.624  69.698  1.00  0.00    -0.335 NA 
HETATM   16  C   UNL     1      -9.418   3.663  72.493  1.00  0.00    -0.178 A  
HETATM   17  C   UNL     1     -10.552   5.250  71.014  1.00  0.00    -0.170 A  
HETATM   18  C   UNL     1      -9.712   4.153  71.209  1.00  0.00    -0.185 A  
HETATM   19  C   UNL     1     -11.117   5.883  72.139  1.00  0.00    -0.333 A  
HETATM   20  S   UNL     1      -9.164   3.590  69.677  1.00  0.00    -0.166 SA 
ENDBRANCH  11  12
ENDBRANCH   1  11
TORSDOF 3
ENDMDL
MODEL      191
REMARK 921   NORMALIZED FREE ENERGY PREDICTED BY IDOCK:   -2.98 KCAL/MOL
REMARK 922        TOTAL FREE ENERGY PREDICTED BY IDOCK:   -3.81 KCAL/MOL
REMARK 923 INTER-LIGAND FREE ENERGY PREDICTED BY IDOCK:   -3.41 KCAL/MOL
REMARK 924 INTRA-LIGAND FREE ENERGY PREDICTED BY IDOCK:   -0.40 KCAL/MOL
REMARK 927      BINDING AFFINITY PREDICTED BY RF-SCORE:    0.00 PKD
ROOT
HETATM    1  S   UNL     1     -12.271   9.865  70.987  1.00  0.00    -0.373 SA 
ENDROOT
BRANCH   1   2
HETATM    2  C   UNL     1     -11.165   9.860  69.619  1.00  0.00    -0.208 A  
HETATM    3  S   UNL     1     -10.135  11.193  69.299  1.00  0.00     0.044 SA 
HETATM    4  N   UNL     1     -11.059   8.842  68.792  1.00  0.00     0.116 NA 
HETATM    5  C   UNL     1      -9.471  10.355  67.949  1.00  0.00    -0.138 A  
HETATM    6  C   UNL     1     -10.091   9.108  67.842  1.00  0.00    -0.199 A  
HETATM    7  C   UNL     1      -8.478  10.771  67.048  1.00  0.00    -0.128 A  
HETATM    8  C   UNL     1      -9.698   8.244  66.801  1.00  0.00    -0.307 A  
HETATM    9  C   UNL     1      -8.115   9.899  66.016  1.00  0.00    -0.120 A  
HETATM   10  C   UNL     1      -8.714   8.648  65.894  1.00  0.00    -0.201 A  
ENDBRANCH   1   2
BRANCH   1  11
HETATM   11  S   UNL     1     -12.684   7.848  71.136  1.00  0.00    -0.079 SA 
BRANCH  11  12
HETATM   12  C   UNL     1     -11.302   7.332  72.092  1.00  0.00    -0.265 A  
HETATM   13  C   UNL     1      -7.282   7.256  74.359  1.00  0.00    -0.122 A  
HETATM   14  C   UNL     1      -7.412   5.871  74.322  1.00  0.00    -0.087 A  
HETATM   15  N   UNL     1     -10.440   8.183  72.603  1.00  0.00    -0.324 NA 
HETATM   16  C   UNL     1      -8.526   5.270  73.729  1.00  0.00    -0.111 A  
HETATM   17  C   UNL     1      -9.401   7.493  73.198  1.00  0.00    -0.206 A  
HETATM   18  C   UNL     1      -9.510   6.102  73.169  1.00  0.00    -0.138 A  
HETATM   19  C   UNL     1      -8.270   8.075  73.803  1.00  0.00    -0.297 A  
HETATM   20  S   UNL     1     -10.973   5.674  72.369  1.00  0.00    -0.266 SA 
ENDBRANCH  11  12
ENDBRANCH   1  11
TORSDOF 3
ENDMDL
MODEL      192
REMARK 921   NORMALIZED FREE ENERGY PREDICTED BY IDOCK:   -2.98 KCAL/MOL
REMARK 922        TOTAL FREE ENERGY PREDICTED BY IDOCK:   -3.81 KCAL/MOL
REMARK 923 INTER-LIGAND FREE ENERGY PREDICTED BY IDOCK:   -3.35 KCAL/MOL
REMARK 924 INTRA-LIGAND FREE ENERGY PREDICTED BY IDOCK:   -0.46 KCAL/MOL
REMARK 927      BINDING AFFINITY PREDICTED BY RF-SCORE:    0.00 PKD
ROOT
HETATM    1  S   UNL     1      -8.137   6.939  66.558  1.00  0.00    -0.114 SA 
ENDROOT
BRANCH   1   2
HETATM    2  C   UNL     1      -7.434   7.153  68.157  1.00  0.00    -0.099 A  
HETATM    3  S   UNL     1      -5.994   6.343  68.614  1.00  0.00    -0.022 SA 
HETATM    4  N   UNL     1      -7.959   7.947  69.065  1.00  0.00    -0.120 NA 
HETATM    5  C   UNL     1      -6.050   7.112  70.153  1.00  0.00    -0.024 A  
HETATM    6  C   UNL     1      -7.174   7.939  70.204  1.00  0.00    -0.058 A  
HETATM    7  C   UNL     1      -5.167   6.992  71.238  1.00  0.00    -0.027 A  
HETATM    8  C   UNL     1      -7.420   8.677  71.379  1.00  0.00    -0.124 A  
HETATM    9  C   UNL     1      -5.441   7.726  72.397  1.00  0.00    -0.036 A  
HETATM   10  C   UNL     1      -6.551   8.562  72.468  1.00  0.00    -0.090 A  
ENDBRANCH   1   2
BRANCH   1  11
HETATM   11  S   UNL     1      -8.942   5.050  66.759  1.00  0.00    -0.114 SA 
BRANCH  11  12
HETATM   12  C   UNL     1      -9.657   5.200  68.358  1.00  0.00    -0.139 A  
HETATM   13  C   UNL     1     -12.041   6.728  72.003  1.00  0.00    -0.344 A  
HETATM   14  C   UNL     1     -11.275   5.833  72.742  1.00  0.00    -0.336 A  
HETATM   15  N   UNL     1     -10.640   6.034  68.617  1.00  0.00    -0.237 NA 
HETATM   16  C   UNL     1     -10.320   5.022  72.122  1.00  0.00    -0.276 A  
HETATM   17  C   UNL     1     -10.916   6.025  69.970  1.00  0.00    -0.380 A  
HETATM   18  C   UNL     1     -10.155   5.136  70.731  1.00  0.00    -0.233 A  
HETATM   19  C   UNL     1     -11.872   6.831  70.619  1.00  0.00    -0.442 A  
HETATM   20  S   UNL     1      -9.071   4.296  69.690  1.00  0.00    -0.130 SA 
ENDBRANCH  11  12
ENDBRANCH   1  11
TORSDOF 3
ENDMDL
MODEL      193
REMARK 921   NORMALIZED FREE ENERGY PREDICTED BY IDOCK:   -2.93 KCAL/MOL
REMARK 922        TOTAL FREE ENERGY PREDICTED BY IDOCK:   -3.75 KCAL/MOL
REMARK 923 INTER-LIGAND FREE ENERGY PREDICTED BY IDOCK:   -3.71 KCAL/MOL
REMARK 924 INTRA-LIGAND FREE ENERGY PREDICTED BY IDOCK:   -0.04 KCAL/MOL
REMARK 927      BINDING AFFINITY PREDICTED BY RF-SCORE:    0.00 PKD
ROOT
HETATM    1  S   UNL     1     -10.495   5.651  66.649  1.00  0.00    -0.268 SA 
ENDROOT
BRANCH   1   2
HETATM    2  C   UNL     1      -9.856   7.250  67.009  1.00  0.00    -0.203 A  
HETATM    3  S   UNL     1      -8.167   7.541  67.074  1.00  0.00    -0.126 SA 
HETATM    4  N   UNL     1     -10.626   8.293  67.226  1.00  0.00    -0.301 NA 
HETATM    5  C   UNL     1      -8.468   9.203  67.409  1.00  0.00    -0.115 A  
HETATM    6  C   UNL     1      -9.847   9.414  67.446  1.00  0.00    -0.172 A  
HETATM    7  C   UNL     1      -7.551  10.244  67.628  1.00  0.00    -0.090 A  
HETATM    8  C   UNL     1     -10.327  10.714  67.703  1.00  0.00    -0.246 A  
HETATM    9  C   UNL     1      -8.054  11.523  67.893  1.00  0.00    -0.132 A  
HETATM   10  C   UNL     1      -9.425  11.758  67.928  1.00  0.00    -0.191 A  
ENDBRANCH   1   2
BRANCH   1  11
HETATM   11  S   UNL     1      -8.908   4.475  67.251  1.00  0.00    -0.109 SA 
BRANCH  11  12
HETATM   12  C   UNL     1      -9.288   4.315  68.959  1.00  0.00    -0.160 A  
HETATM   13  C   UNL     1     -10.123   2.576  73.153  1.00  0.00    -0.196 A  
HETATM   14  C   UNL     1     -10.675   3.820  73.439  1.00  0.00    -0.297 A  
HETATM   15  N   UNL     1      -9.072   3.205  69.629  1.00  0.00    -0.121 NA 
HETATM   16  C   UNL     1     -10.692   4.837  72.480  1.00  0.00    -0.240 A  
HETATM   17  C   UNL     1      -9.574   3.328  70.911  1.00  0.00    -0.164 A  
HETATM   18  C   UNL     1     -10.136   4.568  71.218  1.00  0.00    -0.155 A  
HETATM   19  C   UNL     1      -9.569   2.319  71.894  1.00  0.00    -0.201 A  
HETATM   20  S   UNL     1     -10.014   5.593  69.840  1.00  0.00    -0.224 SA 
ENDBRANCH  11  12
ENDBRANCH   1  11
TORSDOF 3
ENDMDL
MODEL      194
REMARK 921   NORMALIZED FREE ENERGY PREDICTED BY IDOCK:   -2.83 KCAL/MOL
REMARK 922        TOTAL FREE ENERGY PREDICTED BY IDOCK:   -3.64 KCAL/MOL
REMARK 923 INTER-LIGAND FREE ENERGY PREDICTED BY IDOCK:   -3.30 KCAL/MOL
REMARK 924 INTRA-LIGAND FREE ENERGY PREDICTED BY IDOCK:   -0.34 KCAL/MOL
REMARK 927      BINDING AFFINITY PREDICTED BY RF-SCORE:    0.00 PKD
ROOT
HETATM    1  S   UNL     1      -9.437   5.109  70.110  1.00  0.00    -0.182 SA 
ENDROOT
BRANCH   1   2
HETATM    2  C   UNL     1      -9.311   4.329  68.538  1.00  0.00    -0.151 A  
HETATM    3  S   UNL     1      -8.799   2.699  68.389  1.00  0.00    -0.136 SA 
HETATM    4  N   UNL     1      -9.615   4.939  67.413  1.00  0.00    -0.143 NA 
HETATM    5  C   UNL     1      -9.004   2.791  66.682  1.00  0.00    -0.151 A  
HETATM    6  C   UNL     1      -9.453   4.071  66.349  1.00  0.00    -0.191 A  
HETATM    7  C   UNL     1      -8.781   1.805  65.707  1.00  0.00    -0.116 A  
HETATM    8  C   UNL     1      -9.695   4.373  64.994  1.00  0.00    -0.172 A  
HETATM    9  C   UNL     1      -9.017   2.135  64.368  1.00  0.00    -0.111 A  
HETATM   10  C   UNL     1      -9.472   3.402  64.014  1.00  0.00    -0.136 A  
ENDBRANCH   1   2
BRANCH   1  11
HETATM   11  S   UNL     1     -11.066   6.333  69.785  1.00  0.00    -0.430 SA 
BRANCH  11  12
HETATM   12  C   UNL     1     -10.238   7.841  69.424  1.00  0.00    -0.208 A  
HETATM   13  C   UNL     1      -8.916  11.783  67.418  1.00  0.00    -0.173 A  
HETATM   14  C   UNL     1      -7.783  11.683  68.218  1.00  0.00    -0.128 A  
HETATM   15  N   UNL     1     -10.702   8.711  68.554  1.00  0.00    -0.107 NA 
HETATM   16  C   UNL     1      -7.626  10.619  69.111  1.00  0.00    -0.131 A  
HETATM   17  C   UNL     1      -9.790   9.735  68.387  1.00  0.00    -0.152 A  
HETATM   18  C   UNL     1      -8.643   9.652  69.178  1.00  0.00    -0.146 A  
HETATM   19  C   UNL     1      -9.925  10.817  67.495  1.00  0.00    -0.203 A  
HETATM   20  S   UNL     1      -8.740   8.238  70.155  1.00  0.00    -0.135 SA 
ENDBRANCH  11  12
ENDBRANCH   1  11
TORSDOF 3
ENDMDL
MODEL      195
REMARK 921   NORMALIZED FREE ENERGY PREDICTED BY IDOCK:   -2.82 KCAL/MOL
REMARK 922        TOTAL FREE ENERGY PREDICTED BY IDOCK:   -3.61 KCAL/MOL
REMARK 923 INTER-LIGAND FREE ENERGY PREDICTED BY IDOCK:   -3.12 KCAL/MOL
REMARK 924 INTRA-LIGAND FREE ENERGY PREDICTED BY IDOCK:   -0.50 KCAL/MOL
REMARK 927      BINDING AFFINITY PREDICTED BY RF-SCORE:    0.00 PKD
ROOT
HETATM    1  S   UNL     1      -7.902   4.271  69.830  1.00  0.00    -0.052 SA 
ENDROOT
BRANCH   1   2
HETATM    2  C   UNL     1      -8.048   4.452  68.086  1.00  0.00    -0.090 A  
HETATM    3  S   UNL     1      -6.899   5.349  67.184  1.00  0.00    -0.065 SA 
HETATM    4  N   UNL     1      -9.022   3.904  67.392  1.00  0.00    -0.123 NA 
HETATM    5  C   UNL     1      -7.749   4.977  65.734  1.00  0.00    -0.091 A  
HETATM    6  C   UNL     1      -8.857   4.188  66.049  1.00  0.00    -0.121 A  
HETATM    7  C   UNL     1      -7.461   5.358  64.413  1.00  0.00    -0.067 A  
HETATM    8  C   UNL     1      -9.702   3.758  65.006  1.00  0.00    -0.183 A  
HETATM    9  C   UNL     1      -8.323   4.928  63.398  1.00  0.00    -0.115 A  
HETATM   10  C   UNL     1      -9.429   4.135  63.688  1.00  0.00    -0.142 A  
ENDBRANCH   1   2
BRANCH   1  11
HETATM   11  S   UNL     1      -9.815   4.779  70.416  1.00  0.00    -0.249 SA 
BRANCH  11  12
HETATM   12  C   UNL     1      -9.836   6.468  69.929  1.00  0.00    -0.167 A  
HETATM   13  C   UNL     1     -10.281  10.351  67.473  1.00  0.00    -0.251 A  
HETATM   14  C   UNL     1      -9.534  10.946  68.483  1.00  0.00    -0.185 A  
HETATM   15  N   UNL     1     -10.427   6.878  68.829  1.00  0.00    -0.196 NA 
HETATM   16  C   UNL     1      -9.096  10.206  69.585  1.00  0.00    -0.195 A  
HETATM   17  C   UNL     1     -10.181   8.225  68.642  1.00  0.00    -0.204 A  
HETATM   18  C   UNL     1      -9.430   8.842  69.643  1.00  0.00    -0.168 A  
HETATM   19  C   UNL     1     -10.612   8.993  67.542  1.00  0.00    -0.306 A  
HETATM   20  S   UNL     1      -9.036   7.674  70.846  1.00  0.00    -0.149 SA 
ENDBRANCH  11  12
ENDBRANCH   1  11
TORSDOF 3
ENDMDL
MODEL      196
REMARK 921   NORMALIZED FREE ENERGY PREDICTED BY IDOCK:   -2.76 KCAL/MOL
REMARK 922        TOTAL FREE ENERGY PREDICTED BY IDOCK:   -3.55 KCAL/MOL
REMARK 923 INTER-LIGAND FREE ENERGY PREDICTED BY IDOCK:   -3.38 KCAL/MOL
REMARK 924 INTRA-LIGAND FREE ENERGY PREDICTED BY IDOCK:   -0.17 KCAL/MOL
REMARK 927      BINDING AFFINITY PREDICTED BY RF-SCORE:    0.00 PKD
ROOT
HETATM    1  S   UNL     1      -6.865  10.592  69.572  1.00  0.00    -0.113 SA 
ENDROOT
BRANCH   1   2
HETATM    2  C   UNL     1      -6.813  12.284  69.094  1.00  0.00    -0.073 A  
HETATM    3  S   UNL     1      -7.412  12.800  67.573  1.00  0.00    -0.147 SA 
HETATM    4  N   UNL     1      -6.335  13.230  69.873  1.00  0.00    -0.095 NA 
HETATM    5  C   UNL     1      -7.020  14.428  67.971  1.00  0.00    -0.143 A  
HETATM    6  C   UNL     1      -6.456  14.458  69.248  1.00  0.00    -0.117 A  
HETATM    7  C   UNL     1      -7.194  15.596  67.210  1.00  0.00    -0.252 A  
HETATM    8  C   UNL     1      -6.058  15.698  69.786  1.00  0.00    -0.160 A  
HETATM    9  C   UNL     1      -6.780  16.813  67.762  1.00  0.00    -0.153 A  
HETATM   10  C   UNL     1      -6.222  16.866  69.036  1.00  0.00    -0.187 A  
ENDBRANCH   1   2
BRANCH   1  11
HETATM   11  S   UNL     1      -8.564   9.979  68.573  1.00  0.00    -0.123 SA 
BRANCH  11  12
HETATM   12  C   UNL     1      -9.256   8.915  69.789  1.00  0.00    -0.165 A  
HETATM   13  C   UNL     1      -9.834   5.572  72.919  1.00  0.00    -0.182 A  
HETATM   14  C   UNL     1     -11.196   5.812  72.764  1.00  0.00    -0.336 A  
HETATM   15  N   UNL     1      -8.520   8.127  70.540  1.00  0.00    -0.122 NA 
HETATM   16  C   UNL     1     -11.656   6.802  71.890  1.00  0.00    -0.330 A  
HETATM   17  C   UNL     1      -9.335   7.325  71.315  1.00  0.00    -0.154 A  
HETATM   18  C   UNL     1     -10.706   7.547  71.172  1.00  0.00    -0.227 A  
HETATM   19  C   UNL     1      -8.896   6.323  72.202  1.00  0.00    -0.137 A  
HETATM   20  S   UNL     1     -10.950   8.810  70.027  1.00  0.00    -0.163 SA 
ENDBRANCH  11  12
ENDBRANCH   1  11
TORSDOF 3
ENDMDL
MODEL      197
REMARK 921   NORMALIZED FREE ENERGY PREDICTED BY IDOCK:   -2.76 KCAL/MOL
REMARK 922        TOTAL FREE ENERGY PREDICTED BY IDOCK:   -3.55 KCAL/MOL
REMARK 923 INTER-LIGAND FREE ENERGY PREDICTED BY IDOCK:   -3.29 KCAL/MOL
REMARK 924 INTRA-LIGAND FREE ENERGY PREDICTED BY IDOCK:   -0.26 KCAL/MOL
REMARK 927      BINDING AFFINITY PREDICTED BY RF-SCORE:    0.00 PKD
ROOT
HETATM    1  S   UNL     1     -10.557   5.925  66.961  1.00  0.00    -0.320 SA 
ENDROOT
BRANCH   1   2
HETATM    2  C   UNL     1      -9.185   6.835  66.338  1.00  0.00    -0.153 A  
HETATM    3  S   UNL     1      -7.911   6.061  65.492  1.00  0.00    -0.122 SA 
HETATM    4  N   UNL     1      -9.075   8.139  66.473  1.00  0.00    -0.165 NA 
HETATM    5  C   UNL     1      -7.138   7.582  65.265  1.00  0.00    -0.063 A  
HETATM    6  C   UNL     1      -7.917   8.578  65.857  1.00  0.00    -0.105 A  
HETATM    7  C   UNL     1      -5.928   7.875  64.614  1.00  0.00    -0.045 A  
HETATM    8  C   UNL     1      -7.475   9.914  65.790  1.00  0.00    -0.110 A  
HETATM    9  C   UNL     1      -5.506   9.208  64.572  1.00  0.00    -0.055 A  
HETATM   10  C   UNL     1      -6.270  10.218  65.149  1.00  0.00    -0.127 A  
ENDBRANCH   1   2
BRANCH   1  11
HETATM   11  S   UNL     1      -9.580   4.306  67.787  1.00  0.00    -0.132 SA 
BRANCH  11  12
HETATM   12  C   UNL     1      -9.704   4.722  69.490  1.00  0.00    -0.201 A  
HETATM   13  C   UNL     1     -10.533   4.553  74.029  1.00  0.00    -0.319 A  
HETATM   14  C   UNL     1     -10.406   5.937  73.993  1.00  0.00    -0.295 A  
HETATM   15  N   UNL     1      -9.907   3.819  70.425  1.00  0.00    -0.144 NA 
HETATM   16  C   UNL     1     -10.118   6.602  72.797  1.00  0.00    -0.195 A  
HETATM   17  C   UNL     1     -10.080   4.442  71.646  1.00  0.00    -0.160 A  
HETATM   18  C   UNL     1      -9.961   5.833  71.632  1.00  0.00    -0.174 A  
HETATM   19  C   UNL     1     -10.370   3.796  72.863  1.00  0.00    -0.241 A  
HETATM   20  S   UNL     1      -9.617   6.347  70.025  1.00  0.00    -0.158 SA 
ENDBRANCH  11  12
ENDBRANCH   1  11
TORSDOF 3
ENDMDL
MODEL      198
REMARK 921   NORMALIZED FREE ENERGY PREDICTED BY IDOCK:   -2.70 KCAL/MOL
REMARK 922        TOTAL FREE ENERGY PREDICTED BY IDOCK:   -3.48 KCAL/MOL
REMARK 923 INTER-LIGAND FREE ENERGY PREDICTED BY IDOCK:   -3.09 KCAL/MOL
REMARK 924 INTRA-LIGAND FREE ENERGY PREDICTED BY IDOCK:   -0.39 KCAL/MOL
REMARK 927      BINDING AFFINITY PREDICTED BY RF-SCORE:    0.00 PKD
ROOT
HETATM    1  S   UNL     1     -10.279   9.035  70.461  1.00  0.00    -0.239 SA 
ENDROOT
BRANCH   1   2
HETATM    2  C   UNL     1      -9.919   8.123  68.999  1.00  0.00    -0.189 A  
HETATM    3  S   UNL     1      -8.707   8.641  67.902  1.00  0.00    -0.137 SA 
HETATM    4  N   UNL     1     -10.538   7.007  68.685  1.00  0.00    -0.213 NA 
HETATM    5  C   UNL     1      -9.010   7.261  66.918  1.00  0.00    -0.135 A  
HETATM    6  C   UNL     1     -10.023   6.500  67.506  1.00  0.00    -0.137 A  
HETATM    7  C   UNL     1      -8.400   6.879  65.712  1.00  0.00    -0.142 A  
HETATM    8  C   UNL     1     -10.436   5.313  66.869  1.00  0.00    -0.313 A  
HETATM    9  C   UNL     1      -8.836   5.703  65.094  1.00  0.00    -0.055 A  
HETATM   10  C   UNL     1      -9.840   4.926  65.665  1.00  0.00    -0.153 A  
ENDBRANCH   1   2
BRANCH   1  11
HETATM   11  S   UNL     1     -11.750   7.843  71.285  1.00  0.00    -0.290 SA 
BRANCH  11  12
HETATM   12  C   UNL     1     -10.749   6.734  72.211  1.00  0.00    -0.220 A  
HETATM   13  C   UNL     1      -7.176   4.756  74.363  1.00  0.00    -0.077 A  
HETATM   14  C   UNL     1      -7.952   3.602  74.358  1.00  0.00    -0.077 A  
HETATM   15  N   UNL     1      -9.569   7.071  72.680  1.00  0.00    -0.142 NA 
HETATM   16  C   UNL     1      -9.238   3.603  73.808  1.00  0.00    -0.101 A  
HETATM   17  C   UNL     1      -8.964   5.972  73.259  1.00  0.00    -0.130 A  
HETATM   18  C   UNL     1      -9.724   4.801  73.260  1.00  0.00    -0.136 A  
HETATM   19  C   UNL     1      -7.672   5.946  73.818  1.00  0.00    -0.096 A  
HETATM   20  S   UNL     1     -11.242   5.120  72.511  1.00  0.00    -0.109 SA 
ENDBRANCH  11  12
ENDBRANCH   1  11
TORSDOF 3
ENDMDL
MODEL      199
REMARK 921   NORMALIZED FREE ENERGY PREDICTED BY IDOCK:   -2.70 KCAL/MOL
REMARK 922        TOTAL FREE ENERGY PREDICTED BY IDOCK:   -3.48 KCAL/MOL
REMARK 923 INTER-LIGAND FREE ENERGY PREDICTED BY IDOCK:   -3.02 KCAL/MOL
REMARK 924 INTRA-LIGAND FREE ENERGY PREDICTED BY IDOCK:   -0.45 KCAL/MOL
REMARK 927      BINDING AFFINITY PREDICTED BY RF-SCORE:    0.00 PKD
ROOT
HETATM    1  S   UNL     1      -8.916   7.362  68.172  1.00  0.00    -0.128 SA 
ENDROOT
BRANCH   1   2
HETATM    2  C   UNL     1      -8.391   7.318  69.851  1.00  0.00    -0.135 A  
HETATM    3  S   UNL     1      -6.963   6.493  70.318  1.00  0.00    -0.068 SA 
HETATM    4  N   UNL     1      -9.048   7.921  70.819  1.00  0.00    -0.151 NA 
HETATM    5  C   UNL     1      -7.216   6.979  71.950  1.00  0.00    -0.081 A  
HETATM    6  C   UNL     1      -8.383   7.743  72.018  1.00  0.00    -0.115 A  
HETATM    7  C   UNL     1      -6.443   6.703  73.089  1.00  0.00    -0.064 A  
HETATM    8  C   UNL     1      -8.787   8.254  73.268  1.00  0.00    -0.283 A  
HETATM    9  C   UNL     1      -6.872   7.212  74.319  1.00  0.00    -0.087 A  
HETATM   10  C   UNL     1      -8.028   7.981  74.409  1.00  0.00    -0.299 A  
ENDBRANCH   1   2
BRANCH   1  11
HETATM   11  S   UNL     1     -10.698   6.331  68.316  1.00  0.00    -0.312 SA 
BRANCH  11  12
HETATM   12  C   UNL     1     -10.194   5.010  69.360  1.00  0.00    -0.198 A  
HETATM   13  C   UNL     1      -9.219   2.435  73.065  1.00  0.00    -0.101 A  
HETATM   14  C   UNL     1      -8.493   1.639  72.186  1.00  0.00    -0.056 A  
HETATM   15  N   UNL     1     -10.487   4.971  70.641  1.00  0.00    -0.205 NA 
HETATM   16  C   UNL     1      -8.434   1.943  70.823  1.00  0.00    -0.082 A  
HETATM   17  C   UNL     1      -9.864   3.888  71.230  1.00  0.00    -0.157 A  
HETATM   18  C   UNL     1      -9.127   3.077  70.365  1.00  0.00    -0.122 A  
HETATM   19  C   UNL     1      -9.908   3.560  72.599  1.00  0.00    -0.211 A  
HETATM   20  S   UNL     1      -9.240   3.714  68.770  1.00  0.00    -0.168 SA 
ENDBRANCH  11  12
ENDBRANCH   1  11
TORSDOF 3
ENDMDL
MODEL      200
REMARK 921   NORMALIZED FREE ENERGY PREDICTED BY IDOCK:   -2.42 KCAL/MOL
REMARK 922        TOTAL FREE ENERGY PREDICTED BY IDOCK:   -3.15 KCAL/MOL
REMARK 923 INTER-LIGAND FREE ENERGY PREDICTED BY IDOCK:   -3.71 KCAL/MOL
REMARK 924 INTRA-LIGAND FREE ENERGY PREDICTED BY IDOCK:    0.56 KCAL/MOL
REMARK 927      BINDING AFFINITY PREDICTED BY RF-SCORE:    0.00 PKD
ROOT
HETATM    1  S   UNL     1      -6.608   8.440  70.502  1.00  0.00    -0.038 SA 
ENDROOT
BRANCH   1   2
HETATM    2  C   UNL     1      -6.451  10.073  69.864  1.00  0.00    -0.077 A  
HETATM    3  S   UNL     1      -6.568  10.387  68.182  1.00  0.00    -0.060 SA 
HETATM    4  N   UNL     1      -6.257  11.122  70.631  1.00  0.00    -0.345 NA 
HETATM    5  C   UNL     1      -6.354  12.069  68.483  1.00  0.00    -0.055 A  
HETATM    6  C   UNL     1      -6.209  12.267  69.857  1.00  0.00    -0.110 A  
HETATM    7  C   UNL     1      -6.314  13.136  67.570  1.00  0.00    -0.142 A  
HETATM    8  C   UNL     1      -6.024  13.579  70.337  1.00  0.00    -0.140 A  
HETATM    9  C   UNL     1      -6.117  14.427  68.071  1.00  0.00    -0.157 A  
HETATM   10  C   UNL     1      -5.977  14.649  69.438  1.00  0.00    -0.101 A  
ENDBRANCH   1   2
BRANCH   1  11
HETATM   11  S   UNL     1      -8.062   7.690  69.244  1.00  0.00    -0.130 SA 
BRANCH  11  12
HETATM   12  C   UNL     1      -9.305   8.913  69.464  1.00  0.00    -0.155 A  
HETATM   13  C   UNL     1     -11.732  12.834  69.239  1.00  0.00    -0.376 A  
HETATM   14  C   UNL     1     -12.423  12.342  70.342  1.00  0.00    -0.221 A  
HETATM   15  N   UNL     1      -9.385   9.984  68.705  1.00  0.00    -0.155 NA 
HETATM   16  C   UNL     1     -12.111  11.092  70.886  1.00  0.00    -0.427 A  
HETATM   17  C   UNL     1     -10.376  10.821  69.181  1.00  0.00    -0.217 A  
HETATM   18  C   UNL     1     -11.080  10.347  70.289  1.00  0.00    -0.307 A  
HETATM   19  C   UNL     1     -10.709  12.082  68.650  1.00  0.00    -0.266 A  
HETATM   20  S   UNL     1     -10.460   8.801  70.725  1.00  0.00    -0.236 SA 
ENDBRANCH  11  12
ENDBRANCH   1  11
TORSDOF 3
ENDMDL
MODEL      201
REMARK 921   NORMALIZED FREE ENERGY PREDICTED BY IDOCK:   -2.33 KCAL/MOL
REMARK 922        TOTAL FREE ENERGY PREDICTED BY IDOCK:   -3.04 KCAL/MOL
REMARK 923 INTER-LIGAND FREE ENERGY PREDICTED BY IDOCK:   -4.09 KCAL/MOL
REMARK 924 INTRA-LIGAND FREE ENERGY PREDICTED BY IDOCK:    1.04 KCAL/MOL
REMARK 927      BINDING AFFINITY PREDICTED BY RF-SCORE:    0.00 PKD
ROOT
HETATM    1  S   UNL     1      -6.565  14.541  69.234  1.00  0.00    -0.134 SA 
ENDROOT
BRANCH   1   2
HETATM    2  C   UNL     1      -7.580  13.290  68.527  1.00  0.00    -0.128 A  
HETATM    3  S   UNL     1      -7.138  12.500  67.071  1.00  0.00     0.154 SA 
HETATM    4  N   UNL     1      -8.705  12.889  69.079  1.00  0.00     0.367 NA 
HETATM    5  C   UNL     1      -8.553  11.524  67.172  1.00  0.00    -0.155 A  
HETATM    6  C   UNL     1      -9.264  11.876  68.321  1.00  0.00    -0.187 A  
HETATM    7  C   UNL     1      -9.004  10.521  66.298  1.00  0.00    -0.174 A  
HETATM    8  C   UNL     1     -10.465  11.198  68.610  1.00  0.00    -0.220 A  
HETATM    9  C   UNL     1     -10.206   9.872  66.601  1.00  0.00    -0.293 A  
HETATM   10  C   UNL     1     -10.928  10.202  67.745  1.00  0.00    -0.338 A  
ENDBRANCH   1   2
BRANCH   1  11
HETATM   11  S   UNL     1      -7.541  16.231  68.561  1.00  0.00    -0.191 SA 
BRANCH  11  12
HETATM   12  C   UNL     1      -8.916  15.482  67.763  1.00  0.00    -0.173 A  
HETATM   13  C   UNL     1     -11.786  13.795  64.565  1.00  0.00    -0.432 A  
HETATM   14  C   UNL     1     -12.750  13.831  65.567  1.00  0.00    -0.530 A  
HETATM   15  N   UNL     1      -8.876  15.084  66.511  1.00  0.00    -0.273 NA 
HETATM   16  C   UNL     1     -12.431  14.273  66.855  1.00  0.00    -0.077 A  
HETATM   17  C   UNL     1     -10.127  14.648  66.119  1.00  0.00    -0.300 A  
HETATM   18  C   UNL     1     -11.110  14.680  67.109  1.00  0.00    -0.326 A  
HETATM   19  C   UNL     1     -10.473  14.198  64.830  1.00  0.00    -0.432 A  
HETATM   20  S   UNL     1     -10.415  15.276  68.567  1.00  0.00    -0.241 SA 
ENDBRANCH  11  12
ENDBRANCH   1  11
TORSDOF 3
ENDMDL
MODEL      202
REMARK 921   NORMALIZED FREE ENERGY PREDICTED BY IDOCK:   -1.43 KCAL/MOL
REMARK 922        TOTAL FREE ENERGY PREDICTED BY IDOCK:   -1.98 KCAL/MOL
REMARK 923 INTER-LIGAND FREE ENERGY PREDICTED BY IDOCK:   -2.09 KCAL/MOL
REMARK 924 INTRA-LIGAND FREE ENERGY PREDICTED BY IDOCK:    0.11 KCAL/MOL
REMARK 927      BINDING AFFINITY PREDICTED BY RF-SCORE:    0.00 PKD
ROOT
HETATM    1  S   UNL     1      -9.709  12.222  63.667  1.00  0.00     0.177 SA 
ENDROOT
BRANCH   1   2
HETATM    2  C   UNL     1     -10.281  12.913  65.181  1.00  0.00    -0.271 A  
HETATM    3  S   UNL     1     -11.855  13.578  65.319  1.00  0.00    -0.374 SA 
HETATM    4  N   UNL     1      -9.549  12.940  66.273  1.00  0.00    -0.263 NA 
HETATM    5  C   UNL     1     -11.560  13.929  66.978  1.00  0.00    -0.369 A  
HETATM    6  C   UNL     1     -10.270  13.508  67.307  1.00  0.00    -0.242 A  
HETATM    7  C   UNL     1     -12.406  14.536  67.922  1.00  0.00     0.031 A  
HETATM    8  C   UNL     1      -9.811  13.694  68.626  1.00  0.00    -0.140 A  
HETATM    9  C   UNL     1     -11.922  14.720  69.221  1.00  0.00    -0.329 A  
HETATM   10  C   UNL     1     -10.642  14.302  69.573  1.00  0.00    -0.037 A  
ENDBRANCH   1   2
BRANCH   1  11
HETATM   11  S   UNL     1     -10.571  10.349  63.768  1.00  0.00     1.053 SA 
BRANCH  11  12
HETATM   12  C   UNL     1     -10.456  10.062  65.498  1.00  0.00     0.063 A  
HETATM   13  C   UNL     1     -11.171  10.212  70.056  1.00  0.00    -0.361 A  
HETATM   14  C   UNL     1      -9.922   9.609  70.162  1.00  0.00    -0.309 A  
HETATM   15  N   UNL     1     -11.397  10.431  66.339  1.00  0.00     0.229 NA 
HETATM   16  C   UNL     1      -9.182   9.285  69.021  1.00  0.00    -0.144 A  
HETATM   17  C   UNL     1     -10.986  10.188  67.636  1.00  0.00    -0.268 A  
HETATM   18  C   UNL     1      -9.733   9.586  67.765  1.00  0.00    -0.147 A  
HETATM   19  C   UNL     1     -11.713  10.504  68.800  1.00  0.00    -0.190 A  
HETATM   20  S   UNL     1      -9.075   9.325  66.195  1.00  0.00    -0.195 SA 
ENDBRANCH  11  12
ENDBRANCH   1  11
TORSDOF 3
ENDMDL
MODEL      203
REMARK 921   NORMALIZED FREE ENERGY PREDICTED BY IDOCK:   -1.37 KCAL/MOL
REMARK 922        TOTAL FREE ENERGY PREDICTED BY IDOCK:   -1.91 KCAL/MOL
REMARK 923 INTER-LIGAND FREE ENERGY PREDICTED BY IDOCK:   -1.74 KCAL/MOL
REMARK 924 INTRA-LIGAND FREE ENERGY PREDICTED BY IDOCK:   -0.17 KCAL/MOL
REMARK 927      BINDING AFFINITY PREDICTED BY RF-SCORE:    0.00 PKD
ROOT
HETATM    1  S   UNL     1      -5.839  15.258  70.784  1.00  0.00     0.087 SA 
ENDROOT
BRANCH   1   2
HETATM    2  C   UNL     1      -5.702  13.546  71.168  1.00  0.00    -0.172 A  
HETATM    3  S   UNL     1      -5.153  13.018  72.704  1.00  0.00     0.165 SA 
HETATM    4  N   UNL     1      -6.024  12.597  70.317  1.00  0.00    -0.151 NA 
HETATM    5  C   UNL     1      -5.367  11.381  72.217  1.00  0.00     0.546 A  
HETATM    6  C   UNL     1      -5.847  11.358  70.906  1.00  0.00     0.043 A  
HETATM    7  C   UNL     1      -5.125  10.201  72.940  1.00  0.00     0.063 A  
HETATM    8  C   UNL     1      -6.100  10.113  70.299  1.00  0.00    -0.090 A  
HETATM    9  C   UNL     1      -5.374   8.977  72.309  1.00  0.00    -0.061 A  
HETATM   10  C   UNL     1      -5.859   8.931  71.005  1.00  0.00    -0.042 A  
ENDBRANCH   1   2
BRANCH   1  11
HETATM   11  S   UNL     1      -7.380  15.205  69.411  1.00  0.00    -0.212 SA 
BRANCH  11  12
HETATM   12  C   UNL     1      -6.946  16.593  68.425  1.00  0.00    -0.160 A  
HETATM   13  C   UNL     1      -6.604  20.875  66.733  1.00  0.00    -0.367 A  
HETATM   14  C   UNL     1      -6.116  20.265  65.583  1.00  0.00    -0.237 A  
HETATM   15  N   UNL     1      -7.144  17.831  68.821  1.00  0.00    -0.256 NA 
HETATM   16  C   UNL     1      -5.972  18.876  65.513  1.00  0.00    -0.249 A  
HETATM   17  C   UNL     1      -6.822  18.705  67.801  1.00  0.00    -0.214 A  
HETATM   18  C   UNL     1      -6.334  18.113  66.635  1.00  0.00    -0.187 A  
HETATM   19  C   UNL     1      -6.958  20.107  67.848  1.00  0.00    -0.316 A  
HETATM   20  S   UNL     1      -6.283  16.406  66.856  1.00  0.00     0.072 SA 
ENDBRANCH  11  12
ENDBRANCH   1  11
TORSDOF 3
ENDMDL
MODEL      204
REMARK 921   NORMALIZED FREE ENERGY PREDICTED BY IDOCK:   -0.57 KCAL/MOL
REMARK 922        TOTAL FREE ENERGY PREDICTED BY IDOCK:   -0.97 KCAL/MOL
REMARK 923 INTER-LIGAND FREE ENERGY PREDICTED BY IDOCK:   -0.80 KCAL/MOL
REMARK 924 INTRA-LIGAND FREE ENERGY PREDICTED BY IDOCK:   -0.17 KCAL/MOL
REMARK 927      BINDING AFFINITY PREDICTED BY RF-SCORE:    0.00 PKD
ROOT
HETATM    1  S   UNL     1     -12.280  11.969  69.549  1.00  0.00    -0.035 SA 
ENDROOT
BRANCH   1   2
HETATM    2  C   UNL     1     -12.597  13.257  70.705  1.00  0.00    -0.231 A  
HETATM    3  S   UNL     1     -14.154  13.961  70.851  1.00  0.00     1.020 SA 
HETATM    4  N   UNL     1     -11.676  13.728  71.517  1.00  0.00     0.503 NA 
HETATM    5  C   UNL     1     -13.574  14.980  72.111  1.00  0.00    -0.427 A  
HETATM    6  C   UNL     1     -12.223  14.704  72.330  1.00  0.00    -0.225 A  
HETATM    7  C   UNL     1     -14.262  15.955  72.852  1.00  0.00    -0.081 A  
HETATM    8  C   UNL     1     -11.537  15.424  73.329  1.00  0.00    -0.228 A  
HETATM    9  C   UNL     1     -13.555  16.663  73.829  1.00  0.00     0.837 A  
HETATM   10  C   UNL     1     -12.210  16.401  74.069  1.00  0.00    -0.546 A  
ENDBRANCH   1   2
BRANCH   1  11
HETATM   11  S   UNL     1     -10.975  12.933  68.272  1.00  0.00    -0.270 SA 
BRANCH  11  12
HETATM   12  C   UNL     1     -10.071  11.550  67.671  1.00  0.00    -0.184 A  
HETATM   13  C   UNL     1      -6.666   8.607  66.648  1.00  0.00    -0.068 A  
HETATM   14  C   UNL     1      -7.564   8.052  65.742  1.00  0.00    -0.083 A  
HETATM   15  N   UNL     1      -8.845  11.284  68.062  1.00  0.00    -0.143 NA 
HETATM   16  C   UNL     1      -8.860   8.561  65.613  1.00  0.00    -0.214 A  
HETATM   17  C   UNL     1      -8.346  10.217  67.340  1.00  0.00    -0.118 A  
HETATM   18  C   UNL     1      -9.230   9.648  66.422  1.00  0.00    -0.163 A  
HETATM   19  C   UNL     1      -7.046   9.686  67.452  1.00  0.00    -0.085 A  
HETATM   20  S   UNL     1     -10.728  10.495  66.492  1.00  0.00    -0.061 SA 
ENDBRANCH  11  12
ENDBRANCH   1  11
TORSDOF 3
ENDMDL
MODEL      205
REMARK 921   NORMALIZED FREE ENERGY PREDICTED BY IDOCK:    9.25 KCAL/MOL
REMARK 922        TOTAL FREE ENERGY PREDICTED BY IDOCK:   10.56 KCAL/MOL
REMARK 923 INTER-LIGAND FREE ENERGY PREDICTED BY IDOCK:    0.31 KCAL/MOL
REMARK 924 INTRA-LIGAND FREE ENERGY PREDICTED BY IDOCK:   10.25 KCAL/MOL
REMARK 927      BINDING AFFINITY PREDICTED BY RF-SCORE:    0.00 PKD
ROOT
HETATM    1  S   UNL     1      -5.840  15.258  70.785  1.00  0.00     0.087 SA 
ENDROOT
BRANCH   1   2
HETATM    2  C   UNL     1      -5.706  13.545  71.162  1.00  0.00    -0.172 A  
HETATM    3  S   UNL     1      -5.157  13.009  72.695  1.00  0.00     0.165 SA 
HETATM    4  N   UNL     1      -6.032  12.600  70.307  1.00  0.00    -0.151 NA 
HETATM    5  C   UNL     1      -5.375  11.375  72.202  1.00  0.00     0.474 A  
HETATM    6  C   UNL     1      -5.857  11.358  70.891  1.00  0.00     0.043 A  
HETATM    7  C   UNL     1      -5.136  10.191  72.919  1.00  0.00     0.063 A  
HETATM    8  C   UNL     1      -6.114  10.116  70.279  1.00  0.00    -0.090 A  
HETATM    9  C   UNL     1      -5.388   8.970  72.284  1.00  0.00    -0.061 A  
HETATM   10  C   UNL     1      -5.875   8.931  70.981  1.00  0.00    -0.042 A  
ENDBRANCH   1   2
BRANCH   1  11
HETATM   11  S   UNL     1      -7.382  15.215  69.414  1.00  0.00    -0.212 SA 
BRANCH  11  12
HETATM   12  C   UNL     1      -7.162  13.594  68.770  1.00  0.00    -0.100 A  
HETATM   13  C   UNL     1      -6.096  10.040  66.025  1.00  0.00    -0.077 A  
HETATM   14  C   UNL     1      -6.914   9.289  66.861  1.00  0.00    -0.081 A  
HETATM   15  N   UNL     1      -6.406  13.346  67.724  1.00  0.00    -0.151 NA 
HETATM   16  C   UNL     1      -7.548   9.874  67.962  1.00  0.00    -0.085 A  
HETATM   17  C   UNL     1      -6.515  12.014  67.374  1.00  0.00    -0.137 A  
HETATM   18  C   UNL     1      -7.336  11.243  68.199  1.00  0.00    -0.088 A  
HETATM   19  C   UNL     1      -5.888  11.401  66.272  1.00  0.00    -0.059 A  
HETATM   20  S   UNL     1      -7.972  12.244  69.447  1.00  0.00     0.987 SA 
ENDBRANCH  11  12
ENDBRANCH   1  11
TORSDOF 3
ENDMDL
