MODEL        1
REMARK 921   NORMALIZED FREE ENERGY PREDICTED BY IDOCK:   -6.19 KCAL/MOL
REMARK 922        TOTAL FREE ENERGY PREDICTED BY IDOCK:   -8.19 KCAL/MOL
REMARK 923 INTER-LIGAND FREE ENERGY PREDICTED BY IDOCK:   -7.64 KCAL/MOL
REMARK 924 INTRA-LIGAND FREE ENERGY PREDICTED BY IDOCK:   -0.55 KCAL/MOL
REMARK 927      BINDING AFFINITY PREDICTED BY RF-SCORE:    0.00 PKD
ROOT
HETATM    1  C   UNL     1     -11.845  12.708  63.433  1.00  0.00    -0.594 C  
HETATM    2  C   UNL     1     -10.655  12.027  64.108  1.00  0.00    -0.355 C  
HETATM    3  C   UNL     1      -9.746  11.377  63.071  1.00  0.00    -0.393 C  
ENDROOT
BRANCH   2   4
HETATM    4  N   UNL     1      -9.913  13.020  64.884  1.00  0.00    -0.533 NA 
HETATM    5  H   UNL     1      -8.986  13.299  64.560  1.00  0.00     0.000 HD 
BRANCH   4   6
HETATM    6  C   UNL     1     -10.418  13.600  66.045  1.00  0.00    -0.300 A  
HETATM    7  C   UNL     1     -11.204  12.914  66.971  1.00  0.00    -0.329 A  
HETATM    8  C   UNL     1     -11.832  13.575  68.032  1.00  0.00    -0.400 A  
HETATM    9  C   UNL     1     -11.700  14.955  68.200  1.00  0.00    -0.318 A  
HETATM   10  C   UNL     1     -10.272  14.983  66.235  1.00  0.00    -0.306 A  
HETATM   11  C   UNL     1     -10.889  15.653  67.307  1.00  0.00    -0.298 A  
BRANCH   9  12
HETATM   12  N   UNL     1     -12.456  15.561  69.220  1.00  0.00    -0.593 NA 
HETATM   13  H   UNL     1     -13.020  16.353  68.912  1.00  0.00     0.000 HD 
BRANCH  12  14
HETATM   14  C   UNL     1     -12.570  15.267  70.589  1.00  0.00    -0.417 A  
HETATM   15  C   UNL     1     -11.779  15.973  71.508  1.00  0.00    -0.554 A  
HETATM   16  C   UNL     1     -11.922  15.775  72.883  1.00  0.00    -0.599 A  
HETATM   17  C   UNL     1     -12.869  14.873  73.359  1.00  0.00    -0.638 A  
HETATM   18  C   UNL     1     -13.655  14.155  72.458  1.00  0.00    -0.644 A  
HETATM   19  C   UNL     1     -13.499  14.344  71.081  1.00  0.00    -0.368 A  
ENDBRANCH  12  14
ENDBRANCH   9  12
ENDBRANCH   4   6
ENDBRANCH   2   4
TORSDOF 4
ENDMDL
MODEL        2
REMARK 921   NORMALIZED FREE ENERGY PREDICTED BY IDOCK:   -5.96 KCAL/MOL
REMARK 922        TOTAL FREE ENERGY PREDICTED BY IDOCK:   -7.90 KCAL/MOL
REMARK 923 INTER-LIGAND FREE ENERGY PREDICTED BY IDOCK:   -7.40 KCAL/MOL
REMARK 924 INTRA-LIGAND FREE ENERGY PREDICTED BY IDOCK:   -0.50 KCAL/MOL
REMARK 927      BINDING AFFINITY PREDICTED BY RF-SCORE:    0.00 PKD
ROOT
HETATM    1  C   UNL     1     -13.941  15.555  72.283  1.00  0.00    -0.642 C  
HETATM    2  C   UNL     1     -12.498  15.757  72.744  1.00  0.00    -0.456 C  
HETATM    3  C   UNL     1     -12.342  15.373  74.211  1.00  0.00    -0.807 C  
ENDROOT
BRANCH   2   4
HETATM    4  N   UNL     1     -11.613  14.946  71.909  1.00  0.00    -0.470 NA 
HETATM    5  H   UNL     1     -10.925  14.345  72.366  1.00  0.00     0.000 HD 
BRANCH   4   6
HETATM    6  C   UNL     1     -11.669  14.959  70.518  1.00  0.00    -0.292 A  
HETATM    7  C   UNL     1     -11.996  13.842  69.748  1.00  0.00    -0.398 A  
HETATM    8  C   UNL     1     -11.874  13.851  68.355  1.00  0.00    -0.409 A  
HETATM    9  C   UNL     1     -11.411  14.982  67.679  1.00  0.00    -0.334 A  
HETATM   10  C   UNL     1     -11.227  16.099  69.828  1.00  0.00    -0.343 A  
HETATM   11  C   UNL     1     -11.114  16.120  68.426  1.00  0.00    -0.359 A  
BRANCH   9  12
HETATM   12  N   UNL     1     -11.206  14.872  66.292  1.00  0.00    -0.342 NA 
HETATM   13  H   UNL     1     -11.038  15.761  65.820  1.00  0.00     0.000 HD 
BRANCH  12  14
HETATM   14  C   UNL     1     -11.193  13.754  65.441  1.00  0.00    -0.302 A  
HETATM   15  C   UNL     1     -12.153  13.658  64.423  1.00  0.00    -0.470 A  
HETATM   16  C   UNL     1     -12.123  12.608  63.502  1.00  0.00    -0.648 A  
HETATM   17  C   UNL     1     -11.122  11.644  63.582  1.00  0.00    -0.506 A  
HETATM   18  C   UNL     1     -10.168  11.719  64.595  1.00  0.00    -0.326 A  
HETATM   19  C   UNL     1     -10.209  12.763  65.526  1.00  0.00    -0.293 A  
ENDBRANCH  12  14
ENDBRANCH   9  12
ENDBRANCH   4   6
ENDBRANCH   2   4
TORSDOF 4
ENDMDL
MODEL        3
REMARK 921   NORMALIZED FREE ENERGY PREDICTED BY IDOCK:   -5.82 KCAL/MOL
REMARK 922        TOTAL FREE ENERGY PREDICTED BY IDOCK:   -7.73 KCAL/MOL
REMARK 923 INTER-LIGAND FREE ENERGY PREDICTED BY IDOCK:   -7.35 KCAL/MOL
REMARK 924 INTRA-LIGAND FREE ENERGY PREDICTED BY IDOCK:   -0.38 KCAL/MOL
REMARK 927      BINDING AFFINITY PREDICTED BY RF-SCORE:    0.00 PKD
ROOT
HETATM    1  C   UNL     1     -10.251  10.930  63.974  1.00  0.00    -0.422 C  
HETATM    2  C   UNL     1     -10.831  12.259  63.490  1.00  0.00    -0.454 C  
HETATM    3  C   UNL     1     -12.352  12.253  63.592  1.00  0.00    -0.664 C  
ENDROOT
BRANCH   2   4
HETATM    4  N   UNL     1     -10.272  13.345  64.293  1.00  0.00    -0.706 NA 
HETATM    5  H   UNL     1      -9.669  14.030  63.836  1.00  0.00     0.000 HD 
BRANCH   4   6
HETATM    6  C   UNL     1     -10.526  13.483  65.655  1.00  0.00    -0.293 A  
HETATM    7  C   UNL     1     -11.549  14.278  66.172  1.00  0.00    -0.374 A  
HETATM    8  C   UNL     1     -11.663  14.524  67.545  1.00  0.00    -0.413 A  
HETATM    9  C   UNL     1     -10.749  13.985  68.452  1.00  0.00    -0.251 A  
HETATM   10  C   UNL     1      -9.626  12.926  66.577  1.00  0.00    -0.259 A  
HETATM   11  C   UNL     1      -9.742  13.157  67.959  1.00  0.00    -0.224 A  
BRANCH   9  12
HETATM   12  N   UNL     1     -10.864  14.374  69.799  1.00  0.00    -0.444 NA 
HETATM   13  H   UNL     1     -10.005  14.751  70.203  1.00  0.00     0.000 HD 
BRANCH  12  14
HETATM   14  C   UNL     1     -11.952  14.336  70.687  1.00  0.00    -0.322 A  
HETATM   15  C   UNL     1     -12.551  15.540  71.086  1.00  0.00    -0.509 A  
HETATM   16  C   UNL     1     -13.688  15.544  71.897  1.00  0.00    -0.593 A  
HETATM   17  C   UNL     1     -14.248  14.339  72.312  1.00  0.00    -0.587 A  
HETATM   18  C   UNL     1     -13.658  13.135  71.933  1.00  0.00    -0.453 A  
HETATM   19  C   UNL     1     -12.510  13.133  71.133  1.00  0.00    -0.378 A  
ENDBRANCH  12  14
ENDBRANCH   9  12
ENDBRANCH   4   6
ENDBRANCH   2   4
TORSDOF 4
ENDMDL
MODEL        4
REMARK 921   NORMALIZED FREE ENERGY PREDICTED BY IDOCK:   -5.81 KCAL/MOL
REMARK 922        TOTAL FREE ENERGY PREDICTED BY IDOCK:   -7.72 KCAL/MOL
REMARK 923 INTER-LIGAND FREE ENERGY PREDICTED BY IDOCK:   -7.38 KCAL/MOL
REMARK 924 INTRA-LIGAND FREE ENERGY PREDICTED BY IDOCK:   -0.34 KCAL/MOL
REMARK 927      BINDING AFFINITY PREDICTED BY RF-SCORE:    0.00 PKD
ROOT
HETATM    1  C   UNL     1     -10.053  11.273  63.443  1.00  0.00    -0.445 C  
HETATM    2  C   UNL     1     -10.927  12.525  63.509  1.00  0.00    -0.420 C  
HETATM    3  C   UNL     1     -12.311  12.188  64.052  1.00  0.00    -0.550 C  
ENDROOT
BRANCH   2   4
HETATM    4  N   UNL     1     -10.275  13.519  64.360  1.00  0.00    -0.669 NA 
HETATM    5  H   UNL     1      -9.659  14.207  63.924  1.00  0.00     0.000 HD 
BRANCH   4   6
HETATM    6  C   UNL     1     -10.458  13.565  65.740  1.00  0.00    -0.291 A  
HETATM    7  C   UNL     1      -9.786  12.733  66.635  1.00  0.00    -0.250 A  
HETATM    8  C   UNL     1     -10.123  12.693  67.992  1.00  0.00    -0.229 A  
HETATM    9  C   UNL     1     -11.155  13.484  68.503  1.00  0.00    -0.272 A  
HETATM   10  C   UNL     1     -11.477  14.374  66.266  1.00  0.00    -0.361 A  
HETATM   11  C   UNL     1     -11.813  14.350  67.631  1.00  0.00    -0.412 A  
BRANCH   9  12
HETATM   12  N   UNL     1     -11.508  13.301  69.851  1.00  0.00    -0.502 NA 
HETATM   13  H   UNL     1     -11.329  12.362  70.209  1.00  0.00     0.000 HD 
BRANCH  12  14
HETATM   14  C   UNL     1     -12.065  14.183  70.793  1.00  0.00    -0.349 A  
HETATM   15  C   UNL     1     -13.232  13.807  71.474  1.00  0.00    -0.417 A  
HETATM   16  C   UNL     1     -13.770  14.614  72.480  1.00  0.00    -0.572 A  
HETATM   17  C   UNL     1     -13.139  15.805  72.825  1.00  0.00    -0.596 A  
HETATM   18  C   UNL     1     -11.985  16.198  72.149  1.00  0.00    -0.623 A  
HETATM   19  C   UNL     1     -11.456  15.396  71.131  1.00  0.00    -0.425 A  
ENDBRANCH  12  14
ENDBRANCH   9  12
ENDBRANCH   4   6
ENDBRANCH   2   4
TORSDOF 4
ENDMDL
MODEL        5
REMARK 921   NORMALIZED FREE ENERGY PREDICTED BY IDOCK:   -5.80 KCAL/MOL
REMARK 922        TOTAL FREE ENERGY PREDICTED BY IDOCK:   -7.71 KCAL/MOL
REMARK 923 INTER-LIGAND FREE ENERGY PREDICTED BY IDOCK:   -7.26 KCAL/MOL
REMARK 924 INTRA-LIGAND FREE ENERGY PREDICTED BY IDOCK:   -0.45 KCAL/MOL
REMARK 927      BINDING AFFINITY PREDICTED BY RF-SCORE:    0.00 PKD
ROOT
HETATM    1  C   UNL     1     -12.514  15.704  73.746  1.00  0.00    -0.736 C  
HETATM    2  C   UNL     1     -12.815  15.345  72.291  1.00  0.00    -0.380 C  
HETATM    3  C   UNL     1     -14.311  15.441  72.011  1.00  0.00    -0.653 C  
ENDROOT
BRANCH   2   4
HETATM    4  N   UNL     1     -12.074  16.250  71.413  1.00  0.00    -0.617 NA 
HETATM    5  H   UNL     1     -11.916  17.210  71.722  1.00  0.00     0.000 HD 
BRANCH   4   6
HETATM    6  C   UNL     1     -11.576  15.857  70.173  1.00  0.00    -0.351 A  
HETATM    7  C   UNL     1     -10.759  16.661  69.380  1.00  0.00    -0.331 A  
HETATM    8  C   UNL     1     -10.422  16.300  68.071  1.00  0.00    -0.293 A  
HETATM    9  C   UNL     1     -10.900  15.116  67.505  1.00  0.00    -0.301 A  
HETATM   10  C   UNL     1     -12.033  14.658  69.604  1.00  0.00    -0.368 A  
HETATM   11  C   UNL     1     -11.688  14.280  68.294  1.00  0.00    -0.377 A  
BRANCH   9  12
HETATM   12  N   UNL     1     -10.613  14.882  66.149  1.00  0.00    -0.307 NA 
HETATM   13  H   UNL     1     -10.097  15.635  65.692  1.00  0.00     0.000 HD 
BRANCH  12  14
HETATM   14  C   UNL     1     -10.911  13.794  65.311  1.00  0.00    -0.322 A  
HETATM   15  C   UNL     1     -11.918  13.931  64.344  1.00  0.00    -0.480 A  
HETATM   16  C   UNL     1     -12.187  12.906  63.434  1.00  0.00    -0.574 A  
HETATM   17  C   UNL     1     -11.443  11.731  63.474  1.00  0.00    -0.489 A  
HETATM   18  C   UNL     1     -10.447  11.574  64.436  1.00  0.00    -0.380 A  
HETATM   19  C   UNL     1     -10.190  12.596  65.356  1.00  0.00    -0.301 A  
ENDBRANCH  12  14
ENDBRANCH   9  12
ENDBRANCH   4   6
ENDBRANCH   2   4
TORSDOF 4
ENDMDL
MODEL        6
REMARK 921   NORMALIZED FREE ENERGY PREDICTED BY IDOCK:   -5.64 KCAL/MOL
REMARK 922        TOTAL FREE ENERGY PREDICTED BY IDOCK:   -7.51 KCAL/MOL
REMARK 923 INTER-LIGAND FREE ENERGY PREDICTED BY IDOCK:   -7.03 KCAL/MOL
REMARK 924 INTRA-LIGAND FREE ENERGY PREDICTED BY IDOCK:   -0.48 KCAL/MOL
REMARK 927      BINDING AFFINITY PREDICTED BY RF-SCORE:    0.00 PKD
ROOT
HETATM    1  C   UNL     1     -10.108   6.688  74.284  1.00  0.00    -0.378 C  
HETATM    2  C   UNL     1     -10.587   6.717  72.832  1.00  0.00    -0.250 C  
HETATM    3  C   UNL     1     -10.678   5.304  72.266  1.00  0.00    -0.282 C  
ENDROOT
BRANCH   2   4
HETATM    4  N   UNL     1     -11.892   7.374  72.773  1.00  0.00    -0.565 NA 
HETATM    5  H   UNL     1     -12.682   6.933  73.244  1.00  0.00     0.000 HD 
BRANCH   4   6
HETATM    6  C   UNL     1     -12.101   8.575  72.100  1.00  0.00    -0.383 A  
HETATM    7  C   UNL     1     -11.176   9.136  71.219  1.00  0.00    -0.407 A  
HETATM    8  C   UNL     1     -11.348  10.423  70.698  1.00  0.00    -0.411 A  
HETATM    9  C   UNL     1     -12.455  11.200  71.046  1.00  0.00    -0.403 A  
HETATM   10  C   UNL     1     -13.222   9.354  72.426  1.00  0.00    -0.483 A  
HETATM   11  C   UNL     1     -13.410  10.642  71.895  1.00  0.00    -0.454 A  
BRANCH   9  12
HETATM   12  N   UNL     1     -12.496  12.523  70.572  1.00  0.00    -0.239 NA 
HETATM   13  H   UNL     1     -12.624  12.605  69.563  1.00  0.00     0.000 HD 
BRANCH  12  14
HETATM   14  C   UNL     1     -12.392  13.753  71.244  1.00  0.00    -0.308 A  
HETATM   15  C   UNL     1     -11.531  14.738  70.737  1.00  0.00    -0.273 A  
HETATM   16  C   UNL     1     -11.462  16.005  71.322  1.00  0.00    -0.475 A  
HETATM   17  C   UNL     1     -12.264  16.306  72.419  1.00  0.00    -0.538 A  
HETATM   18  C   UNL     1     -13.116  15.335  72.941  1.00  0.00    -0.592 A  
HETATM   19  C   UNL     1     -13.172  14.061  72.363  1.00  0.00    -0.585 A  
ENDBRANCH  12  14
ENDBRANCH   9  12
ENDBRANCH   4   6
ENDBRANCH   2   4
TORSDOF 4
ENDMDL
MODEL        7
REMARK 921   NORMALIZED FREE ENERGY PREDICTED BY IDOCK:   -5.63 KCAL/MOL
REMARK 922        TOTAL FREE ENERGY PREDICTED BY IDOCK:   -7.50 KCAL/MOL
REMARK 923 INTER-LIGAND FREE ENERGY PREDICTED BY IDOCK:   -7.02 KCAL/MOL
REMARK 924 INTRA-LIGAND FREE ENERGY PREDICTED BY IDOCK:   -0.48 KCAL/MOL
REMARK 927      BINDING AFFINITY PREDICTED BY RF-SCORE:    0.00 PKD
ROOT
HETATM    1  C   UNL     1     -12.492  15.633  74.128  1.00  0.00    -0.804 C  
HETATM    2  C   UNL     1     -12.975  14.766  72.966  1.00  0.00    -0.510 C  
HETATM    3  C   UNL     1     -14.245  15.346  72.353  1.00  0.00    -0.584 C  
ENDROOT
BRANCH   2   4
HETATM    4  N   UNL     1     -11.917  14.684  71.960  1.00  0.00    -0.285 NA 
HETATM    5  H   UNL     1     -11.066  15.230  72.100  1.00  0.00     0.000 HD 
BRANCH   4   6
HETATM    6  C   UNL     1     -12.022  13.892  70.819  1.00  0.00    -0.272 A  
HETATM    7  C   UNL     1     -12.292  12.524  70.853  1.00  0.00    -0.349 A  
HETATM    8  C   UNL     1     -12.220  11.734  69.700  1.00  0.00    -0.248 A  
HETATM    9  C   UNL     1     -11.866  12.288  68.467  1.00  0.00    -0.307 A  
HETATM   10  C   UNL     1     -11.691  14.444  69.572  1.00  0.00    -0.362 A  
HETATM   11  C   UNL     1     -11.630  13.660  68.406  1.00  0.00    -0.377 A  
BRANCH   9  12
HETATM   12  N   UNL     1     -11.703  11.409  67.382  1.00  0.00    -0.598 NA 
HETATM   13  H   UNL     1     -11.817  10.422  67.619  1.00  0.00     0.000 HD 
BRANCH  12  14
HETATM   14  C   UNL     1     -11.409  11.649  66.029  1.00  0.00    -0.196 A  
HETATM   15  C   UNL     1     -12.244  12.499  65.289  1.00  0.00    -0.493 A  
HETATM   16  C   UNL     1     -11.941  12.834  63.967  1.00  0.00    -0.522 A  
HETATM   17  C   UNL     1     -10.790  12.329  63.371  1.00  0.00    -0.457 A  
HETATM   18  C   UNL     1      -9.956  11.473  64.089  1.00  0.00    -0.327 A  
HETATM   19  C   UNL     1     -10.270  11.127  65.408  1.00  0.00    -0.327 A  
ENDBRANCH  12  14
ENDBRANCH   9  12
ENDBRANCH   4   6
ENDBRANCH   2   4
TORSDOF 4
ENDMDL
MODEL        8
REMARK 921   NORMALIZED FREE ENERGY PREDICTED BY IDOCK:   -5.63 KCAL/MOL
REMARK 922        TOTAL FREE ENERGY PREDICTED BY IDOCK:   -7.49 KCAL/MOL
REMARK 923 INTER-LIGAND FREE ENERGY PREDICTED BY IDOCK:   -6.93 KCAL/MOL
REMARK 924 INTRA-LIGAND FREE ENERGY PREDICTED BY IDOCK:   -0.56 KCAL/MOL
REMARK 927      BINDING AFFINITY PREDICTED BY RF-SCORE:    0.00 PKD
ROOT
HETATM    1  C   UNL     1     -11.698  16.335  71.620  1.00  0.00    -0.490 C  
HETATM    2  C   UNL     1     -12.158  15.214  72.552  1.00  0.00    -0.386 C  
HETATM    3  C   UNL     1     -12.656  15.784  73.876  1.00  0.00    -0.754 C  
ENDROOT
BRANCH   2   4
HETATM    4  N   UNL     1     -13.219  14.452  71.895  1.00  0.00    -0.341 NA 
HETATM    5  H   UNL     1     -14.122  14.902  71.745  1.00  0.00     0.000 HD 
BRANCH   4   6
HETATM    6  C   UNL     1     -13.048  13.138  71.467  1.00  0.00    -0.315 A  
HETATM    7  C   UNL     1     -13.491  12.028  72.185  1.00  0.00    -0.338 A  
HETATM    8  C   UNL     1     -13.150  10.725  71.807  1.00  0.00    -0.573 A  
HETATM    9  C   UNL     1     -12.342  10.486  70.693  1.00  0.00    -0.356 A  
HETATM   10  C   UNL     1     -12.256  12.887  70.334  1.00  0.00    -0.381 A  
HETATM   11  C   UNL     1     -11.920  11.580  69.940  1.00  0.00    -0.426 A  
BRANCH   9  12
HETATM   12  N   UNL     1     -11.949   9.159  70.448  1.00  0.00    -0.469 NA 
HETATM   13  H   UNL     1     -11.994   8.881  69.467  1.00  0.00     0.000 HD 
BRANCH  12  14
HETATM   14  C   UNL     1     -11.506   8.147  71.316  1.00  0.00    -0.266 A  
HETATM   15  C   UNL     1     -10.529   8.449  72.276  1.00  0.00    -0.407 A  
HETATM   16  C   UNL     1     -10.122   7.498  73.214  1.00  0.00    -0.386 A  
HETATM   17  C   UNL     1     -10.697   6.231  73.210  1.00  0.00    -0.284 A  
HETATM   18  C   UNL     1     -11.660   5.910  72.255  1.00  0.00    -0.338 A  
HETATM   19  C   UNL     1     -12.055   6.860  71.306  1.00  0.00    -0.419 A  
ENDBRANCH  12  14
ENDBRANCH   9  12
ENDBRANCH   4   6
ENDBRANCH   2   4
TORSDOF 4
ENDMDL
MODEL        9
REMARK 921   NORMALIZED FREE ENERGY PREDICTED BY IDOCK:   -5.62 KCAL/MOL
REMARK 922        TOTAL FREE ENERGY PREDICTED BY IDOCK:   -7.48 KCAL/MOL
REMARK 923 INTER-LIGAND FREE ENERGY PREDICTED BY IDOCK:   -6.84 KCAL/MOL
REMARK 924 INTRA-LIGAND FREE ENERGY PREDICTED BY IDOCK:   -0.64 KCAL/MOL
REMARK 927      BINDING AFFINITY PREDICTED BY RF-SCORE:    0.00 PKD
ROOT
HETATM    1  C   UNL     1      -9.069   8.913  65.587  1.00  0.00    -0.269 C  
HETATM    2  C   UNL     1      -9.338  10.129  66.472  1.00  0.00    -0.164 C  
HETATM    3  C   UNL     1      -8.255  11.185  66.282  1.00  0.00    -0.153 C  
ENDROOT
BRANCH   2   4
HETATM    4  N   UNL     1     -10.650  10.681  66.139  1.00  0.00    -0.187 NA 
HETATM    5  H   UNL     1     -11.178  10.259  65.374  1.00  0.00     0.000 HD 
BRANCH   4   6
HETATM    6  C   UNL     1     -11.209  11.759  66.822  1.00  0.00    -0.328 A  
HETATM    7  C   UNL     1     -11.576  12.955  66.206  1.00  0.00    -0.424 A  
HETATM    8  C   UNL     1     -11.973  14.071  66.951  1.00  0.00    -0.479 A  
HETATM    9  C   UNL     1     -12.010  14.031  68.346  1.00  0.00    -0.343 A  
HETATM   10  C   UNL     1     -11.273  11.720  68.224  1.00  0.00    -0.313 A  
HETATM   11  C   UNL     1     -11.684  12.833  68.979  1.00  0.00    -0.371 A  
BRANCH   9  12
HETATM   12  N   UNL     1     -12.307  15.227  69.024  1.00  0.00    -0.602 NA 
HETATM   13  H   UNL     1     -12.291  16.060  68.433  1.00  0.00     0.000 HD 
BRANCH  12  14
HETATM   14  C   UNL     1     -12.620  15.478  70.370  1.00  0.00    -0.378 A  
HETATM   15  C   UNL     1     -13.906  15.172  70.841  1.00  0.00    -0.312 A  
HETATM   16  C   UNL     1     -14.234  15.324  72.190  1.00  0.00    -0.667 A  
HETATM   17  C   UNL     1     -13.273  15.775  73.090  1.00  0.00    -0.694 A  
HETATM   18  C   UNL     1     -11.994  16.093  72.636  1.00  0.00    -0.653 A  
HETATM   19  C   UNL     1     -11.673  15.955  71.282  1.00  0.00    -0.504 A  
ENDBRANCH  12  14
ENDBRANCH   9  12
ENDBRANCH   4   6
ENDBRANCH   2   4
TORSDOF 4
ENDMDL
MODEL       10
REMARK 921   NORMALIZED FREE ENERGY PREDICTED BY IDOCK:   -5.57 KCAL/MOL
REMARK 922        TOTAL FREE ENERGY PREDICTED BY IDOCK:   -7.42 KCAL/MOL
REMARK 923 INTER-LIGAND FREE ENERGY PREDICTED BY IDOCK:   -6.79 KCAL/MOL
REMARK 924 INTRA-LIGAND FREE ENERGY PREDICTED BY IDOCK:   -0.62 KCAL/MOL
REMARK 927      BINDING AFFINITY PREDICTED BY RF-SCORE:    0.00 PKD
ROOT
HETATM    1  C   UNL     1      -7.523  19.866  65.609  1.00  0.00    -0.285 C  
HETATM    2  C   UNL     1      -8.657  19.196  66.385  1.00  0.00    -0.328 C  
HETATM    3  C   UNL     1      -9.977  19.918  66.139  1.00  0.00    -0.593 C  
ENDROOT
BRANCH   2   4
HETATM    4  N   UNL     1      -8.757  17.798  65.972  1.00  0.00    -0.514 NA 
HETATM    5  H   UNL     1      -8.452  17.543  65.032  1.00  0.00     0.000 HD 
BRANCH   4   6
HETATM    6  C   UNL     1      -9.253  16.799  66.807  1.00  0.00    -0.243 A  
HETATM    7  C   UNL     1     -10.474  16.158  66.602  1.00  0.00    -0.300 A  
HETATM    8  C   UNL     1     -11.013  15.286  67.554  1.00  0.00    -0.315 A  
HETATM    9  C   UNL     1     -10.348  15.030  68.755  1.00  0.00    -0.240 A  
HETATM   10  C   UNL     1      -8.580  16.517  68.007  1.00  0.00    -0.184 A  
HETATM   11  C   UNL     1      -9.109  15.632  68.963  1.00  0.00    -0.241 A  
BRANCH   9  12
HETATM   12  N   UNL     1     -11.010  14.236  69.708  1.00  0.00    -0.447 NA 
HETATM   13  H   UNL     1     -10.870  13.231  69.589  1.00  0.00     0.000 HD 
BRANCH  12  14
HETATM   14  C   UNL     1     -11.831  14.580  70.796  1.00  0.00    -0.304 A  
HETATM   15  C   UNL     1     -12.775  13.653  71.260  1.00  0.00    -0.443 A  
HETATM   16  C   UNL     1     -13.551  13.920  72.391  1.00  0.00    -0.676 A  
HETATM   17  C   UNL     1     -13.382  15.117  73.080  1.00  0.00    -0.586 A  
HETATM   18  C   UNL     1     -12.456  16.054  72.624  1.00  0.00    -0.572 A  
HETATM   19  C   UNL     1     -11.691  15.791  71.482  1.00  0.00    -0.523 A  
ENDBRANCH  12  14
ENDBRANCH   9  12
ENDBRANCH   4   6
ENDBRANCH   2   4
TORSDOF 4
ENDMDL
MODEL       11
REMARK 921   NORMALIZED FREE ENERGY PREDICTED BY IDOCK:   -5.56 KCAL/MOL
REMARK 922        TOTAL FREE ENERGY PREDICTED BY IDOCK:   -7.41 KCAL/MOL
REMARK 923 INTER-LIGAND FREE ENERGY PREDICTED BY IDOCK:   -6.91 KCAL/MOL
REMARK 924 INTRA-LIGAND FREE ENERGY PREDICTED BY IDOCK:   -0.50 KCAL/MOL
REMARK 927      BINDING AFFINITY PREDICTED BY RF-SCORE:    0.00 PKD
ROOT
HETATM    1  C   UNL     1     -10.777  14.959  64.748  1.00  0.00    -0.365 C  
HETATM    2  C   UNL     1     -12.121  14.344  64.357  1.00  0.00    -0.470 C  
HETATM    3  C   UNL     1     -11.923  13.205  63.364  1.00  0.00    -0.552 C  
ENDROOT
BRANCH   2   4
HETATM    4  N   UNL     1     -12.792  13.858  65.562  1.00  0.00    -0.669 NA 
HETATM    5  H   UNL     1     -13.799  13.994  65.648  1.00  0.00     0.000 HD 
BRANCH   4   6
HETATM    6  C   UNL     1     -12.113  13.217  66.595  1.00  0.00    -0.346 A  
HETATM    7  C   UNL     1     -11.652  11.903  66.517  1.00  0.00    -0.328 A  
HETATM    8  C   UNL     1     -11.129  11.242  67.634  1.00  0.00    -0.336 A  
HETATM    9  C   UNL     1     -11.056  11.874  68.877  1.00  0.00    -0.247 A  
HETATM   10  C   UNL     1     -12.013  13.853  67.843  1.00  0.00    -0.393 A  
HETATM   11  C   UNL     1     -11.476  13.200  68.967  1.00  0.00    -0.345 A  
BRANCH   9  12
HETATM   12  N   UNL     1     -10.627  11.105  69.973  1.00  0.00    -0.373 NA 
HETATM   13  H   UNL     1      -9.635  11.201  70.193  1.00  0.00     0.000 HD 
BRANCH  12  14
HETATM   14  C   UNL     1     -11.324  10.226  70.820  1.00  0.00    -0.337 A  
HETATM   15  C   UNL     1     -12.718  10.343  70.927  1.00  0.00    -0.477 A  
HETATM   16  C   UNL     1     -13.460   9.436  71.689  1.00  0.00    -0.467 A  
HETATM   17  C   UNL     1     -12.816   8.393  72.346  1.00  0.00    -0.323 A  
HETATM   18  C   UNL     1     -11.430   8.271  72.259  1.00  0.00    -0.452 A  
HETATM   19  C   UNL     1     -10.687   9.188  71.508  1.00  0.00    -0.437 A  
ENDBRANCH  12  14
ENDBRANCH   9  12
ENDBRANCH   4   6
ENDBRANCH   2   4
TORSDOF 4
ENDMDL
MODEL       12
REMARK 921   NORMALIZED FREE ENERGY PREDICTED BY IDOCK:   -5.56 KCAL/MOL
REMARK 922        TOTAL FREE ENERGY PREDICTED BY IDOCK:   -7.41 KCAL/MOL
REMARK 923 INTER-LIGAND FREE ENERGY PREDICTED BY IDOCK:   -7.00 KCAL/MOL
REMARK 924 INTRA-LIGAND FREE ENERGY PREDICTED BY IDOCK:   -0.41 KCAL/MOL
REMARK 927      BINDING AFFINITY PREDICTED BY RF-SCORE:    0.00 PKD
ROOT
HETATM    1  C   UNL     1     -11.434  15.055  66.820  1.00  0.00    -0.252 C  
HETATM    2  C   UNL     1     -11.090  15.494  68.244  1.00  0.00    -0.322 C  
HETATM    3  C   UNL     1     -10.682  16.963  68.271  1.00  0.00    -0.377 C  
ENDROOT
BRANCH   2   4
HETATM    4  N   UNL     1     -12.251  15.273  69.105  1.00  0.00    -0.585 NA 
HETATM    5  H   UNL     1     -13.014  15.949  69.079  1.00  0.00     0.000 HD 
BRANCH   4   6
HETATM    6  C   UNL     1     -12.357  14.178  69.959  1.00  0.00    -0.344 A  
HETATM    7  C   UNL     1     -11.937  12.892  69.620  1.00  0.00    -0.358 A  
HETATM    8  C   UNL     1     -12.217  11.791  70.436  1.00  0.00    -0.416 A  
HETATM    9  C   UNL     1     -12.937  11.938  71.624  1.00  0.00    -0.342 A  
HETATM   10  C   UNL     1     -13.059  14.320  71.167  1.00  0.00    -0.412 A  
HETATM   11  C   UNL     1     -13.332  13.221  71.999  1.00  0.00    -0.582 A  
BRANCH   9  12
HETATM   12  N   UNL     1     -13.277  10.769  72.327  1.00  0.00    -0.567 NA 
HETATM   13  H   UNL     1     -13.793  10.934  73.193  1.00  0.00     0.000 HD 
BRANCH  12  14
HETATM   14  C   UNL     1     -13.032   9.414  72.049  1.00  0.00    -0.423 A  
HETATM   15  C   UNL     1     -11.728   8.914  72.180  1.00  0.00    -0.411 A  
HETATM   16  C   UNL     1     -11.456   7.556  71.998  1.00  0.00    -0.319 A  
HETATM   17  C   UNL     1     -12.490   6.677  71.691  1.00  0.00    -0.353 A  
HETATM   18  C   UNL     1     -13.789   7.160  71.546  1.00  0.00    -0.421 A  
HETATM   19  C   UNL     1     -14.057   8.523  71.714  1.00  0.00    -0.515 A  
ENDBRANCH  12  14
ENDBRANCH   9  12
ENDBRANCH   4   6
ENDBRANCH   2   4
TORSDOF 4
ENDMDL
MODEL       13
REMARK 921   NORMALIZED FREE ENERGY PREDICTED BY IDOCK:   -5.54 KCAL/MOL
REMARK 922        TOTAL FREE ENERGY PREDICTED BY IDOCK:   -7.38 KCAL/MOL
REMARK 923 INTER-LIGAND FREE ENERGY PREDICTED BY IDOCK:   -7.22 KCAL/MOL
REMARK 924 INTRA-LIGAND FREE ENERGY PREDICTED BY IDOCK:   -0.17 KCAL/MOL
REMARK 927      BINDING AFFINITY PREDICTED BY RF-SCORE:    0.00 PKD
ROOT
HETATM    1  C   UNL     1      -9.894   5.285  70.261  1.00  0.00    -0.284 C  
HETATM    2  C   UNL     1     -10.652   6.405  69.547  1.00  0.00    -0.253 C  
HETATM    3  C   UNL     1     -10.884   6.049  68.083  1.00  0.00    -0.365 C  
ENDROOT
BRANCH   2   4
HETATM    4  N   UNL     1     -11.928   6.626  70.225  1.00  0.00    -0.583 NA 
HETATM    5  H   UNL     1     -12.620   5.876  70.220  1.00  0.00     0.000 HD 
BRANCH   4   6
HETATM    6  C   UNL     1     -12.238   7.817  70.877  1.00  0.00    -0.145 A  
HETATM    7  C   UNL     1     -13.405   8.011  71.615  1.00  0.00    -0.364 A  
HETATM    8  C   UNL     1     -13.759   9.271  72.109  1.00  0.00    -0.517 A  
HETATM    9  C   UNL     1     -12.956  10.389  71.875  1.00  0.00    -0.450 A  
HETATM   10  C   UNL     1     -11.424   8.942  70.666  1.00  0.00    -0.280 A  
HETATM   11  C   UNL     1     -11.766  10.209  71.171  1.00  0.00    -0.453 A  
BRANCH   9  12
HETATM   12  N   UNL     1     -13.439  11.638  72.303  1.00  0.00    -0.536 NA 
HETATM   13  H   UNL     1     -14.007  11.601  73.150  1.00  0.00     0.000 HD 
BRANCH  12  14
HETATM   14  C   UNL     1     -13.276  12.929  71.771  1.00  0.00    -0.384 A  
HETATM   15  C   UNL     1     -14.077  13.974  72.256  1.00  0.00    -0.633 A  
HETATM   16  C   UNL     1     -13.890  15.287  71.818  1.00  0.00    -0.622 A  
HETATM   17  C   UNL     1     -12.889  15.574  70.895  1.00  0.00    -0.535 A  
HETATM   18  C   UNL     1     -12.093  14.545  70.394  1.00  0.00    -0.389 A  
HETATM   19  C   UNL     1     -12.292  13.227  70.823  1.00  0.00    -0.425 A  
ENDBRANCH  12  14
ENDBRANCH   9  12
ENDBRANCH   4   6
ENDBRANCH   2   4
TORSDOF 4
ENDMDL
MODEL       14
REMARK 921   NORMALIZED FREE ENERGY PREDICTED BY IDOCK:   -5.54 KCAL/MOL
REMARK 922        TOTAL FREE ENERGY PREDICTED BY IDOCK:   -7.38 KCAL/MOL
REMARK 923 INTER-LIGAND FREE ENERGY PREDICTED BY IDOCK:   -6.82 KCAL/MOL
REMARK 924 INTRA-LIGAND FREE ENERGY PREDICTED BY IDOCK:   -0.56 KCAL/MOL
REMARK 927      BINDING AFFINITY PREDICTED BY RF-SCORE:    0.00 PKD
ROOT
HETATM    1  C   UNL     1     -14.306  14.956  71.711  1.00  0.00    -0.668 C  
HETATM    2  C   UNL     1     -12.945  15.609  71.946  1.00  0.00    -0.463 C  
HETATM    3  C   UNL     1     -12.780  16.001  73.410  1.00  0.00    -0.668 C  
ENDROOT
BRANCH   2   4
HETATM    4  N   UNL     1     -11.892  14.676  71.548  1.00  0.00    -0.417 NA 
HETATM    5  H   UNL     1     -11.202  14.392  72.244  1.00  0.00     0.000 HD 
BRANCH   4   6
HETATM    6  C   UNL     1     -11.793  14.158  70.258  1.00  0.00    -0.303 A  
HETATM    7  C   UNL     1     -11.683  14.950  69.116  1.00  0.00    -0.338 A  
HETATM    8  C   UNL     1     -11.758  14.398  67.832  1.00  0.00    -0.388 A  
HETATM    9  C   UNL     1     -11.954  13.028  67.646  1.00  0.00    -0.301 A  
HETATM   10  C   UNL     1     -11.965  12.778  70.062  1.00  0.00    -0.371 A  
HETATM   11  C   UNL     1     -12.028  12.215  68.775  1.00  0.00    -0.292 A  
BRANCH   9  12
HETATM   12  N   UNL     1     -12.135  12.570  66.329  1.00  0.00    -0.605 NA 
HETATM   13  H   UNL     1     -13.095  12.636  65.989  1.00  0.00     0.000 HD 
BRANCH  12  14
HETATM   14  C   UNL     1     -11.227  12.037  65.399  1.00  0.00    -0.322 A  
HETATM   15  C   UNL     1     -10.153  11.262  65.859  1.00  0.00    -0.291 A  
HETATM   16  C   UNL     1      -9.277  10.642  64.965  1.00  0.00    -0.245 A  
HETATM   17  C   UNL     1      -9.472  10.781  63.594  1.00  0.00    -0.325 A  
HETATM   18  C   UNL     1     -10.528  11.558  63.121  1.00  0.00    -0.350 A  
HETATM   19  C   UNL     1     -11.395  12.191  64.018  1.00  0.00    -0.468 A  
ENDBRANCH  12  14
ENDBRANCH   9  12
ENDBRANCH   4   6
ENDBRANCH   2   4
TORSDOF 4
ENDMDL
MODEL       15
REMARK 921   NORMALIZED FREE ENERGY PREDICTED BY IDOCK:   -5.51 KCAL/MOL
REMARK 922        TOTAL FREE ENERGY PREDICTED BY IDOCK:   -7.34 KCAL/MOL
REMARK 923 INTER-LIGAND FREE ENERGY PREDICTED BY IDOCK:   -6.87 KCAL/MOL
REMARK 924 INTRA-LIGAND FREE ENERGY PREDICTED BY IDOCK:   -0.47 KCAL/MOL
REMARK 927      BINDING AFFINITY PREDICTED BY RF-SCORE:    0.00 PKD
ROOT
HETATM    1  C   UNL     1     -10.019   6.795  74.171  1.00  0.00    -0.373 C  
HETATM    2  C   UNL     1     -10.855   6.486  72.929  1.00  0.00    -0.258 C  
HETATM    3  C   UNL     1     -11.399   5.063  72.985  1.00  0.00    -0.374 C  
ENDROOT
BRANCH   2   4
HETATM    4  N   UNL     1     -11.953   7.447  72.841  1.00  0.00    -0.549 NA 
HETATM    5  H   UNL     1     -12.777   7.302  73.424  1.00  0.00     0.000 HD 
BRANCH   4   6
HETATM    6  C   UNL     1     -11.921   8.553  71.994  1.00  0.00    -0.361 A  
HETATM    7  C   UNL     1     -10.841   8.859  71.166  1.00  0.00    -0.352 A  
HETATM    8  C   UNL     1     -10.776  10.065  70.461  1.00  0.00    -0.352 A  
HETATM    9  C   UNL     1     -11.793  11.017  70.566  1.00  0.00    -0.367 A  
HETATM   10  C   UNL     1     -12.950   9.505  72.075  1.00  0.00    -0.514 A  
HETATM   11  C   UNL     1     -12.899  10.714  71.359  1.00  0.00    -0.556 A  
BRANCH   9  12
HETATM   12  N   UNL     1     -11.599  12.250  69.920  1.00  0.00    -0.497 NA 
HETATM   13  H   UNL     1     -11.340  13.016  70.543  1.00  0.00     0.000 HD 
BRANCH  12  14
HETATM   14  C   UNL     1     -11.699  12.615  68.566  1.00  0.00    -0.330 A  
HETATM   15  C   UNL     1     -11.862  13.968  68.233  1.00  0.00    -0.406 A  
HETATM   16  C   UNL     1     -11.879  14.384  66.900  1.00  0.00    -0.433 A  
HETATM   17  C   UNL     1     -11.721  13.450  65.880  1.00  0.00    -0.389 A  
HETATM   18  C   UNL     1     -11.570  12.101  66.195  1.00  0.00    -0.418 A  
HETATM   19  C   UNL     1     -11.569  11.684  67.530  1.00  0.00    -0.345 A  
ENDBRANCH  12  14
ENDBRANCH   9  12
ENDBRANCH   4   6
ENDBRANCH   2   4
TORSDOF 4
ENDMDL
MODEL       16
REMARK 921   NORMALIZED FREE ENERGY PREDICTED BY IDOCK:   -5.48 KCAL/MOL
REMARK 922        TOTAL FREE ENERGY PREDICTED BY IDOCK:   -7.31 KCAL/MOL
REMARK 923 INTER-LIGAND FREE ENERGY PREDICTED BY IDOCK:   -6.80 KCAL/MOL
REMARK 924 INTRA-LIGAND FREE ENERGY PREDICTED BY IDOCK:   -0.51 KCAL/MOL
REMARK 927      BINDING AFFINITY PREDICTED BY RF-SCORE:    0.00 PKD
ROOT
HETATM    1  C   UNL     1      -9.210  11.279  62.639  1.00  0.00    -0.330 C  
HETATM    2  C   UNL     1     -10.136  11.427  63.846  1.00  0.00    -0.345 C  
HETATM    3  C   UNL     1      -9.884  10.315  64.858  1.00  0.00    -0.404 C  
ENDROOT
BRANCH   2   4
HETATM    4  N   UNL     1      -9.915  12.735  64.461  1.00  0.00    -0.573 NA 
HETATM    5  H   UNL     1      -9.509  13.479  63.893  1.00  0.00     0.000 HD 
BRANCH   4   6
HETATM    6  C   UNL     1     -10.234  13.006  65.789  1.00  0.00    -0.290 A  
HETATM    7  C   UNL     1     -11.505  13.390  66.214  1.00  0.00    -0.354 A  
HETATM    8  C   UNL     1     -11.742  13.818  67.525  1.00  0.00    -0.410 A  
HETATM    9  C   UNL     1     -10.707  13.883  68.460  1.00  0.00    -0.257 A  
HETATM   10  C   UNL     1      -9.204  13.052  66.743  1.00  0.00    -0.229 A  
HETATM   11  C   UNL     1      -9.437  13.468  68.066  1.00  0.00    -0.220 A  
BRANCH   9  12
HETATM   12  N   UNL     1     -11.003  14.434  69.720  1.00  0.00    -0.429 NA 
HETATM   13  H   UNL     1     -10.255  15.004  70.116  1.00  0.00     0.000 HD 
BRANCH  12  14
HETATM   14  C   UNL     1     -12.147  14.337  70.529  1.00  0.00    -0.343 A  
HETATM   15  C   UNL     1     -12.468  13.103  71.115  1.00  0.00    -0.378 A  
HETATM   16  C   UNL     1     -13.546  12.982  71.995  1.00  0.00    -0.530 A  
HETATM   17  C   UNL     1     -14.312  14.100  72.310  1.00  0.00    -0.533 A  
HETATM   18  C   UNL     1     -14.014  15.331  71.728  1.00  0.00    -0.638 A  
HETATM   19  C   UNL     1     -12.943  15.446  70.834  1.00  0.00    -0.539 A  
ENDBRANCH  12  14
ENDBRANCH   9  12
ENDBRANCH   4   6
ENDBRANCH   2   4
TORSDOF 4
ENDMDL
MODEL       17
REMARK 921   NORMALIZED FREE ENERGY PREDICTED BY IDOCK:   -5.46 KCAL/MOL
REMARK 922        TOTAL FREE ENERGY PREDICTED BY IDOCK:   -7.29 KCAL/MOL
REMARK 923 INTER-LIGAND FREE ENERGY PREDICTED BY IDOCK:   -6.82 KCAL/MOL
REMARK 924 INTRA-LIGAND FREE ENERGY PREDICTED BY IDOCK:   -0.47 KCAL/MOL
REMARK 927      BINDING AFFINITY PREDICTED BY RF-SCORE:    0.00 PKD
ROOT
HETATM    1  C   UNL     1     -12.696  14.080  65.593  1.00  0.00    -0.515 C  
HETATM    2  C   UNL     1     -11.401  14.339  66.363  1.00  0.00    -0.343 C  
HETATM    3  C   UNL     1     -10.579  15.429  65.683  1.00  0.00    -0.379 C  
ENDROOT
BRANCH   2   4
HETATM    4  N   UNL     1     -11.730  14.731  67.732  1.00  0.00    -0.392 NA 
HETATM    5  H   UNL     1     -11.860  15.722  67.939  1.00  0.00     0.000 HD 
BRANCH   4   6
HETATM    6  C   UNL     1     -11.873  13.808  68.766  1.00  0.00    -0.363 A  
HETATM    7  C   UNL     1     -11.783  12.428  68.586  1.00  0.00    -0.372 A  
HETATM    8  C   UNL     1     -12.101  11.533  69.612  1.00  0.00    -0.363 A  
HETATM    9  C   UNL     1     -12.530  11.990  70.861  1.00  0.00    -0.288 A  
HETATM   10  C   UNL     1     -12.281  14.259  70.031  1.00  0.00    -0.417 A  
HETATM   11  C   UNL     1     -12.589  13.366  71.073  1.00  0.00    -0.425 A  
BRANCH   9  12
HETATM   12  N   UNL     1     -12.941  11.027  71.799  1.00  0.00    -0.468 NA 
HETATM   13  H   UNL     1     -13.439  11.410  72.604  1.00  0.00     0.000 HD 
BRANCH  12  14
HETATM   14  C   UNL     1     -12.788   9.631  71.825  1.00  0.00    -0.421 A  
HETATM   15  C   UNL     1     -13.922   8.816  71.682  1.00  0.00    -0.450 A  
HETATM   16  C   UNL     1     -13.805   7.426  71.615  1.00  0.00    -0.490 A  
HETATM   17  C   UNL     1     -12.549   6.831  71.679  1.00  0.00    -0.380 A  
HETATM   18  C   UNL     1     -11.414   7.626  71.832  1.00  0.00    -0.313 A  
HETATM   19  C   UNL     1     -11.534   9.018  71.915  1.00  0.00    -0.440 A  
ENDBRANCH  12  14
ENDBRANCH   9  12
ENDBRANCH   4   6
ENDBRANCH   2   4
TORSDOF 4
ENDMDL
MODEL       18
REMARK 921   NORMALIZED FREE ENERGY PREDICTED BY IDOCK:   -5.46 KCAL/MOL
REMARK 922        TOTAL FREE ENERGY PREDICTED BY IDOCK:   -7.28 KCAL/MOL
REMARK 923 INTER-LIGAND FREE ENERGY PREDICTED BY IDOCK:   -6.87 KCAL/MOL
REMARK 924 INTRA-LIGAND FREE ENERGY PREDICTED BY IDOCK:   -0.41 KCAL/MOL
REMARK 927      BINDING AFFINITY PREDICTED BY RF-SCORE:    0.00 PKD
ROOT
HETATM    1  C   UNL     1     -11.108   6.162  68.950  1.00  0.00    -0.417 C  
HETATM    2  C   UNL     1     -11.202   6.528  70.431  1.00  0.00    -0.355 C  
HETATM    3  C   UNL     1     -10.455   5.510  71.286  1.00  0.00    -0.306 C  
ENDROOT
BRANCH   2   4
HETATM    4  N   UNL     1     -10.644   7.865  70.628  1.00  0.00    -0.215 NA 
HETATM    5  H   UNL     1      -9.630   7.968  70.684  1.00  0.00     0.000 HD 
BRANCH   4   6
HETATM    6  C   UNL     1     -11.438   9.003  70.745  1.00  0.00    -0.282 A  
HETATM    7  C   UNL     1     -11.222  10.172  70.016  1.00  0.00    -0.361 A  
HETATM    8  C   UNL     1     -11.933  11.346  70.286  1.00  0.00    -0.460 A  
HETATM    9  C   UNL     1     -12.887  11.393  71.305  1.00  0.00    -0.379 A  
HETATM   10  C   UNL     1     -12.416   9.053  71.751  1.00  0.00    -0.438 A  
HETATM   11  C   UNL     1     -13.145  10.225  72.019  1.00  0.00    -0.529 A  
BRANCH   9  12
HETATM   12  N   UNL     1     -13.474  12.639  71.589  1.00  0.00    -0.218 NA 
HETATM   13  H   UNL     1     -14.494  12.641  71.555  1.00  0.00     0.000 HD 
BRANCH  12  14
HETATM   14  C   UNL     1     -12.903  13.882  71.913  1.00  0.00    -0.322 A  
HETATM   15  C   UNL     1     -12.266  14.624  70.907  1.00  0.00    -0.391 A  
HETATM   16  C   UNL     1     -11.762  15.901  71.165  1.00  0.00    -0.490 A  
HETATM   17  C   UNL     1     -11.899  16.457  72.433  1.00  0.00    -0.548 A  
HETATM   18  C   UNL     1     -12.518  15.728  73.446  1.00  0.00    -0.642 A  
HETATM   19  C   UNL     1     -13.009  14.442  73.190  1.00  0.00    -0.517 A  
ENDBRANCH  12  14
ENDBRANCH   9  12
ENDBRANCH   4   6
ENDBRANCH   2   4
TORSDOF 4
ENDMDL
MODEL       19
REMARK 921   NORMALIZED FREE ENERGY PREDICTED BY IDOCK:   -5.42 KCAL/MOL
REMARK 922        TOTAL FREE ENERGY PREDICTED BY IDOCK:   -7.23 KCAL/MOL
REMARK 923 INTER-LIGAND FREE ENERGY PREDICTED BY IDOCK:   -6.95 KCAL/MOL
REMARK 924 INTRA-LIGAND FREE ENERGY PREDICTED BY IDOCK:   -0.28 KCAL/MOL
REMARK 927      BINDING AFFINITY PREDICTED BY RF-SCORE:    0.00 PKD
ROOT
HETATM    1  C   UNL     1      -5.931  17.982  66.346  1.00  0.00    -0.211 C  
HETATM    2  C   UNL     1      -7.295  18.672  66.378  1.00  0.00    -0.245 C  
HETATM    3  C   UNL     1      -7.283  19.928  65.513  1.00  0.00    -0.305 C  
ENDROOT
BRANCH   2   4
HETATM    4  N   UNL     1      -8.314  17.737  65.903  1.00  0.00    -0.531 NA 
HETATM    5  H   UNL     1      -8.377  17.550  64.901  1.00  0.00     0.000 HD 
BRANCH   4   6
HETATM    6  C   UNL     1      -9.202  17.092  66.760  1.00  0.00    -0.254 A  
HETATM    7  C   UNL     1      -9.877  15.918  66.429  1.00  0.00    -0.302 A  
HETATM    8  C   UNL     1     -10.886  15.397  67.247  1.00  0.00    -0.316 A  
HETATM    9  C   UNL     1     -11.262  16.042  68.427  1.00  0.00    -0.364 A  
HETATM   10  C   UNL     1      -9.570  17.721  67.961  1.00  0.00    -0.291 A  
HETATM   11  C   UNL     1     -10.573  17.197  68.794  1.00  0.00    -0.336 A  
BRANCH   9  12
HETATM   12  N   UNL     1     -12.361  15.520  69.132  1.00  0.00    -0.609 NA 
HETATM   13  H   UNL     1     -13.094  15.128  68.538  1.00  0.00     0.000 HD 
BRANCH  12  14
HETATM   14  C   UNL     1     -12.630  15.443  70.509  1.00  0.00    -0.423 A  
HETATM   15  C   UNL     1     -11.603  15.728  71.422  1.00  0.00    -0.511 A  
HETATM   16  C   UNL     1     -11.848  15.748  72.797  1.00  0.00    -0.584 A  
HETATM   17  C   UNL     1     -13.130  15.494  73.277  1.00  0.00    -0.658 A  
HETATM   18  C   UNL     1     -14.157  15.198  72.383  1.00  0.00    -0.593 A  
HETATM   19  C   UNL     1     -13.906  15.163  71.007  1.00  0.00    -0.423 A  
ENDBRANCH  12  14
ENDBRANCH   9  12
ENDBRANCH   4   6
ENDBRANCH   2   4
TORSDOF 4
ENDMDL
MODEL       20
REMARK 921   NORMALIZED FREE ENERGY PREDICTED BY IDOCK:   -5.39 KCAL/MOL
REMARK 922        TOTAL FREE ENERGY PREDICTED BY IDOCK:   -7.21 KCAL/MOL
REMARK 923 INTER-LIGAND FREE ENERGY PREDICTED BY IDOCK:   -6.62 KCAL/MOL
REMARK 924 INTRA-LIGAND FREE ENERGY PREDICTED BY IDOCK:   -0.58 KCAL/MOL
REMARK 927      BINDING AFFINITY PREDICTED BY RF-SCORE:    0.00 PKD
ROOT
HETATM    1  C   UNL     1     -11.944  10.875  69.866  1.00  0.00    -0.430 C  
HETATM    2  C   UNL     1     -11.085  10.943  68.603  1.00  0.00    -0.252 C  
HETATM    3  C   UNL     1     -10.559   9.561  68.234  1.00  0.00    -0.260 C  
ENDROOT
BRANCH   2   4
HETATM    4  N   UNL     1     -11.886  11.491  67.510  1.00  0.00    -0.631 NA 
HETATM    5  H   UNL     1     -12.672  10.943  67.158  1.00  0.00     0.000 HD 
BRANCH   4   6
HETATM    6  C   UNL     1     -11.621  12.729  66.929  1.00  0.00    -0.366 A  
HETATM    7  C   UNL     1     -11.055  12.881  65.663  1.00  0.00    -0.307 A  
HETATM    8  C   UNL     1     -10.648  14.133  65.188  1.00  0.00    -0.414 A  
HETATM    9  C   UNL     1     -10.787  15.281  65.971  1.00  0.00    -0.330 A  
HETATM   10  C   UNL     1     -11.779  13.892  67.699  1.00  0.00    -0.403 A  
HETATM   11  C   UNL     1     -11.385  15.155  67.223  1.00  0.00    -0.305 A  
BRANCH   9  12
HETATM   12  N   UNL     1     -10.248  16.479  65.469  1.00  0.00    -0.578 NA 
HETATM   13  H   UNL     1     -10.064  16.470  64.465  1.00  0.00     0.000 HD 
BRANCH  12  14
HETATM   14  C   UNL     1      -9.918  17.687  66.107  1.00  0.00    -0.272 A  
HETATM   15  C   UNL     1      -8.766  17.746  66.905  1.00  0.00    -0.262 A  
HETATM   16  C   UNL     1      -8.353  18.947  67.487  1.00  0.00    -0.294 A  
HETATM   17  C   UNL     1      -9.084  20.110  67.267  1.00  0.00    -0.480 A  
HETATM   18  C   UNL     1     -10.238  20.066  66.485  1.00  0.00    -0.598 A  
HETATM   19  C   UNL     1     -10.658  18.858  65.917  1.00  0.00    -0.438 A  
ENDBRANCH  12  14
ENDBRANCH   9  12
ENDBRANCH   4   6
ENDBRANCH   2   4
TORSDOF 4
ENDMDL
MODEL       21
REMARK 921   NORMALIZED FREE ENERGY PREDICTED BY IDOCK:   -5.38 KCAL/MOL
REMARK 922        TOTAL FREE ENERGY PREDICTED BY IDOCK:   -7.19 KCAL/MOL
REMARK 923 INTER-LIGAND FREE ENERGY PREDICTED BY IDOCK:   -6.67 KCAL/MOL
REMARK 924 INTRA-LIGAND FREE ENERGY PREDICTED BY IDOCK:   -0.52 KCAL/MOL
REMARK 927      BINDING AFFINITY PREDICTED BY RF-SCORE:    0.00 PKD
ROOT
HETATM    1  C   UNL     1     -11.937   8.549  72.292  1.00  0.00    -0.454 C  
HETATM    2  C   UNL     1     -13.170   9.215  71.683  1.00  0.00    -0.377 C  
HETATM    3  C   UNL     1     -14.411   8.356  71.902  1.00  0.00    -0.561 C  
ENDROOT
BRANCH   2   4
HETATM    4  N   UNL     1     -13.350  10.533  72.289  1.00  0.00    -0.577 NA 
HETATM    5  H   UNL     1     -13.815  10.594  73.195  1.00  0.00     0.000 HD 
BRANCH   4   6
HETATM    6  C   UNL     1     -12.912  11.708  71.682  1.00  0.00    -0.378 A  
HETATM    7  C   UNL     1     -13.356  12.977  72.050  1.00  0.00    -0.588 A  
HETATM    8  C   UNL     1     -13.024  14.114  71.305  1.00  0.00    -0.426 A  
HETATM    9  C   UNL     1     -12.239  14.018  70.155  1.00  0.00    -0.359 A  
HETATM   10  C   UNL     1     -12.103  11.624  70.538  1.00  0.00    -0.458 A  
HETATM   11  C   UNL     1     -11.754  12.763  69.791  1.00  0.00    -0.352 A  
BRANCH   9  12
HETATM   12  N   UNL     1     -12.048  15.188  69.399  1.00  0.00    -0.485 NA 
HETATM   13  H   UNL     1     -12.689  15.948  69.629  1.00  0.00     0.000 HD 
BRANCH  12  14
HETATM   14  C   UNL     1     -11.129  15.496  68.381  1.00  0.00    -0.315 A  
HETATM   15  C   UNL     1     -11.452  15.186  67.051  1.00  0.00    -0.230 A  
HETATM   16  C   UNL     1     -10.607  15.552  66.001  1.00  0.00    -0.333 A  
HETATM   17  C   UNL     1      -9.431  16.245  66.267  1.00  0.00    -0.347 A  
HETATM   18  C   UNL     1      -9.090  16.551  67.584  1.00  0.00    -0.199 A  
HETATM   19  C   UNL     1      -9.929  16.169  68.636  1.00  0.00    -0.228 A  
ENDBRANCH  12  14
ENDBRANCH   9  12
ENDBRANCH   4   6
ENDBRANCH   2   4
TORSDOF 4
ENDMDL
MODEL       22
REMARK 921   NORMALIZED FREE ENERGY PREDICTED BY IDOCK:   -5.36 KCAL/MOL
REMARK 922        TOTAL FREE ENERGY PREDICTED BY IDOCK:   -7.16 KCAL/MOL
REMARK 923 INTER-LIGAND FREE ENERGY PREDICTED BY IDOCK:   -6.56 KCAL/MOL
REMARK 924 INTRA-LIGAND FREE ENERGY PREDICTED BY IDOCK:   -0.60 KCAL/MOL
REMARK 927      BINDING AFFINITY PREDICTED BY RF-SCORE:    0.00 PKD
ROOT
HETATM    1  C   UNL     1      -9.905  20.299  67.594  1.00  0.00    -0.563 C  
HETATM    2  C   UNL     1      -9.068  19.073  67.958  1.00  0.00    -0.307 C  
HETATM    3  C   UNL     1      -7.779  19.490  68.659  1.00  0.00    -0.390 C  
ENDROOT
BRANCH   2   4
HETATM    4  N   UNL     1      -9.856  18.196  68.821  1.00  0.00    -0.359 NA 
HETATM    5  H   UNL     1      -9.921  18.419  69.815  1.00  0.00     0.000 HD 
BRANCH   4   6
HETATM    6  C   UNL     1     -10.520  17.069  68.345  1.00  0.00    -0.370 A  
HETATM    7  C   UNL     1     -11.194  16.166  69.166  1.00  0.00    -0.336 A  
HETATM    8  C   UNL     1     -11.701  14.960  68.670  1.00  0.00    -0.358 A  
HETATM    9  C   UNL     1     -11.543  14.610  67.327  1.00  0.00    -0.387 A  
HETATM   10  C   UNL     1     -10.388  16.720  66.991  1.00  0.00    -0.300 A  
HETATM   11  C   UNL     1     -10.906  15.516  66.482  1.00  0.00    -0.284 A  
BRANCH   9  12
HETATM   12  N   UNL     1     -11.977  13.332  66.933  1.00  0.00    -0.387 NA 
HETATM   13  H   UNL     1     -12.599  12.874  67.601  1.00  0.00     0.000 HD 
BRANCH  12  14
HETATM   14  C   UNL     1     -11.705  12.574  65.781  1.00  0.00    -0.426 A  
HETATM   15  C   UNL     1     -12.526  12.724  64.654  1.00  0.00    -0.525 A  
HETATM   16  C   UNL     1     -12.241  12.056  63.461  1.00  0.00    -0.653 A  
HETATM   17  C   UNL     1     -11.121  11.234  63.377  1.00  0.00    -0.187 A  
HETATM   18  C   UNL     1     -10.302  11.065  64.492  1.00  0.00    -0.420 A  
HETATM   19  C   UNL     1     -10.598  11.724  65.691  1.00  0.00    -0.314 A  
ENDBRANCH  12  14
ENDBRANCH   9  12
ENDBRANCH   4   6
ENDBRANCH   2   4
TORSDOF 4
ENDMDL
MODEL       23
REMARK 921   NORMALIZED FREE ENERGY PREDICTED BY IDOCK:   -5.35 KCAL/MOL
REMARK 922        TOTAL FREE ENERGY PREDICTED BY IDOCK:   -7.15 KCAL/MOL
REMARK 923 INTER-LIGAND FREE ENERGY PREDICTED BY IDOCK:   -6.68 KCAL/MOL
REMARK 924 INTRA-LIGAND FREE ENERGY PREDICTED BY IDOCK:   -0.47 KCAL/MOL
REMARK 927      BINDING AFFINITY PREDICTED BY RF-SCORE:    0.00 PKD
ROOT
HETATM    1  C   UNL     1     -12.057  12.781  63.342  1.00  0.00    -0.619 C  
HETATM    2  C   UNL     1     -11.176  11.645  63.861  1.00  0.00    -0.397 C  
HETATM    3  C   UNL     1      -9.859  11.590  63.095  1.00  0.00    -0.413 C  
ENDROOT
BRANCH   2   4
HETATM    4  N   UNL     1     -10.927  11.848  65.287  1.00  0.00    -0.298 NA 
HETATM    5  H   UNL     1     -10.713  11.035  65.866  1.00  0.00     0.000 HD 
BRANCH   4   6
HETATM    6  C   UNL     1     -10.968  13.104  65.888  1.00  0.00    -0.271 A  
HETATM    7  C   UNL     1     -10.023  14.102  65.655  1.00  0.00    -0.331 A  
HETATM    8  C   UNL     1     -10.003  15.283  66.405  1.00  0.00    -0.291 A  
HETATM    9  C   UNL     1     -10.931  15.504  67.425  1.00  0.00    -0.306 A  
HETATM   10  C   UNL     1     -11.912  13.345  66.900  1.00  0.00    -0.437 A  
HETATM   11  C   UNL     1     -11.907  14.535  67.649  1.00  0.00    -0.395 A  
BRANCH   9  12
HETATM   12  N   UNL     1     -10.772  16.661  68.208  1.00  0.00    -0.338 NA 
HETATM   13  H   UNL     1     -11.171  16.593  69.146  1.00  0.00     0.000 HD 
BRANCH  12  14
HETATM   14  C   UNL     1     -10.162  17.895  67.928  1.00  0.00    -0.371 A  
HETATM   15  C   UNL     1      -8.860  18.135  68.392  1.00  0.00    -0.305 A  
HETATM   16  C   UNL     1      -8.184  19.313  68.063  1.00  0.00    -0.346 A  
HETATM   17  C   UNL     1      -8.799  20.262  67.254  1.00  0.00    -0.454 A  
HETATM   18  C   UNL     1     -10.097  20.044  66.794  1.00  0.00    -0.607 A  
HETATM   19  C   UNL     1     -10.778  18.871  67.138  1.00  0.00    -0.506 A  
ENDBRANCH  12  14
ENDBRANCH   9  12
ENDBRANCH   4   6
ENDBRANCH   2   4
TORSDOF 4
ENDMDL
MODEL       24
REMARK 921   NORMALIZED FREE ENERGY PREDICTED BY IDOCK:   -5.33 KCAL/MOL
REMARK 922        TOTAL FREE ENERGY PREDICTED BY IDOCK:   -7.13 KCAL/MOL
REMARK 923 INTER-LIGAND FREE ENERGY PREDICTED BY IDOCK:   -6.76 KCAL/MOL
REMARK 924 INTRA-LIGAND FREE ENERGY PREDICTED BY IDOCK:   -0.37 KCAL/MOL
REMARK 927      BINDING AFFINITY PREDICTED BY RF-SCORE:    0.00 PKD
ROOT
HETATM    1  C   UNL     1      -9.818  11.003  63.209  1.00  0.00    -0.406 C  
HETATM    2  C   UNL     1     -10.700  12.241  63.369  1.00  0.00    -0.391 C  
HETATM    3  C   UNL     1     -12.168  11.846  63.482  1.00  0.00    -0.591 C  
ENDROOT
BRANCH   2   4
HETATM    4  N   UNL     1     -10.278  12.977  64.560  1.00  0.00    -0.547 NA 
HETATM    5  H   UNL     1      -9.704  13.812  64.440  1.00  0.00     0.000 HD 
BRANCH   4   6
HETATM    6  C   UNL     1     -10.626  12.585  65.850  1.00  0.00    -0.265 A  
HETATM    7  C   UNL     1     -11.695  13.131  66.560  1.00  0.00    -0.433 A  
HETATM    8  C   UNL     1     -11.907  12.835  67.910  1.00  0.00    -0.392 A  
HETATM    9  C   UNL     1     -11.046  11.982  68.604  1.00  0.00    -0.250 A  
HETATM   10  C   UNL     1      -9.780  11.710  66.549  1.00  0.00    -0.227 A  
HETATM   11  C   UNL     1      -9.993  11.396  67.903  1.00  0.00    -0.190 A  
BRANCH   9  12
HETATM   12  N   UNL     1     -11.258  11.827  69.986  1.00  0.00    -0.488 NA 
HETATM   13  H   UNL     1     -11.062  12.663  70.538  1.00  0.00     0.000 HD 
BRANCH  12  14
HETATM   14  C   UNL     1     -11.692  10.724  70.740  1.00  0.00    -0.298 A  
HETATM   15  C   UNL     1     -10.800   9.668  70.982  1.00  0.00    -0.412 A  
HETATM   16  C   UNL     1     -11.161   8.594  71.799  1.00  0.00    -0.396 A  
HETATM   17  C   UNL     1     -12.419   8.567  72.394  1.00  0.00    -0.416 A  
HETATM   18  C   UNL     1     -13.320   9.603  72.154  1.00  0.00    -0.545 A  
HETATM   19  C   UNL     1     -12.962  10.671  71.323  1.00  0.00    -0.513 A  
ENDBRANCH  12  14
ENDBRANCH   9  12
ENDBRANCH   4   6
ENDBRANCH   2   4
TORSDOF 4
ENDMDL
MODEL       25
REMARK 921   NORMALIZED FREE ENERGY PREDICTED BY IDOCK:   -5.32 KCAL/MOL
REMARK 922        TOTAL FREE ENERGY PREDICTED BY IDOCK:   -7.12 KCAL/MOL
REMARK 923 INTER-LIGAND FREE ENERGY PREDICTED BY IDOCK:   -6.60 KCAL/MOL
REMARK 924 INTRA-LIGAND FREE ENERGY PREDICTED BY IDOCK:   -0.51 KCAL/MOL
REMARK 927      BINDING AFFINITY PREDICTED BY RF-SCORE:    0.00 PKD
ROOT
HETATM    1  C   UNL     1     -12.654  13.880  65.115  1.00  0.00    -0.466 C  
HETATM    2  C   UNL     1     -11.365  14.131  65.897  1.00  0.00    -0.323 C  
HETATM    3  C   UNL     1     -10.508  15.181  65.199  1.00  0.00    -0.437 C  
ENDROOT
BRANCH   2   4
HETATM    4  N   UNL     1     -11.704  14.568  67.250  1.00  0.00    -0.396 NA 
HETATM    5  H   UNL     1     -11.865  15.562  67.416  1.00  0.00     0.000 HD 
BRANCH   4   6
HETATM    6  C   UNL     1     -11.817  13.685  68.321  1.00  0.00    -0.369 A  
HETATM    7  C   UNL     1     -11.841  12.298  68.178  1.00  0.00    -0.372 A  
HETATM    8  C   UNL     1     -12.126  11.455  69.257  1.00  0.00    -0.356 A  
HETATM    9  C   UNL     1     -12.407  11.973  70.523  1.00  0.00    -0.282 A  
HETATM   10  C   UNL     1     -12.076  14.197  69.603  1.00  0.00    -0.400 A  
HETATM   11  C   UNL     1     -12.350  13.355  70.695  1.00  0.00    -0.423 A  
BRANCH   9  12
HETATM   12  N   UNL     1     -12.798  11.067  71.524  1.00  0.00    -0.445 NA 
HETATM   13  H   UNL     1     -13.105  11.507  72.393  1.00  0.00     0.000 HD 
BRANCH  12  14
HETATM   14  C   UNL     1     -12.840   9.663  71.541  1.00  0.00    -0.392 A  
HETATM   15  C   UNL     1     -11.656   8.946  71.773  1.00  0.00    -0.422 A  
HETATM   16  C   UNL     1     -11.668   7.554  71.884  1.00  0.00    -0.320 A  
HETATM   17  C   UNL     1     -12.869   6.860  71.774  1.00  0.00    -0.349 A  
HETATM   18  C   UNL     1     -14.051   7.556  71.532  1.00  0.00    -0.550 A  
HETATM   19  C   UNL     1     -14.036   8.950  71.406  1.00  0.00    -0.299 A  
ENDBRANCH  12  14
ENDBRANCH   9  12
ENDBRANCH   4   6
ENDBRANCH   2   4
TORSDOF 4
ENDMDL
MODEL       26
REMARK 921   NORMALIZED FREE ENERGY PREDICTED BY IDOCK:   -5.29 KCAL/MOL
REMARK 922        TOTAL FREE ENERGY PREDICTED BY IDOCK:   -7.08 KCAL/MOL
REMARK 923 INTER-LIGAND FREE ENERGY PREDICTED BY IDOCK:   -6.57 KCAL/MOL
REMARK 924 INTRA-LIGAND FREE ENERGY PREDICTED BY IDOCK:   -0.50 KCAL/MOL
REMARK 927      BINDING AFFINITY PREDICTED BY RF-SCORE:    0.00 PKD
ROOT
HETATM    1  C   UNL     1      -9.975  11.478  63.082  1.00  0.00    -0.404 C  
HETATM    2  C   UNL     1     -10.747  11.157  64.362  1.00  0.00    -0.318 C  
HETATM    3  C   UNL     1      -9.790  10.942  65.529  1.00  0.00    -0.298 C  
ENDROOT
BRANCH   2   4
HETATM    4  N   UNL     1     -11.666  12.257  64.654  1.00  0.00    -0.354 NA 
HETATM    5  H   UNL     1     -12.570  12.276  64.182  1.00  0.00     0.000 HD 
BRANCH   4   6
HETATM    6  C   UNL     1     -11.357  13.279  65.548  1.00  0.00    -0.294 A  
HETATM    7  C   UNL     1     -11.887  13.364  66.835  1.00  0.00    -0.453 A  
HETATM    8  C   UNL     1     -11.687  14.493  67.637  1.00  0.00    -0.410 A  
HETATM    9  C   UNL     1     -10.950  15.585  67.174  1.00  0.00    -0.295 A  
HETATM   10  C   UNL     1     -10.597  14.372  65.100  1.00  0.00    -0.429 A  
HETATM   11  C   UNL     1     -10.380  15.504  65.905  1.00  0.00    -0.365 A  
BRANCH   9  12
HETATM   12  N   UNL     1     -10.893  16.726  67.994  1.00  0.00    -0.358 NA 
HETATM   13  H   UNL     1     -11.456  16.662  68.844  1.00  0.00     0.000 HD 
BRANCH  12  14
HETATM   14  C   UNL     1     -10.198  17.938  67.851  1.00  0.00    -0.371 A  
HETATM   15  C   UNL     1      -8.922  18.067  68.419  1.00  0.00    -0.286 A  
HETATM   16  C   UNL     1      -8.161  19.222  68.227  1.00  0.00    -0.372 A  
HETATM   17  C   UNL     1      -8.664  20.263  67.453  1.00  0.00    -0.428 A  
HETATM   18  C   UNL     1      -9.935  20.156  66.891  1.00  0.00    -0.600 A  
HETATM   19  C   UNL     1     -10.702  19.004  67.097  1.00  0.00    -0.541 A  
ENDBRANCH  12  14
ENDBRANCH   9  12
ENDBRANCH   4   6
ENDBRANCH   2   4
TORSDOF 4
ENDMDL
MODEL       27
REMARK 921   NORMALIZED FREE ENERGY PREDICTED BY IDOCK:   -5.28 KCAL/MOL
REMARK 922        TOTAL FREE ENERGY PREDICTED BY IDOCK:   -7.07 KCAL/MOL
REMARK 923 INTER-LIGAND FREE ENERGY PREDICTED BY IDOCK:   -6.50 KCAL/MOL
REMARK 924 INTRA-LIGAND FREE ENERGY PREDICTED BY IDOCK:   -0.56 KCAL/MOL
REMARK 927      BINDING AFFINITY PREDICTED BY RF-SCORE:    0.00 PKD
ROOT
HETATM    1  C   UNL     1     -10.052  19.762  68.609  1.00  0.00    -0.546 C  
HETATM    2  C   UNL     1     -10.576  19.001  67.392  1.00  0.00    -0.474 C  
HETATM    3  C   UNL     1     -10.421  19.836  66.126  1.00  0.00    -0.613 C  
ENDROOT
BRANCH   2   4
HETATM    4  N   UNL     1      -9.842  17.743  67.263  1.00  0.00    -0.301 NA 
HETATM    5  H   UNL     1      -8.826  17.758  67.352  1.00  0.00     0.000 HD 
BRANCH   4   6
HETATM    6  C   UNL     1     -10.473  16.524  67.023  1.00  0.00    -0.289 A  
HETATM    7  C   UNL     1     -11.152  15.801  68.004  1.00  0.00    -0.337 A  
HETATM    8  C   UNL     1     -11.623  14.506  67.765  1.00  0.00    -0.390 A  
HETATM    9  C   UNL     1     -11.422  13.881  66.532  1.00  0.00    -0.348 A  
HETATM   10  C   UNL     1     -10.296  15.898  65.779  1.00  0.00    -0.396 A  
HETATM   11  C   UNL     1     -10.778  14.601  65.527  1.00  0.00    -0.360 A  
BRANCH   9  12
HETATM   12  N   UNL     1     -11.821  12.538  66.411  1.00  0.00    -0.516 NA 
HETATM   13  H   UNL     1     -12.827  12.407  66.300  1.00  0.00     0.000 HD 
BRANCH  12  14
HETATM   14  C   UNL     1     -11.078  11.345  66.415  1.00  0.00    -0.240 A  
HETATM   15  C   UNL     1     -11.109  10.525  67.553  1.00  0.00    -0.358 A  
HETATM   16  C   UNL     1     -10.457   9.290  67.568  1.00  0.00    -0.338 A  
HETATM   17  C   UNL     1      -9.772   8.854  66.438  1.00  0.00    -0.332 A  
HETATM   18  C   UNL     1      -9.722   9.663  65.304  1.00  0.00    -0.330 A  
HETATM   19  C   UNL     1     -10.363  10.906  65.296  1.00  0.00    -0.334 A  
ENDBRANCH  12  14
ENDBRANCH   9  12
ENDBRANCH   4   6
ENDBRANCH   2   4
TORSDOF 4
ENDMDL
MODEL       28
REMARK 921   NORMALIZED FREE ENERGY PREDICTED BY IDOCK:   -5.27 KCAL/MOL
REMARK 922        TOTAL FREE ENERGY PREDICTED BY IDOCK:   -7.05 KCAL/MOL
REMARK 923 INTER-LIGAND FREE ENERGY PREDICTED BY IDOCK:   -6.47 KCAL/MOL
REMARK 924 INTRA-LIGAND FREE ENERGY PREDICTED BY IDOCK:   -0.59 KCAL/MOL
REMARK 927      BINDING AFFINITY PREDICTED BY RF-SCORE:    0.00 PKD
ROOT
HETATM    1  C   UNL     1     -11.363   7.794  72.539  1.00  0.00    -0.429 C  
HETATM    2  C   UNL     1     -12.426   8.386  71.615  1.00  0.00    -0.328 C  
HETATM    3  C   UNL     1     -13.674   7.510  71.597  1.00  0.00    -0.465 C  
ENDROOT
BRANCH   2   4
HETATM    4  N   UNL     1     -12.758   9.734  72.072  1.00  0.00    -0.389 NA 
HETATM    5  H   UNL     1     -13.200   9.846  72.985  1.00  0.00     0.000 HD 
BRANCH   4   6
HETATM    6  C   UNL     1     -12.498  10.873  71.313  1.00  0.00    -0.388 A  
HETATM    7  C   UNL     1     -12.794  12.167  71.738  1.00  0.00    -0.367 A  
HETATM    8  C   UNL     1     -12.676  13.266  70.880  1.00  0.00    -0.332 A  
HETATM    9  C   UNL     1     -12.261  13.105  69.556  1.00  0.00    -0.158 A  
HETATM   10  C   UNL     1     -12.059  10.723  69.988  1.00  0.00    -0.423 A  
HETATM   11  C   UNL     1     -11.924  11.824  69.123  1.00  0.00    -0.356 A  
BRANCH   9  12
HETATM   12  N   UNL     1     -12.280  14.240  68.726  1.00  0.00    -0.562 NA 
HETATM   13  H   UNL     1     -12.762  15.046  69.126  1.00  0.00     0.000 HD 
BRANCH  12  14
HETATM   14  C   UNL     1     -11.751  14.461  67.443  1.00  0.00    -0.397 A  
HETATM   15  C   UNL     1     -12.531  14.148  66.320  1.00  0.00    -0.395 A  
HETATM   16  C   UNL     1     -12.079  14.432  65.029  1.00  0.00    -0.417 A  
HETATM   17  C   UNL     1     -10.843  15.043  64.845  1.00  0.00    -0.430 A  
HETATM   18  C   UNL     1     -10.051  15.350  65.951  1.00  0.00    -0.370 A  
HETATM   19  C   UNL     1     -10.499  15.051  67.243  1.00  0.00    -0.265 A  
ENDBRANCH  12  14
ENDBRANCH   9  12
ENDBRANCH   4   6
ENDBRANCH   2   4
TORSDOF 4
ENDMDL
MODEL       29
REMARK 921   NORMALIZED FREE ENERGY PREDICTED BY IDOCK:   -5.26 KCAL/MOL
REMARK 922        TOTAL FREE ENERGY PREDICTED BY IDOCK:   -7.04 KCAL/MOL
REMARK 923 INTER-LIGAND FREE ENERGY PREDICTED BY IDOCK:   -6.44 KCAL/MOL
REMARK 924 INTRA-LIGAND FREE ENERGY PREDICTED BY IDOCK:   -0.60 KCAL/MOL
REMARK 927      BINDING AFFINITY PREDICTED BY RF-SCORE:    0.00 PKD
ROOT
HETATM    1  C   UNL     1      -9.001  18.048  68.580  1.00  0.00    -0.297 C  
HETATM    2  C   UNL     1     -10.400  17.933  67.976  1.00  0.00    -0.387 C  
HETATM    3  C   UNL     1     -10.786  19.222  67.260  1.00  0.00    -0.594 C  
ENDROOT
BRANCH   2   4
HETATM    4  N   UNL     1     -10.428  16.806  67.045  1.00  0.00    -0.308 NA 
HETATM    5  H   UNL     1     -10.024  16.930  66.116  1.00  0.00     0.000 HD 
BRANCH   4   6
HETATM    6  C   UNL     1     -10.983  15.572  67.373  1.00  0.00    -0.306 A  
HETATM    7  C   UNL     1     -11.243  15.166  68.682  1.00  0.00    -0.295 A  
HETATM    8  C   UNL     1     -11.640  13.858  68.979  1.00  0.00    -0.351 A  
HETATM    9  C   UNL     1     -11.783  12.902  67.971  1.00  0.00    -0.356 A  
HETATM   10  C   UNL     1     -11.153  14.610  66.364  1.00  0.00    -0.334 A  
HETATM   11  C   UNL     1     -11.564  13.297  66.653  1.00  0.00    -0.408 A  
BRANCH   9  12
HETATM   12  N   UNL     1     -12.070  11.582  68.363  1.00  0.00    -0.560 NA 
HETATM   13  H   UNL     1     -12.748  11.104  67.767  1.00  0.00     0.000 HD 
BRANCH  12  14
HETATM   14  C   UNL     1     -11.590  10.805  69.431  1.00  0.00    -0.308 A  
HETATM   15  C   UNL     1     -12.438  10.531  70.514  1.00  0.00    -0.433 A  
HETATM   16  C   UNL     1     -12.031   9.692  71.554  1.00  0.00    -0.485 A  
HETATM   17  C   UNL     1     -10.769   9.107  71.518  1.00  0.00    -0.437 A  
HETATM   18  C   UNL     1      -9.910   9.379  70.455  1.00  0.00    -0.331 A  
HETATM   19  C   UNL     1     -10.314  10.231  69.422  1.00  0.00    -0.256 A  
ENDBRANCH  12  14
ENDBRANCH   9  12
ENDBRANCH   4   6
ENDBRANCH   2   4
TORSDOF 4
ENDMDL
MODEL       30
REMARK 921   NORMALIZED FREE ENERGY PREDICTED BY IDOCK:   -5.24 KCAL/MOL
REMARK 922        TOTAL FREE ENERGY PREDICTED BY IDOCK:   -7.01 KCAL/MOL
REMARK 923 INTER-LIGAND FREE ENERGY PREDICTED BY IDOCK:   -6.63 KCAL/MOL
REMARK 924 INTRA-LIGAND FREE ENERGY PREDICTED BY IDOCK:   -0.39 KCAL/MOL
REMARK 927      BINDING AFFINITY PREDICTED BY RF-SCORE:    0.00 PKD
ROOT
HETATM    1  C   UNL     1     -10.273   9.693  66.214  1.00  0.00    -0.286 C  
HETATM    2  C   UNL     1      -9.801  10.631  65.103  1.00  0.00    -0.284 C  
HETATM    3  C   UNL     1      -9.276   9.836  63.913  1.00  0.00    -0.248 C  
ENDROOT
BRANCH   2   4
HETATM    4  N   UNL     1     -10.916  11.483  64.693  1.00  0.00    -0.310 NA 
HETATM    5  H   UNL     1     -11.698  11.058  64.195  1.00  0.00     0.000 HD 
BRANCH   4   6
HETATM    6  C   UNL     1     -10.953  12.851  64.953  1.00  0.00    -0.301 A  
HETATM    7  C   UNL     1     -11.874  13.722  64.372  1.00  0.00    -0.458 A  
HETATM    8  C   UNL     1     -11.771  15.108  64.525  1.00  0.00    -0.331 A  
HETATM    9  C   UNL     1     -10.732  15.676  65.266  1.00  0.00    -0.425 A  
HETATM   10  C   UNL     1      -9.925  13.429  65.715  1.00  0.00    -0.264 A  
HETATM   11  C   UNL     1      -9.823  14.821  65.886  1.00  0.00    -0.363 A  
BRANCH   9  12
HETATM   12  N   UNL     1     -10.631  17.078  65.276  1.00  0.00    -0.655 NA 
HETATM   13  H   UNL     1     -10.719  17.513  64.356  1.00  0.00     0.000 HD 
BRANCH  12  14
HETATM   14  C   UNL     1     -10.431  17.987  66.328  1.00  0.00    -0.335 A  
HETATM   15  C   UNL     1     -10.383  19.360  66.046  1.00  0.00    -0.584 A  
HETATM   16  C   UNL     1     -10.273  20.303  67.071  1.00  0.00    -0.503 A  
HETATM   17  C   UNL     1     -10.220  19.882  68.397  1.00  0.00    -0.557 A  
HETATM   18  C   UNL     1     -10.254  18.521  68.693  1.00  0.00    -0.363 A  
HETATM   19  C   UNL     1     -10.349  17.578  67.663  1.00  0.00    -0.360 A  
ENDBRANCH  12  14
ENDBRANCH   9  12
ENDBRANCH   4   6
ENDBRANCH   2   4
TORSDOF 4
ENDMDL
MODEL       31
REMARK 921   NORMALIZED FREE ENERGY PREDICTED BY IDOCK:   -5.24 KCAL/MOL
REMARK 922        TOTAL FREE ENERGY PREDICTED BY IDOCK:   -7.01 KCAL/MOL
REMARK 923 INTER-LIGAND FREE ENERGY PREDICTED BY IDOCK:   -6.43 KCAL/MOL
REMARK 924 INTRA-LIGAND FREE ENERGY PREDICTED BY IDOCK:   -0.58 KCAL/MOL
REMARK 927      BINDING AFFINITY PREDICTED BY RF-SCORE:    0.00 PKD
ROOT
HETATM    1  C   UNL     1     -12.246  14.784  72.989  1.00  0.00    -0.348 C  
HETATM    2  C   UNL     1     -13.373  14.110  72.207  1.00  0.00    -0.461 C  
HETATM    3  C   UNL     1     -14.349  15.148  71.665  1.00  0.00    -0.685 C  
ENDROOT
BRANCH   2   4
HETATM    4  N   UNL     1     -12.795  13.334  71.110  1.00  0.00    -0.315 NA 
HETATM    5  H   UNL     1     -12.473  13.830  70.278  1.00  0.00     0.000 HD 
BRANCH   4   6
HETATM    6  C   UNL     1     -12.666  11.948  71.154  1.00  0.00    -0.284 A  
HETATM    7  C   UNL     1     -11.865  11.220  70.275  1.00  0.00    -0.446 A  
HETATM    8  C   UNL     1     -11.896   9.822  70.242  1.00  0.00    -0.208 A  
HETATM    9  C   UNL     1     -12.740   9.099  71.088  1.00  0.00    -0.213 A  
HETATM   10  C   UNL     1     -13.494  11.213  72.017  1.00  0.00    -0.280 A  
HETATM   11  C   UNL     1     -13.521   9.807  72.000  1.00  0.00    -0.498 A  
BRANCH   9  12
HETATM   12  N   UNL     1     -12.798   7.705  70.913  1.00  0.00    -0.557 NA 
HETATM   13  H   UNL     1     -13.737   7.340  70.750  1.00  0.00     0.000 HD 
BRANCH  12  14
HETATM   14  C   UNL     1     -11.791   6.726  70.923  1.00  0.00    -0.385 A  
HETATM   15  C   UNL     1     -11.401   6.158  72.146  1.00  0.00    -0.347 A  
HETATM   16  C   UNL     1     -10.467   5.121  72.193  1.00  0.00    -0.281 A  
HETATM   17  C   UNL     1      -9.916   4.630  71.013  1.00  0.00    -0.270 A  
HETATM   18  C   UNL     1     -10.284   5.191  69.791  1.00  0.00    -0.357 A  
HETATM   19  C   UNL     1     -11.209   6.240  69.747  1.00  0.00    -0.499 A  
ENDBRANCH  12  14
ENDBRANCH   9  12
ENDBRANCH   4   6
ENDBRANCH   2   4
TORSDOF 4
ENDMDL
MODEL       32
REMARK 921   NORMALIZED FREE ENERGY PREDICTED BY IDOCK:   -5.22 KCAL/MOL
REMARK 922        TOTAL FREE ENERGY PREDICTED BY IDOCK:   -7.00 KCAL/MOL
REMARK 923 INTER-LIGAND FREE ENERGY PREDICTED BY IDOCK:   -6.41 KCAL/MOL
REMARK 924 INTRA-LIGAND FREE ENERGY PREDICTED BY IDOCK:   -0.59 KCAL/MOL
REMARK 927      BINDING AFFINITY PREDICTED BY RF-SCORE:    0.00 PKD
ROOT
HETATM    1  C   UNL     1     -10.533  15.812  65.793  1.00  0.00    -0.384 C  
HETATM    2  C   UNL     1     -10.582  15.798  67.321  1.00  0.00    -0.313 C  
HETATM    3  C   UNL     1     -10.532  17.218  67.875  1.00  0.00    -0.382 C  
ENDROOT
BRANCH   2   4
HETATM    4  N   UNL     1     -11.806  15.127  67.754  1.00  0.00    -0.418 NA 
HETATM    5  H   UNL     1     -12.702  15.582  67.576  1.00  0.00     0.000 HD 
BRANCH   4   6
HETATM    6  C   UNL     1     -11.800  13.892  68.398  1.00  0.00    -0.374 A  
HETATM    7  C   UNL     1     -11.672  12.674  67.731  1.00  0.00    -0.412 A  
HETATM    8  C   UNL     1     -11.842  11.454  68.393  1.00  0.00    -0.344 A  
HETATM    9  C   UNL     1     -12.156  11.409  69.754  1.00  0.00    -0.320 A  
HETATM   10  C   UNL     1     -12.092  13.837  69.771  1.00  0.00    -0.400 A  
HETATM   11  C   UNL     1     -12.251  12.615  70.447  1.00  0.00    -0.368 A  
BRANCH   9  12
HETATM   12  N   UNL     1     -12.426  10.150  70.318  1.00  0.00    -0.509 NA 
HETATM   13  H   UNL     1     -13.349   9.777  70.094  1.00  0.00     0.000 HD 
BRANCH  12  14
HETATM   14  C   UNL     1     -11.648   9.314  71.137  1.00  0.00    -0.327 A  
HETATM   15  C   UNL     1     -10.250   9.359  71.028  1.00  0.00    -0.369 A  
HETATM   16  C   UNL     1      -9.437   8.610  71.882  1.00  0.00    -0.369 A  
HETATM   17  C   UNL     1     -10.013   7.812  72.865  1.00  0.00    -0.341 A  
HETATM   18  C   UNL     1     -11.401   7.747  72.978  1.00  0.00    -0.331 A  
HETATM   19  C   UNL     1     -12.214   8.486  72.112  1.00  0.00    -0.446 A  
ENDBRANCH  12  14
ENDBRANCH   9  12
ENDBRANCH   4   6
ENDBRANCH   2   4
TORSDOF 4
ENDMDL
MODEL       33
REMARK 921   NORMALIZED FREE ENERGY PREDICTED BY IDOCK:   -5.22 KCAL/MOL
REMARK 922        TOTAL FREE ENERGY PREDICTED BY IDOCK:   -6.99 KCAL/MOL
REMARK 923 INTER-LIGAND FREE ENERGY PREDICTED BY IDOCK:   -6.37 KCAL/MOL
REMARK 924 INTRA-LIGAND FREE ENERGY PREDICTED BY IDOCK:   -0.62 KCAL/MOL
REMARK 927      BINDING AFFINITY PREDICTED BY RF-SCORE:    0.00 PKD
ROOT
HETATM    1  C   UNL     1      -8.370  17.529  66.336  1.00  0.00    -0.297 C  
HETATM    2  C   UNL     1      -9.897  17.474  66.332  1.00  0.00    -0.309 C  
HETATM    3  C   UNL     1     -10.484  18.795  65.847  1.00  0.00    -0.424 C  
ENDROOT
BRANCH   2   4
HETATM    4  N   UNL     1     -10.334  16.376  65.470  1.00  0.00    -0.544 NA 
HETATM    5  H   UNL     1     -10.224  16.475  64.461  1.00  0.00     0.000 HD 
BRANCH   4   6
HETATM    6  C   UNL     1     -10.893  15.203  65.970  1.00  0.00    -0.335 A  
HETATM    7  C   UNL     1     -11.295  15.043  67.296  1.00  0.00    -0.337 A  
HETATM    8  C   UNL     1     -11.691  13.799  67.797  1.00  0.00    -0.393 A  
HETATM    9  C   UNL     1     -11.692  12.662  66.986  1.00  0.00    -0.369 A  
HETATM   10  C   UNL     1     -10.920  14.059  65.156  1.00  0.00    -0.357 A  
HETATM   11  C   UNL     1     -11.330  12.808  65.648  1.00  0.00    -0.354 A  
BRANCH   9  12
HETATM   12  N   UNL     1     -11.991  11.430  67.594  1.00  0.00    -0.626 NA 
HETATM   13  H   UNL     1     -12.661  10.858  67.078  1.00  0.00     0.000 HD 
BRANCH  12  14
HETATM   14  C   UNL     1     -11.530  10.847  68.787  1.00  0.00    -0.308 A  
HETATM   15  C   UNL     1     -12.380  10.813  69.903  1.00  0.00    -0.340 A  
HETATM   16  C   UNL     1     -11.995  10.167  71.081  1.00  0.00    -0.480 A  
HETATM   17  C   UNL     1     -10.757   9.537  71.153  1.00  0.00    -0.408 A  
HETATM   18  C   UNL     1      -9.896   9.573  70.057  1.00  0.00    -0.269 A  
HETATM   19  C   UNL     1     -10.277  10.233  68.883  1.00  0.00    -0.220 A  
ENDBRANCH  12  14
ENDBRANCH   9  12
ENDBRANCH   4   6
ENDBRANCH   2   4
TORSDOF 4
ENDMDL
MODEL       34
REMARK 921   NORMALIZED FREE ENERGY PREDICTED BY IDOCK:   -5.21 KCAL/MOL
REMARK 922        TOTAL FREE ENERGY PREDICTED BY IDOCK:   -6.98 KCAL/MOL
REMARK 923 INTER-LIGAND FREE ENERGY PREDICTED BY IDOCK:   -6.36 KCAL/MOL
REMARK 924 INTRA-LIGAND FREE ENERGY PREDICTED BY IDOCK:   -0.62 KCAL/MOL
REMARK 927      BINDING AFFINITY PREDICTED BY RF-SCORE:    0.00 PKD
ROOT
HETATM    1  C   UNL     1     -10.632  18.217  67.706  1.00  0.00    -0.415 C  
HETATM    2  C   UNL     1     -10.419  16.723  67.944  1.00  0.00    -0.335 C  
HETATM    3  C   UNL     1      -9.179  16.484  68.798  1.00  0.00    -0.252 C  
ENDROOT
BRANCH   2   4
HETATM    4  N   UNL     1     -11.602  16.170  68.601  1.00  0.00    -0.348 NA 
HETATM    5  H   UNL     1     -12.307  16.815  68.962  1.00  0.00     0.000 HD 
BRANCH   4   6
HETATM    6  C   UNL     1     -11.809  14.802  68.755  1.00  0.00    -0.296 A  
HETATM    7  C   UNL     1     -11.977  14.182  69.993  1.00  0.00    -0.404 A  
HETATM    8  C   UNL     1     -12.010  12.789  70.117  1.00  0.00    -0.371 A  
HETATM    9  C   UNL     1     -11.867  11.962  69.001  1.00  0.00    -0.308 A  
HETATM   10  C   UNL     1     -11.690  13.963  67.635  1.00  0.00    -0.403 A  
HETATM   11  C   UNL     1     -11.735  12.562  67.750  1.00  0.00    -0.419 A  
BRANCH   9  12
HETATM   12  N   UNL     1     -11.794  10.576  69.223  1.00  0.00    -0.493 NA 
HETATM   13  H   UNL     1     -11.960  10.007  68.392  1.00  0.00     0.000 HD 
BRANCH  12  14
HETATM   14  C   UNL     1     -11.532   9.835  70.389  1.00  0.00    -0.280 A  
HETATM   15  C   UNL     1     -12.603   9.444  71.206  1.00  0.00    -0.403 A  
HETATM   16  C   UNL     1     -12.397   8.635  72.325  1.00  0.00    -0.449 A  
HETATM   17  C   UNL     1     -11.114   8.196  72.636  1.00  0.00    -0.450 A  
HETATM   18  C   UNL     1     -10.037   8.585  71.841  1.00  0.00    -0.367 A  
HETATM   19  C   UNL     1     -10.244   9.409  70.729  1.00  0.00    -0.368 A  
ENDBRANCH  12  14
ENDBRANCH   9  12
ENDBRANCH   4   6
ENDBRANCH   2   4
TORSDOF 4
ENDMDL
MODEL       35
REMARK 921   NORMALIZED FREE ENERGY PREDICTED BY IDOCK:   -5.20 KCAL/MOL
REMARK 922        TOTAL FREE ENERGY PREDICTED BY IDOCK:   -6.96 KCAL/MOL
REMARK 923 INTER-LIGAND FREE ENERGY PREDICTED BY IDOCK:   -6.64 KCAL/MOL
REMARK 924 INTRA-LIGAND FREE ENERGY PREDICTED BY IDOCK:   -0.33 KCAL/MOL
REMARK 927      BINDING AFFINITY PREDICTED BY RF-SCORE:    0.00 PKD
ROOT
HETATM    1  C   UNL     1     -11.809   8.389  72.624  1.00  0.00    -0.360 C  
HETATM    2  C   UNL     1     -12.916   8.887  71.695  1.00  0.00    -0.354 C  
HETATM    3  C   UNL     1     -14.161   8.017  71.827  1.00  0.00    -0.550 C  
ENDROOT
BRANCH   2   4
HETATM    4  N   UNL     1     -13.229  10.276  72.027  1.00  0.00    -0.492 NA 
HETATM    5  H   UNL     1     -13.705  10.472  72.908  1.00  0.00     0.000 HD 
BRANCH   4   6
HETATM    6  C   UNL     1     -12.905  11.341  71.191  1.00  0.00    -0.352 A  
HETATM    7  C   UNL     1     -12.196  11.198  69.998  1.00  0.00    -0.402 A  
HETATM    8  C   UNL     1     -11.743  12.308  69.277  1.00  0.00    -0.388 A  
HETATM    9  C   UNL     1     -11.980  13.608  69.730  1.00  0.00    -0.341 A  
HETATM   10  C   UNL     1     -13.158  12.652  71.626  1.00  0.00    -0.421 A  
HETATM   11  C   UNL     1     -12.719  13.772  70.900  1.00  0.00    -0.394 A  
BRANCH   9  12
HETATM   12  N   UNL     1     -11.393  14.663  69.011  1.00  0.00    -0.261 NA 
HETATM   13  H   UNL     1     -10.941  15.370  69.593  1.00  0.00     0.000 HD 
BRANCH  12  14
HETATM   14  C   UNL     1     -11.317  14.918  67.631  1.00  0.00    -0.337 A  
HETATM   15  C   UNL     1     -10.381  15.849  67.157  1.00  0.00    -0.300 A  
HETATM   16  C   UNL     1     -10.213  16.069  65.788  1.00  0.00    -0.401 A  
HETATM   17  C   UNL     1     -10.974  15.350  64.872  1.00  0.00    -0.453 A  
HETATM   18  C   UNL     1     -11.917  14.429  65.327  1.00  0.00    -0.382 A  
HETATM   19  C   UNL     1     -12.095  14.222  66.699  1.00  0.00    -0.448 A  
ENDBRANCH  12  14
ENDBRANCH   9  12
ENDBRANCH   4   6
ENDBRANCH   2   4
TORSDOF 4
ENDMDL
MODEL       36
REMARK 921   NORMALIZED FREE ENERGY PREDICTED BY IDOCK:   -5.16 KCAL/MOL
REMARK 922        TOTAL FREE ENERGY PREDICTED BY IDOCK:   -6.92 KCAL/MOL
REMARK 923 INTER-LIGAND FREE ENERGY PREDICTED BY IDOCK:   -6.34 KCAL/MOL
REMARK 924 INTRA-LIGAND FREE ENERGY PREDICTED BY IDOCK:   -0.58 KCAL/MOL
REMARK 927      BINDING AFFINITY PREDICTED BY RF-SCORE:    0.00 PKD
ROOT
HETATM    1  C   UNL     1     -12.348  10.159  70.840  1.00  0.00    -0.461 C  
HETATM    2  C   UNL     1     -11.354  10.503  69.732  1.00  0.00    -0.300 C  
HETATM    3  C   UNL     1     -10.563   9.267  69.315  1.00  0.00    -0.234 C  
ENDROOT
BRANCH   2   4
HETATM    4  N   UNL     1     -12.083  11.048  68.588  1.00  0.00    -0.748 NA 
HETATM    5  H   UNL     1     -12.771  10.457  68.120  1.00  0.00     0.000 HD 
BRANCH   4   6
HETATM    6  C   UNL     1     -11.879  12.341  68.112  1.00  0.00    -0.311 A  
HETATM    7  C   UNL     1     -11.806  12.661  66.756  1.00  0.00    -0.440 A  
HETATM    8  C   UNL     1     -11.430  13.937  66.323  1.00  0.00    -0.347 A  
HETATM    9  C   UNL     1     -11.105  14.942  67.237  1.00  0.00    -0.336 A  
HETATM   10  C   UNL     1     -11.574  13.364  69.024  1.00  0.00    -0.358 A  
HETATM   11  C   UNL     1     -11.209  14.653  68.597  1.00  0.00    -0.293 A  
BRANCH   9  12
HETATM   12  N   UNL     1     -10.625  16.159  66.722  1.00  0.00    -0.302 NA 
HETATM   13  H   UNL     1     -10.694  16.242  65.707  1.00  0.00     0.000 HD 
BRANCH  12  14
HETATM   14  C   UNL     1     -10.069  17.281  67.359  1.00  0.00    -0.307 A  
HETATM   15  C   UNL     1      -8.750  17.214  67.833  1.00  0.00    -0.222 A  
HETATM   16  C   UNL     1      -8.128  18.332  68.393  1.00  0.00    -0.322 A  
HETATM   17  C   UNL     1      -8.816  19.538  68.477  1.00  0.00    -0.389 A  
HETATM   18  C   UNL     1     -10.131  19.618  68.022  1.00  0.00    -0.555 A  
HETATM   19  C   UNL     1     -10.757  18.493  67.475  1.00  0.00    -0.419 A  
ENDBRANCH  12  14
ENDBRANCH   9  12
ENDBRANCH   4   6
ENDBRANCH   2   4
TORSDOF 4
ENDMDL
MODEL       37
REMARK 921   NORMALIZED FREE ENERGY PREDICTED BY IDOCK:   -5.16 KCAL/MOL
REMARK 922        TOTAL FREE ENERGY PREDICTED BY IDOCK:   -6.91 KCAL/MOL
REMARK 923 INTER-LIGAND FREE ENERGY PREDICTED BY IDOCK:   -6.30 KCAL/MOL
REMARK 924 INTRA-LIGAND FREE ENERGY PREDICTED BY IDOCK:   -0.62 KCAL/MOL
REMARK 927      BINDING AFFINITY PREDICTED BY RF-SCORE:    0.00 PKD
ROOT
HETATM    1  C   UNL     1     -12.038   6.274  72.016  1.00  0.00    -0.321 C  
HETATM    2  C   UNL     1     -12.864   7.434  71.461  1.00  0.00    -0.375 C  
HETATM    3  C   UNL     1     -14.341   7.251  71.795  1.00  0.00    -0.560 C  
ENDROOT
BRANCH   2   4
HETATM    4  N   UNL     1     -12.367   8.687  72.026  1.00  0.00    -0.346 NA 
HETATM    5  H   UNL     1     -12.383   8.807  73.039  1.00  0.00     0.000 HD 
BRANCH   4   6
HETATM    6  C   UNL     1     -11.873   9.724  71.238  1.00  0.00    -0.399 A  
HETATM    7  C   UNL     1     -12.555  10.921  71.022  1.00  0.00    -0.517 A  
HETATM    8  C   UNL     1     -12.106  11.863  70.090  1.00  0.00    -0.382 A  
HETATM    9  C   UNL     1     -10.955  11.636  69.333  1.00  0.00    -0.152 A  
HETATM   10  C   UNL     1     -10.704   9.515  70.489  1.00  0.00    -0.359 A  
HETATM   11  C   UNL     1     -10.238  10.463  69.561  1.00  0.00    -0.258 A  
BRANCH   9  12
HETATM   12  N   UNL     1     -10.635  12.576  68.338  1.00  0.00    -0.236 NA 
HETATM   13  H   UNL     1      -9.910  13.243  68.605  1.00  0.00     0.000 HD 
BRANCH  12  14
HETATM   14  C   UNL     1     -11.139  12.761  67.039  1.00  0.00    -0.278 A  
HETATM   15  C   UNL     1     -10.630  11.979  65.991  1.00  0.00    -0.303 A  
HETATM   16  C   UNL     1     -11.161  12.068  64.702  1.00  0.00    -0.380 A  
HETATM   17  C   UNL     1     -12.220  12.934  64.447  1.00  0.00    -0.484 A  
HETATM   18  C   UNL     1     -12.729  13.726  65.475  1.00  0.00    -0.530 A  
HETATM   19  C   UNL     1     -12.185  13.647  66.762  1.00  0.00    -0.416 A  
ENDBRANCH  12  14
ENDBRANCH   9  12
ENDBRANCH   4   6
ENDBRANCH   2   4
TORSDOF 4
ENDMDL
MODEL       38
REMARK 921   NORMALIZED FREE ENERGY PREDICTED BY IDOCK:   -5.16 KCAL/MOL
REMARK 922        TOTAL FREE ENERGY PREDICTED BY IDOCK:   -6.91 KCAL/MOL
REMARK 923 INTER-LIGAND FREE ENERGY PREDICTED BY IDOCK:   -6.42 KCAL/MOL
REMARK 924 INTRA-LIGAND FREE ENERGY PREDICTED BY IDOCK:   -0.49 KCAL/MOL
REMARK 927      BINDING AFFINITY PREDICTED BY RF-SCORE:    0.00 PKD
ROOT
HETATM    1  C   UNL     1     -10.035   6.772  74.189  1.00  0.00    -0.373 C  
HETATM    2  C   UNL     1     -10.861   6.501  72.932  1.00  0.00    -0.258 C  
HETATM    3  C   UNL     1     -11.384   5.068  72.929  1.00  0.00    -0.329 C  
ENDROOT
BRANCH   2   4
HETATM    4  N   UNL     1     -11.974   7.448  72.879  1.00  0.00    -0.549 NA 
HETATM    5  H   UNL     1     -12.808   7.253  73.433  1.00  0.00     0.000 HD 
BRANCH   4   6
HETATM    6  C   UNL     1     -11.942   8.604  72.103  1.00  0.00    -0.379 A  
HETATM    7  C   UNL     1     -13.057   9.411  71.876  1.00  0.00    -0.505 A  
HETATM    8  C   UNL     1     -13.024  10.464  70.955  1.00  0.00    -0.490 A  
HETATM    9  C   UNL     1     -11.869  10.744  70.221  1.00  0.00    -0.349 A  
HETATM   10  C   UNL     1     -10.779   8.908  71.378  1.00  0.00    -0.382 A  
HETATM   11  C   UNL     1     -10.733   9.973  70.461  1.00  0.00    -0.352 A  
BRANCH   9  12
HETATM   12  N   UNL     1     -11.953  11.742  69.234  1.00  0.00    -0.307 NA 
HETATM   13  H   UNL     1     -12.096  11.387  68.287  1.00  0.00     0.000 HD 
BRANCH  12  14
HETATM   14  C   UNL     1     -11.873  13.142  69.320  1.00  0.00    -0.323 A  
HETATM   15  C   UNL     1     -11.665  13.889  68.151  1.00  0.00    -0.388 A  
HETATM   16  C   UNL     1     -11.666  15.285  68.178  1.00  0.00    -0.297 A  
HETATM   17  C   UNL     1     -11.887  15.955  69.378  1.00  0.00    -0.325 A  
HETATM   18  C   UNL     1     -12.084  15.227  70.551  1.00  0.00    -0.395 A  
HETATM   19  C   UNL     1     -12.067  13.828  70.524  1.00  0.00    -0.416 A  
ENDBRANCH  12  14
ENDBRANCH   9  12
ENDBRANCH   4   6
ENDBRANCH   2   4
TORSDOF 4
ENDMDL
MODEL       39
REMARK 921   NORMALIZED FREE ENERGY PREDICTED BY IDOCK:   -5.15 KCAL/MOL
REMARK 922        TOTAL FREE ENERGY PREDICTED BY IDOCK:   -6.91 KCAL/MOL
REMARK 923 INTER-LIGAND FREE ENERGY PREDICTED BY IDOCK:   -6.31 KCAL/MOL
REMARK 924 INTRA-LIGAND FREE ENERGY PREDICTED BY IDOCK:   -0.59 KCAL/MOL
REMARK 927      BINDING AFFINITY PREDICTED BY RF-SCORE:    0.00 PKD
ROOT
HETATM    1  C   UNL     1      -7.994  18.410  66.423  1.00  0.00    -0.288 C  
HETATM    2  C   UNL     1      -9.464  18.009  66.541  1.00  0.00    -0.301 C  
HETATM    3  C   UNL     1     -10.372  19.201  66.261  1.00  0.00    -0.553 C  
ENDROOT
BRANCH   2   4
HETATM    4  N   UNL     1      -9.740  16.927  65.597  1.00  0.00    -0.548 NA 
HETATM    5  H   UNL     1      -9.383  17.006  64.645  1.00  0.00     0.000 HD 
BRANCH   4   6
HETATM    6  C   UNL     1     -10.470  15.793  65.944  1.00  0.00    -0.352 A  
HETATM    7  C   UNL     1     -11.019  15.587  67.209  1.00  0.00    -0.303 A  
HETATM    8  C   UNL     1     -11.596  14.364  67.567  1.00  0.00    -0.398 A  
HETATM    9  C   UNL     1     -11.638  13.295  66.669  1.00  0.00    -0.365 A  
HETATM   10  C   UNL     1     -10.538  14.722  65.039  1.00  0.00    -0.452 A  
HETATM   11  C   UNL     1     -11.129  13.494  65.387  1.00  0.00    -0.302 A  
BRANCH   9  12
HETATM   12  N   UNL     1     -12.128  12.066  67.142  1.00  0.00    -0.532 NA 
HETATM   13  H   UNL     1     -13.012  11.775  66.722  1.00  0.00     0.000 HD 
BRANCH  12  14
HETATM   14  C   UNL     1     -11.616  11.166  68.093  1.00  0.00    -0.280 A  
HETATM   15  C   UNL     1     -10.663  10.218  67.692  1.00  0.00    -0.339 A  
HETATM   16  C   UNL     1     -10.064   9.363  68.619  1.00  0.00    -0.208 A  
HETATM   17  C   UNL     1     -10.404   9.453  69.966  1.00  0.00    -0.265 A  
HETATM   18  C   UNL     1     -11.358  10.382  70.378  1.00  0.00    -0.417 A  
HETATM   19  C   UNL     1     -11.968  11.227  69.445  1.00  0.00    -0.410 A  
ENDBRANCH  12  14
ENDBRANCH   9  12
ENDBRANCH   4   6
ENDBRANCH   2   4
TORSDOF 4
ENDMDL
MODEL       40
REMARK 921   NORMALIZED FREE ENERGY PREDICTED BY IDOCK:   -5.14 KCAL/MOL
REMARK 922        TOTAL FREE ENERGY PREDICTED BY IDOCK:   -6.89 KCAL/MOL
REMARK 923 INTER-LIGAND FREE ENERGY PREDICTED BY IDOCK:   -6.31 KCAL/MOL
REMARK 924 INTRA-LIGAND FREE ENERGY PREDICTED BY IDOCK:   -0.58 KCAL/MOL
REMARK 927      BINDING AFFINITY PREDICTED BY RF-SCORE:    0.00 PKD
ROOT
HETATM    1  C   UNL     1     -10.152  19.751  68.443  1.00  0.00    -0.568 C  
HETATM    2  C   UNL     1     -10.659  18.921  67.265  1.00  0.00    -0.456 C  
HETATM    3  C   UNL     1     -10.506  19.690  65.957  1.00  0.00    -0.622 C  
ENDROOT
BRANCH   2   4
HETATM    4  N   UNL     1      -9.911  17.666  67.208  1.00  0.00    -0.293 NA 
HETATM    5  H   UNL     1      -8.918  17.678  67.443  1.00  0.00     0.000 HD 
BRANCH   4   6
HETATM    6  C   UNL     1     -10.496  16.456  66.844  1.00  0.00    -0.289 A  
HETATM    7  C   UNL     1     -11.118  15.597  67.750  1.00  0.00    -0.311 A  
HETATM    8  C   UNL     1     -11.540  14.317  67.376  1.00  0.00    -0.394 A  
HETATM    9  C   UNL     1     -11.347  13.846  66.075  1.00  0.00    -0.324 A  
HETATM   10  C   UNL     1     -10.327  15.983  65.533  1.00  0.00    -0.415 A  
HETATM   11  C   UNL     1     -10.761  14.703  65.145  1.00  0.00    -0.430 A  
BRANCH   9  12
HETATM   12  N   UNL     1     -11.692  12.509  65.810  1.00  0.00    -0.406 NA 
HETATM   13  H   UNL     1     -12.689  12.356  65.648  1.00  0.00     0.000 HD 
BRANCH  12  14
HETATM   14  C   UNL     1     -10.908  11.346  65.729  1.00  0.00    -0.230 A  
HETATM   15  C   UNL     1     -10.309  11.010  64.506  1.00  0.00    -0.420 A  
HETATM   16  C   UNL     1      -9.452   9.911  64.402  1.00  0.00    -0.304 A  
HETATM   17  C   UNL     1      -9.174   9.140  65.526  1.00  0.00    -0.287 A  
HETATM   18  C   UNL     1      -9.771   9.454  66.746  1.00  0.00    -0.257 A  
HETATM   19  C   UNL     1     -10.641  10.545  66.844  1.00  0.00    -0.303 A  
ENDBRANCH  12  14
ENDBRANCH   9  12
ENDBRANCH   4   6
ENDBRANCH   2   4
TORSDOF 4
ENDMDL
MODEL       41
REMARK 921   NORMALIZED FREE ENERGY PREDICTED BY IDOCK:   -5.14 KCAL/MOL
REMARK 922        TOTAL FREE ENERGY PREDICTED BY IDOCK:   -6.89 KCAL/MOL
REMARK 923 INTER-LIGAND FREE ENERGY PREDICTED BY IDOCK:   -6.29 KCAL/MOL
REMARK 924 INTRA-LIGAND FREE ENERGY PREDICTED BY IDOCK:   -0.60 KCAL/MOL
REMARK 927      BINDING AFFINITY PREDICTED BY RF-SCORE:    0.00 PKD
ROOT
HETATM    1  C   UNL     1     -10.785  19.286  67.211  1.00  0.00    -0.594 C  
HETATM    2  C   UNL     1     -10.181  17.955  67.657  1.00  0.00    -0.365 C  
HETATM    3  C   UNL     1      -8.819  18.172  68.308  1.00  0.00    -0.293 C  
ENDROOT
BRANCH   2   4
HETATM    4  N   UNL     1     -11.095  17.306  68.595  1.00  0.00    -0.211 NA 
HETATM    5  H   UNL     1     -11.685  17.892  69.187  1.00  0.00     0.000 HD 
BRANCH   4   6
HETATM    6  C   UNL     1     -11.194  15.922  68.716  1.00  0.00    -0.359 A  
HETATM    7  C   UNL     1     -10.935  15.036  67.670  1.00  0.00    -0.305 A  
HETATM    8  C   UNL     1     -11.211  13.670  67.781  1.00  0.00    -0.310 A  
HETATM    9  C   UNL     1     -11.765  13.139  68.948  1.00  0.00    -0.326 A  
HETATM   10  C   UNL     1     -11.729  15.376  69.893  1.00  0.00    -0.357 A  
HETATM   11  C   UNL     1     -11.996  14.001  70.018  1.00  0.00    -0.404 A  
BRANCH   9  12
HETATM   12  N   UNL     1     -12.121  11.778  68.939  1.00  0.00    -0.341 NA 
HETATM   13  H   UNL     1     -12.571  11.467  68.077  1.00  0.00     0.000 HD 
BRANCH  12  14
HETATM   14  C   UNL     1     -11.965  10.772  69.907  1.00  0.00    -0.342 A  
HETATM   15  C   UNL     1     -10.708  10.170  70.072  1.00  0.00    -0.356 A  
HETATM   16  C   UNL     1     -10.487   9.228  71.079  1.00  0.00    -0.384 A  
HETATM   17  C   UNL     1     -11.521   8.883  71.944  1.00  0.00    -0.442 A  
HETATM   18  C   UNL     1     -12.779   9.462  71.786  1.00  0.00    -0.476 A  
HETATM   19  C   UNL     1     -13.002  10.394  70.766  1.00  0.00    -0.422 A  
ENDBRANCH  12  14
ENDBRANCH   9  12
ENDBRANCH   4   6
ENDBRANCH   2   4
TORSDOF 4
ENDMDL
MODEL       42
REMARK 921   NORMALIZED FREE ENERGY PREDICTED BY IDOCK:   -5.14 KCAL/MOL
REMARK 922        TOTAL FREE ENERGY PREDICTED BY IDOCK:   -6.89 KCAL/MOL
REMARK 923 INTER-LIGAND FREE ENERGY PREDICTED BY IDOCK:   -6.48 KCAL/MOL
REMARK 924 INTRA-LIGAND FREE ENERGY PREDICTED BY IDOCK:   -0.40 KCAL/MOL
REMARK 927      BINDING AFFINITY PREDICTED BY RF-SCORE:    0.00 PKD
ROOT
HETATM    1  C   UNL     1     -13.127  10.339  71.473  1.00  0.00    -0.534 C  
HETATM    2  C   UNL     1     -11.824  10.884  70.890  1.00  0.00    -0.258 C  
HETATM    3  C   UNL     1     -10.828   9.756  70.646  1.00  0.00    -0.396 C  
ENDROOT
BRANCH   2   4
HETATM    4  N   UNL     1     -12.115  11.584  69.640  1.00  0.00    -0.310 NA 
HETATM    5  H   UNL     1     -12.577  11.070  68.889  1.00  0.00     0.000 HD 
BRANCH   4   6
HETATM    6  C   UNL     1     -11.789  12.922  69.432  1.00  0.00    -0.312 A  
HETATM    7  C   UNL     1     -10.764  13.343  68.586  1.00  0.00    -0.275 A  
HETATM    8  C   UNL     1     -10.357  14.681  68.536  1.00  0.00    -0.238 A  
HETATM    9  C   UNL     1     -10.962  15.648  69.341  1.00  0.00    -0.283 A  
HETATM   10  C   UNL     1     -12.408  13.905  70.220  1.00  0.00    -0.413 A  
HETATM   11  C   UNL     1     -12.014  15.254  70.166  1.00  0.00    -0.373 A  
BRANCH   9  12
HETATM   12  N   UNL     1     -10.419  16.945  69.318  1.00  0.00    -0.331 NA 
HETATM   13  H   UNL     1      -9.955  17.222  70.184  1.00  0.00     0.000 HD 
BRANCH  12  14
HETATM   14  C   UNL     1     -10.403  17.927  68.313  1.00  0.00    -0.383 A  
HETATM   15  C   UNL     1     -10.115  19.255  68.660  1.00  0.00    -0.499 A  
HETATM   16  C   UNL     1     -10.003  20.247  67.682  1.00  0.00    -0.551 A  
HETATM   17  C   UNL     1     -10.168  19.919  66.340  1.00  0.00    -0.617 A  
HETATM   18  C   UNL     1     -10.467  18.605  65.980  1.00  0.00    -0.456 A  
HETATM   19  C   UNL     1     -10.594  17.617  66.963  1.00  0.00    -0.254 A  
ENDBRANCH  12  14
ENDBRANCH   9  12
ENDBRANCH   4   6
ENDBRANCH   2   4
TORSDOF 4
ENDMDL
MODEL       43
REMARK 921   NORMALIZED FREE ENERGY PREDICTED BY IDOCK:   -5.13 KCAL/MOL
REMARK 922        TOTAL FREE ENERGY PREDICTED BY IDOCK:   -6.88 KCAL/MOL
REMARK 923 INTER-LIGAND FREE ENERGY PREDICTED BY IDOCK:   -6.30 KCAL/MOL
REMARK 924 INTRA-LIGAND FREE ENERGY PREDICTED BY IDOCK:   -0.57 KCAL/MOL
REMARK 927      BINDING AFFINITY PREDICTED BY RF-SCORE:    0.00 PKD
ROOT
HETATM    1  C   UNL     1     -11.790   6.788  71.672  1.00  0.00    -0.370 C  
HETATM    2  C   UNL     1     -11.145   7.677  72.735  1.00  0.00    -0.383 C  
HETATM    3  C   UNL     1     -10.408   6.832  73.769  1.00  0.00    -0.397 C  
ENDROOT
BRANCH   2   4
HETATM    4  N   UNL     1     -10.221   8.605  72.085  1.00  0.00    -0.326 NA 
HETATM    5  H   UNL     1      -9.243   8.605  72.376  1.00  0.00     0.000 HD 
BRANCH   4   6
HETATM    6  C   UNL     1     -10.621   9.490  71.086  1.00  0.00    -0.318 A  
HETATM    7  C   UNL     1     -11.761  10.287  71.174  1.00  0.00    -0.430 A  
HETATM    8  C   UNL     1     -12.221  11.032  70.082  1.00  0.00    -0.424 A  
HETATM    9  C   UNL     1     -11.555  10.999  68.855  1.00  0.00    -0.314 A  
HETATM   10  C   UNL     1      -9.944   9.481  69.856  1.00  0.00    -0.259 A  
HETATM   11  C   UNL     1     -10.392  10.237  68.758  1.00  0.00    -0.211 A  
BRANCH   9  12
HETATM   12  N   UNL     1     -12.144  11.682  67.777  1.00  0.00    -0.579 NA 
HETATM   13  H   UNL     1     -13.130  11.463  67.628  1.00  0.00     0.000 HD 
BRANCH  12  14
HETATM   14  C   UNL     1     -11.615  12.613  66.867  1.00  0.00    -0.373 A  
HETATM   15  C   UNL     1     -11.593  13.972  67.214  1.00  0.00    -0.396 A  
HETATM   16  C   UNL     1     -10.999  14.920  66.378  1.00  0.00    -0.336 A  
HETATM   17  C   UNL     1     -10.407  14.517  65.185  1.00  0.00    -0.438 A  
HETATM   18  C   UNL     1     -10.431  13.172  64.820  1.00  0.00    -0.390 A  
HETATM   19  C   UNL     1     -11.040  12.226  65.651  1.00  0.00    -0.357 A  
ENDBRANCH  12  14
ENDBRANCH   9  12
ENDBRANCH   4   6
ENDBRANCH   2   4
TORSDOF 4
ENDMDL
MODEL       44
REMARK 921   NORMALIZED FREE ENERGY PREDICTED BY IDOCK:   -5.07 KCAL/MOL
REMARK 922        TOTAL FREE ENERGY PREDICTED BY IDOCK:   -6.80 KCAL/MOL
REMARK 923 INTER-LIGAND FREE ENERGY PREDICTED BY IDOCK:   -6.32 KCAL/MOL
REMARK 924 INTRA-LIGAND FREE ENERGY PREDICTED BY IDOCK:   -0.48 KCAL/MOL
REMARK 927      BINDING AFFINITY PREDICTED BY RF-SCORE:    0.00 PKD
ROOT
HETATM    1  C   UNL     1      -6.823  18.304  65.996  1.00  0.00    -0.311 C  
HETATM    2  C   UNL     1      -6.249  19.144  67.136  1.00  0.00    -0.178 C  
HETATM    3  C   UNL     1      -6.614  20.614  66.959  1.00  0.00    -0.331 C  
ENDROOT
BRANCH   2   4
HETATM    4  N   UNL     1      -6.766  18.641  68.407  1.00  0.00    -0.234 NA 
HETATM    5  H   UNL     1      -6.245  18.844  69.261  1.00  0.00     0.000 HD 
BRANCH   4   6
HETATM    6  C   UNL     1      -7.939  17.896  68.502  1.00  0.00    -0.298 A  
HETATM    7  C   UNL     1      -9.214  18.446  68.370  1.00  0.00    -0.341 A  
HETATM    8  C   UNL     1     -10.366  17.699  68.641  1.00  0.00    -0.359 A  
HETATM    9  C   UNL     1     -10.281  16.370  69.062  1.00  0.00    -0.269 A  
HETATM   10  C   UNL     1      -7.864  16.553  68.902  1.00  0.00    -0.240 A  
HETATM   11  C   UNL     1      -9.017  15.791  69.163  1.00  0.00    -0.256 A  
BRANCH   9  12
HETATM   12  N   UNL     1     -11.476  15.725  69.425  1.00  0.00    -0.330 NA 
HETATM   13  H   UNL     1     -11.922  15.206  68.668  1.00  0.00     0.000 HD 
BRANCH  12  14
HETATM   14  C   UNL     1     -12.166  15.669  70.648  1.00  0.00    -0.405 A  
HETATM   15  C   UNL     1     -11.539  16.147  71.809  1.00  0.00    -0.503 A  
HETATM   16  C   UNL     1     -12.219  16.190  73.029  1.00  0.00    -0.641 A  
HETATM   17  C   UNL     1     -13.542  15.765  73.100  1.00  0.00    -0.588 A  
HETATM   18  C   UNL     1     -14.175  15.276  71.958  1.00  0.00    -0.679 A  
HETATM   19  C   UNL     1     -13.487  15.219  70.741  1.00  0.00    -0.359 A  
ENDBRANCH  12  14
ENDBRANCH   9  12
ENDBRANCH   4   6
ENDBRANCH   2   4
TORSDOF 4
ENDMDL
MODEL       45
REMARK 921   NORMALIZED FREE ENERGY PREDICTED BY IDOCK:   -5.04 KCAL/MOL
REMARK 922        TOTAL FREE ENERGY PREDICTED BY IDOCK:   -6.77 KCAL/MOL
REMARK 923 INTER-LIGAND FREE ENERGY PREDICTED BY IDOCK:   -6.21 KCAL/MOL
REMARK 924 INTRA-LIGAND FREE ENERGY PREDICTED BY IDOCK:   -0.56 KCAL/MOL
REMARK 927      BINDING AFFINITY PREDICTED BY RF-SCORE:    0.00 PKD
ROOT
HETATM    1  C   UNL     1     -12.070   7.540  71.528  1.00  0.00    -0.345 C  
HETATM    2  C   UNL     1     -11.497   8.939  71.303  1.00  0.00    -0.299 C  
HETATM    3  C   UNL     1      -9.984   8.879  71.120  1.00  0.00    -0.342 C  
ENDROOT
BRANCH   2   4
HETATM    4  N   UNL     1     -12.128   9.530  70.124  1.00  0.00    -0.459 NA 
HETATM    5  H   UNL     1     -12.702   8.934  69.527  1.00  0.00     0.000 HD 
BRANCH   4   6
HETATM    6  C   UNL     1     -11.979  10.872  69.782  1.00  0.00    -0.351 A  
HETATM    7  C   UNL     1     -12.181  11.923  70.676  1.00  0.00    -0.424 A  
HETATM    8  C   UNL     1     -12.188  13.256  70.251  1.00  0.00    -0.391 A  
HETATM    9  C   UNL     1     -12.000  13.585  68.907  1.00  0.00    -0.341 A  
HETATM   10  C   UNL     1     -11.766  11.213  68.437  1.00  0.00    -0.349 A  
HETATM   11  C   UNL     1     -11.758  12.551  68.004  1.00  0.00    -0.410 A  
BRANCH   9  12
HETATM   12  N   UNL     1     -12.137  14.936  68.543  1.00  0.00    -0.581 NA 
HETATM   13  H   UNL     1     -13.059  15.331  68.732  1.00  0.00     0.000 HD 
BRANCH  12  14
HETATM   14  C   UNL     1     -11.229  15.839  67.965  1.00  0.00    -0.338 A  
HETATM   15  C   UNL     1     -10.688  16.864  68.755  1.00  0.00    -0.333 A  
HETATM   16  C   UNL     1      -9.717  17.730  68.246  1.00  0.00    -0.320 A  
HETATM   17  C   UNL     1      -9.266  17.573  66.939  1.00  0.00    -0.273 A  
HETATM   18  C   UNL     1      -9.802  16.566  66.138  1.00  0.00    -0.355 A  
HETATM   19  C   UNL     1     -10.785  15.710  66.645  1.00  0.00    -0.296 A  
ENDBRANCH  12  14
ENDBRANCH   9  12
ENDBRANCH   4   6
ENDBRANCH   2   4
TORSDOF 4
ENDMDL
MODEL       46
REMARK 921   NORMALIZED FREE ENERGY PREDICTED BY IDOCK:   -5.02 KCAL/MOL
REMARK 922        TOTAL FREE ENERGY PREDICTED BY IDOCK:   -6.74 KCAL/MOL
REMARK 923 INTER-LIGAND FREE ENERGY PREDICTED BY IDOCK:   -6.22 KCAL/MOL
REMARK 924 INTRA-LIGAND FREE ENERGY PREDICTED BY IDOCK:   -0.53 KCAL/MOL
REMARK 927      BINDING AFFINITY PREDICTED BY RF-SCORE:    0.00 PKD
ROOT
HETATM    1  C   UNL     1     -11.497  15.116  67.819  1.00  0.00    -0.329 C  
HETATM    2  C   UNL     1     -11.178  15.017  69.311  1.00  0.00    -0.286 C  
HETATM    3  C   UNL     1     -10.905  16.398  69.897  1.00  0.00    -0.333 C  
ENDROOT
BRANCH   2   4
HETATM    4  N   UNL     1     -12.303  14.386  69.999  1.00  0.00    -0.370 NA 
HETATM    5  H   UNL     1     -13.117  14.957  70.229  1.00  0.00     0.000 HD 
BRANCH   4   6
HETATM    6  C   UNL     1     -12.309  13.039  70.354  1.00  0.00    -0.277 A  
HETATM    7  C   UNL     1     -11.784  12.028  69.552  1.00  0.00    -0.408 A  
HETATM    8  C   UNL     1     -11.963  10.676  69.865  1.00  0.00    -0.385 A  
HETATM    9  C   UNL     1     -12.685  10.287  70.996  1.00  0.00    -0.396 A  
HETATM   10  C   UNL     1     -13.013  12.640  71.502  1.00  0.00    -0.380 A  
HETATM   11  C   UNL     1     -13.185  11.284  71.831  1.00  0.00    -0.491 A  
BRANCH   9  12
HETATM   12  N   UNL     1     -12.919   8.913  71.177  1.00  0.00    -0.512 NA 
HETATM   13  H   UNL     1     -13.885   8.626  71.018  1.00  0.00     0.000 HD 
BRANCH  12  14
HETATM   14  C   UNL     1     -12.056   7.864  71.539  1.00  0.00    -0.306 A  
HETATM   15  C   UNL     1     -11.809   6.834  70.619  1.00  0.00    -0.442 A  
HETATM   16  C   UNL     1     -10.893   5.819  70.904  1.00  0.00    -0.326 A  
HETATM   17  C   UNL     1     -10.202   5.827  72.112  1.00  0.00    -0.240 A  
HETATM   18  C   UNL     1     -10.445   6.837  73.041  1.00  0.00    -0.280 A  
HETATM   19  C   UNL     1     -11.375   7.845  72.760  1.00  0.00    -0.453 A  
ENDBRANCH  12  14
ENDBRANCH   9  12
ENDBRANCH   4   6
ENDBRANCH   2   4
TORSDOF 4
ENDMDL
MODEL       47
REMARK 921   NORMALIZED FREE ENERGY PREDICTED BY IDOCK:   -5.00 KCAL/MOL
REMARK 922        TOTAL FREE ENERGY PREDICTED BY IDOCK:   -6.72 KCAL/MOL
REMARK 923 INTER-LIGAND FREE ENERGY PREDICTED BY IDOCK:   -6.12 KCAL/MOL
REMARK 924 INTRA-LIGAND FREE ENERGY PREDICTED BY IDOCK:   -0.60 KCAL/MOL
REMARK 927      BINDING AFFINITY PREDICTED BY RF-SCORE:    0.00 PKD
ROOT
HETATM    1  C   UNL     1     -12.673   9.845  71.139  1.00  0.00    -0.462 C  
HETATM    2  C   UNL     1     -11.632  10.603  70.315  1.00  0.00    -0.336 C  
HETATM    3  C   UNL     1     -10.324   9.822  70.251  1.00  0.00    -0.348 C  
ENDROOT
BRANCH   2   4
HETATM    4  N   UNL     1     -12.158  10.825  68.970  1.00  0.00    -0.701 NA 
HETATM    5  H   UNL     1     -12.908  10.222  68.632  1.00  0.00     0.000 HD 
BRANCH   4   6
HETATM    6  C   UNL     1     -11.677  11.827  68.130  1.00  0.00    -0.307 A  
HETATM    7  C   UNL     1     -11.262  11.600  66.818  1.00  0.00    -0.371 A  
HETATM    8  C   UNL     1     -10.627  12.595  66.067  1.00  0.00    -0.294 A  
HETATM    9  C   UNL     1     -10.379  13.858  66.608  1.00  0.00    -0.278 A  
HETATM   10  C   UNL     1     -11.445  13.107  68.657  1.00  0.00    -0.342 A  
HETATM   11  C   UNL     1     -10.821  14.117  67.904  1.00  0.00    -0.253 A  
BRANCH   9  12
HETATM   12  N   UNL     1      -9.635  14.764  65.831  1.00  0.00    -0.428 NA 
HETATM   13  H   UNL     1      -9.160  14.341  65.032  1.00  0.00     0.000 HD 
BRANCH  12  14
HETATM   14  C   UNL     1      -9.429  16.148  65.961  1.00  0.00    -0.339 A  
HETATM   15  C   UNL     1     -10.528  17.014  65.863  1.00  0.00    -0.282 A  
HETATM   16  C   UNL     1     -10.382  18.388  66.071  1.00  0.00    -0.397 A  
HETATM   17  C   UNL     1      -9.134  18.912  66.393  1.00  0.00    -0.317 A  
HETATM   18  C   UNL     1      -8.030  18.065  66.483  1.00  0.00    -0.294 A  
HETATM   19  C   UNL     1      -8.175  16.692  66.258  1.00  0.00    -0.365 A  
ENDBRANCH  12  14
ENDBRANCH   9  12
ENDBRANCH   4   6
ENDBRANCH   2   4
TORSDOF 4
ENDMDL
MODEL       48
REMARK 921   NORMALIZED FREE ENERGY PREDICTED BY IDOCK:   -4.96 KCAL/MOL
REMARK 922        TOTAL FREE ENERGY PREDICTED BY IDOCK:   -6.68 KCAL/MOL
REMARK 923 INTER-LIGAND FREE ENERGY PREDICTED BY IDOCK:   -6.13 KCAL/MOL
REMARK 924 INTRA-LIGAND FREE ENERGY PREDICTED BY IDOCK:   -0.55 KCAL/MOL
REMARK 927      BINDING AFFINITY PREDICTED BY RF-SCORE:    0.00 PKD
ROOT
HETATM    1  C   UNL     1     -12.645  12.094  63.520  1.00  0.00    -0.621 C  
HETATM    2  C   UNL     1     -11.881  12.892  64.576  1.00  0.00    -0.375 C  
HETATM    3  C   UNL     1     -12.032  14.390  64.334  1.00  0.00    -0.471 C  
ENDROOT
BRANCH   2   4
HETATM    4  N   UNL     1     -12.388  12.538  65.901  1.00  0.00    -0.603 NA 
HETATM    5  H   UNL     1     -13.373  12.705  66.108  1.00  0.00     0.000 HD 
BRANCH   4   6
HETATM    6  C   UNL     1     -11.582  11.983  66.892  1.00  0.00    -0.318 A  
HETATM    7  C   UNL     1     -10.810  10.836  66.706  1.00  0.00    -0.256 A  
HETATM    8  C   UNL     1     -10.152  10.215  67.773  1.00  0.00    -0.216 A  
HETATM    9  C   UNL     1     -10.249  10.718  69.072  1.00  0.00    -0.213 A  
HETATM   10  C   UNL     1     -11.655  12.495  68.198  1.00  0.00    -0.390 A  
HETATM   11  C   UNL     1     -10.985  11.885  69.272  1.00  0.00    -0.208 A  
BRANCH   9  12
HETATM   12  N   UNL     1      -9.655   9.972  70.105  1.00  0.00    -0.398 NA 
HETATM   13  H   UNL     1      -8.640  10.067  70.162  1.00  0.00     0.000 HD 
BRANCH  12  14
HETATM   14  C   UNL     1     -10.212   9.118  71.071  1.00  0.00    -0.302 A  
HETATM   15  C   UNL     1      -9.359   8.422  71.941  1.00  0.00    -0.313 A  
HETATM   16  C   UNL     1      -9.872   7.631  72.972  1.00  0.00    -0.319 A  
HETATM   17  C   UNL     1     -11.248   7.534  73.153  1.00  0.00    -0.318 A  
HETATM   18  C   UNL     1     -12.109   8.209  72.289  1.00  0.00    -0.419 A  
HETATM   19  C   UNL     1     -11.593   8.989  71.248  1.00  0.00    -0.387 A  
ENDBRANCH  12  14
ENDBRANCH   9  12
ENDBRANCH   4   6
ENDBRANCH   2   4
TORSDOF 4
ENDMDL
MODEL       49
REMARK 921   NORMALIZED FREE ENERGY PREDICTED BY IDOCK:   -4.96 KCAL/MOL
REMARK 922        TOTAL FREE ENERGY PREDICTED BY IDOCK:   -6.67 KCAL/MOL
REMARK 923 INTER-LIGAND FREE ENERGY PREDICTED BY IDOCK:   -6.13 KCAL/MOL
REMARK 924 INTRA-LIGAND FREE ENERGY PREDICTED BY IDOCK:   -0.54 KCAL/MOL
REMARK 927      BINDING AFFINITY PREDICTED BY RF-SCORE:    0.00 PKD
ROOT
HETATM    1  C   UNL     1      -9.573  19.945  66.339  1.00  0.00    -0.537 C  
HETATM    2  C   UNL     1      -9.321  18.830  67.354  1.00  0.00    -0.286 C  
HETATM    3  C   UNL     1      -8.906  19.410  68.701  1.00  0.00    -0.417 C  
ENDROOT
BRANCH   2   4
HETATM    4  N   UNL     1     -10.538  18.032  67.498  1.00  0.00    -0.403 NA 
HETATM    5  H   UNL     1     -11.336  18.441  67.984  1.00  0.00     0.000 HD 
BRANCH   4   6
HETATM    6  C   UNL     1     -10.653  16.736  67.000  1.00  0.00    -0.234 A  
HETATM    7  C   UNL     1     -10.494  16.411  65.653  1.00  0.00    -0.364 A  
HETATM    8  C   UNL     1     -10.785  15.131  65.168  1.00  0.00    -0.442 A  
HETATM    9  C   UNL     1     -11.255  14.128  66.019  1.00  0.00    -0.319 A  
HETATM   10  C   UNL     1     -11.103  15.715  67.852  1.00  0.00    -0.324 A  
HETATM   11  C   UNL     1     -11.385  14.422  67.375  1.00  0.00    -0.353 A  
BRANCH   9  12
HETATM   12  N   UNL     1     -11.635  12.907  65.436  1.00  0.00    -0.334 NA 
HETATM   13  H   UNL     1     -12.643  12.752  65.403  1.00  0.00     0.000 HD 
BRANCH  12  14
HETATM   14  C   UNL     1     -10.871  11.861  64.890  1.00  0.00    -0.305 A  
HETATM   15  C   UNL     1     -10.564  11.880  63.521  1.00  0.00    -0.507 A  
HETATM   16  C   UNL     1      -9.736  10.908  62.955  1.00  0.00    -0.380 A  
HETATM   17  C   UNL     1      -9.194   9.908  63.756  1.00  0.00    -0.289 A  
HETATM   18  C   UNL     1      -9.498   9.868  65.115  1.00  0.00    -0.338 A  
HETATM   19  C   UNL     1     -10.340  10.834  65.678  1.00  0.00    -0.297 A  
ENDBRANCH  12  14
ENDBRANCH   9  12
ENDBRANCH   4   6
ENDBRANCH   2   4
TORSDOF 4
ENDMDL
MODEL       50
REMARK 921   NORMALIZED FREE ENERGY PREDICTED BY IDOCK:   -4.92 KCAL/MOL
REMARK 922        TOTAL FREE ENERGY PREDICTED BY IDOCK:   -6.63 KCAL/MOL
REMARK 923 INTER-LIGAND FREE ENERGY PREDICTED BY IDOCK:   -6.02 KCAL/MOL
REMARK 924 INTRA-LIGAND FREE ENERGY PREDICTED BY IDOCK:   -0.61 KCAL/MOL
REMARK 927      BINDING AFFINITY PREDICTED BY RF-SCORE:    0.00 PKD
ROOT
HETATM    1  C   UNL     1      -6.760  17.651  66.025  1.00  0.00    -0.296 C  
HETATM    2  C   UNL     1      -7.744  18.760  66.398  1.00  0.00    -0.269 C  
HETATM    3  C   UNL     1      -7.377  20.063  65.695  1.00  0.00    -0.311 C  
ENDROOT
BRANCH   2   4
HETATM    4  N   UNL     1      -9.095  18.345  66.026  1.00  0.00    -0.498 NA 
HETATM    5  H   UNL     1      -9.589  18.876  65.308  1.00  0.00     0.000 HD 
BRANCH   4   6
HETATM    6  C   UNL     1      -9.736  17.256  66.612  1.00  0.00    -0.288 A  
HETATM    7  C   UNL     1     -10.241  16.177  65.887  1.00  0.00    -0.381 A  
HETATM    8  C   UNL     1     -11.026  15.190  66.492  1.00  0.00    -0.318 A  
HETATM    9  C   UNL     1     -11.342  15.253  67.851  1.00  0.00    -0.334 A  
HETATM   10  C   UNL     1     -10.039  17.299  67.982  1.00  0.00    -0.324 A  
HETATM   11  C   UNL     1     -10.816  16.303  68.601  1.00  0.00    -0.322 A  
BRANCH   9  12
HETATM   12  N   UNL     1     -12.231  14.288  68.357  1.00  0.00    -0.595 NA 
HETATM   13  H   UNL     1     -13.216  14.545  68.287  1.00  0.00     0.000 HD 
BRANCH  12  14
HETATM   14  C   UNL     1     -12.001  13.032  68.943  1.00  0.00    -0.263 A  
HETATM   15  C   UNL     1     -12.355  12.829  70.286  1.00  0.00    -0.277 A  
HETATM   16  C   UNL     1     -12.225  11.572  70.883  1.00  0.00    -0.425 A  
HETATM   17  C   UNL     1     -11.749  10.498  70.139  1.00  0.00    -0.410 A  
HETATM   18  C   UNL     1     -11.381  10.686  68.807  1.00  0.00    -0.339 A  
HETATM   19  C   UNL     1     -11.498  11.948  68.216  1.00  0.00    -0.372 A  
ENDBRANCH  12  14
ENDBRANCH   9  12
ENDBRANCH   4   6
ENDBRANCH   2   4
TORSDOF 4
ENDMDL
MODEL       51
REMARK 921   NORMALIZED FREE ENERGY PREDICTED BY IDOCK:   -4.91 KCAL/MOL
REMARK 922        TOTAL FREE ENERGY PREDICTED BY IDOCK:   -6.60 KCAL/MOL
REMARK 923 INTER-LIGAND FREE ENERGY PREDICTED BY IDOCK:   -6.00 KCAL/MOL
REMARK 924 INTRA-LIGAND FREE ENERGY PREDICTED BY IDOCK:   -0.61 KCAL/MOL
REMARK 927      BINDING AFFINITY PREDICTED BY RF-SCORE:    0.00 PKD
ROOT
HETATM    1  C   UNL     1     -14.253  15.675  72.213  1.00  0.00    -0.538 C  
HETATM    2  C   UNL     1     -13.088  14.702  72.397  1.00  0.00    -0.387 C  
HETATM    3  C   UNL     1     -12.302  15.036  73.661  1.00  0.00    -0.639 C  
ENDROOT
BRANCH   2   4
HETATM    4  N   UNL     1     -13.611  13.339  72.469  1.00  0.00    -0.648 NA 
HETATM    5  H   UNL     1     -14.359  13.137  73.133  1.00  0.00     0.000 HD 
BRANCH   4   6
HETATM    6  C   UNL     1     -13.132  12.305  71.669  1.00  0.00    -0.306 A  
HETATM    7  C   UNL     1     -13.321  10.954  71.958  1.00  0.00    -0.394 A  
HETATM    8  C   UNL     1     -12.679   9.950  71.225  1.00  0.00    -0.482 A  
HETATM    9  C   UNL     1     -11.815  10.266  70.174  1.00  0.00    -0.263 A  
HETATM   10  C   UNL     1     -12.280  12.612  70.595  1.00  0.00    -0.373 A  
HETATM   11  C   UNL     1     -11.642  11.609  69.845  1.00  0.00    -0.366 A  
BRANCH   9  12
HETATM   12  N   UNL     1     -11.120   9.207  69.564  1.00  0.00    -0.422 NA 
HETATM   13  H   UNL     1     -11.297   8.292  69.980  1.00  0.00     0.000 HD 
BRANCH  12  14
HETATM   14  C   UNL     1     -10.224   9.186  68.482  1.00  0.00    -0.198 A  
HETATM   15  C   UNL     1      -8.844   9.196  68.736  1.00  0.00    -0.132 A  
HETATM   16  C   UNL     1      -7.919   9.089  67.694  1.00  0.00    -0.101 A  
HETATM   17  C   UNL     1      -8.365   8.959  66.383  1.00  0.00    -0.117 A  
HETATM   18  C   UNL     1      -9.732   8.959  66.112  1.00  0.00    -0.338 A  
HETATM   19  C   UNL     1     -10.657   9.082  67.156  1.00  0.00    -0.291 A  
ENDBRANCH  12  14
ENDBRANCH   9  12
ENDBRANCH   4   6
ENDBRANCH   2   4
TORSDOF 4
ENDMDL
MODEL       52
REMARK 921   NORMALIZED FREE ENERGY PREDICTED BY IDOCK:   -4.90 KCAL/MOL
REMARK 922        TOTAL FREE ENERGY PREDICTED BY IDOCK:   -6.60 KCAL/MOL
REMARK 923 INTER-LIGAND FREE ENERGY PREDICTED BY IDOCK:   -6.03 KCAL/MOL
REMARK 924 INTRA-LIGAND FREE ENERGY PREDICTED BY IDOCK:   -0.57 KCAL/MOL
REMARK 927      BINDING AFFINITY PREDICTED BY RF-SCORE:    0.00 PKD
ROOT
HETATM    1  C   UNL     1     -14.363  15.243  72.319  1.00  0.00    -0.586 C  
HETATM    2  C   UNL     1     -13.166  14.323  72.561  1.00  0.00    -0.490 C  
HETATM    3  C   UNL     1     -12.396  14.756  73.803  1.00  0.00    -0.460 C  
ENDROOT
BRANCH   2   4
HETATM    4  N   UNL     1     -13.643  12.949  72.711  1.00  0.00    -0.708 NA 
HETATM    5  H   UNL     1     -14.316  12.744  73.449  1.00  0.00     0.000 HD 
BRANCH   4   6
HETATM    6  C   UNL     1     -13.215  11.910  71.888  1.00  0.00    -0.362 A  
HETATM    7  C   UNL     1     -13.219  10.570  72.273  1.00  0.00    -0.253 A  
HETATM    8  C   UNL     1     -12.624   9.579  71.486  1.00  0.00    -0.462 A  
HETATM    9  C   UNL     1     -11.995   9.897  70.280  1.00  0.00    -0.138 A  
HETATM   10  C   UNL     1     -12.601  12.218  70.663  1.00  0.00    -0.241 A  
HETATM   11  C   UNL     1     -12.013  11.225  69.859  1.00  0.00    -0.440 A  
BRANCH   9  12
HETATM   12  N   UNL     1     -11.320   8.863  69.606  1.00  0.00    -0.431 NA 
HETATM   13  H   UNL     1     -11.385   8.912  68.589  1.00  0.00     0.000 HD 
BRANCH  12  14
HETATM   14  C   UNL     1     -10.573   7.775  70.087  1.00  0.00    -0.237 A  
HETATM   15  C   UNL     1     -11.201   6.530  70.242  1.00  0.00    -0.433 A  
HETATM   16  C   UNL     1     -10.476   5.402  70.633  1.00  0.00    -0.329 A  
HETATM   17  C   UNL     1      -9.108   5.503  70.864  1.00  0.00    -0.164 A  
HETATM   18  C   UNL     1      -8.472   6.735  70.726  1.00  0.00    -0.133 A  
HETATM   19  C   UNL     1      -9.202   7.867  70.349  1.00  0.00    -0.158 A  
ENDBRANCH  12  14
ENDBRANCH   9  12
ENDBRANCH   4   6
ENDBRANCH   2   4
TORSDOF 4
ENDMDL
MODEL       53
REMARK 921   NORMALIZED FREE ENERGY PREDICTED BY IDOCK:   -4.90 KCAL/MOL
REMARK 922        TOTAL FREE ENERGY PREDICTED BY IDOCK:   -6.59 KCAL/MOL
REMARK 923 INTER-LIGAND FREE ENERGY PREDICTED BY IDOCK:   -6.32 KCAL/MOL
REMARK 924 INTRA-LIGAND FREE ENERGY PREDICTED BY IDOCK:   -0.27 KCAL/MOL
REMARK 927      BINDING AFFINITY PREDICTED BY RF-SCORE:    0.00 PKD
ROOT
HETATM    1  C   UNL     1     -10.189  11.045  63.758  1.00  0.00    -0.425 C  
HETATM    2  C   UNL     1     -10.999  12.313  63.488  1.00  0.00    -0.459 C  
HETATM    3  C   UNL     1     -12.488  11.995  63.415  1.00  0.00    -0.625 C  
ENDROOT
BRANCH   2   4
HETATM    4  N   UNL     1     -10.737  13.282  64.551  1.00  0.00    -0.391 NA 
HETATM    5  H   UNL     1     -10.634  14.266  64.300  1.00  0.00     0.000 HD 
BRANCH   4   6
HETATM    6  C   UNL     1     -10.623  12.919  65.890  1.00  0.00    -0.269 A  
HETATM    7  C   UNL     1      -9.424  12.525  66.483  1.00  0.00    -0.240 A  
HETATM    8  C   UNL     1      -9.383  12.005  67.781  1.00  0.00    -0.190 A  
HETATM    9  C   UNL     1     -10.550  11.854  68.534  1.00  0.00    -0.222 A  
HETATM   10  C   UNL     1     -11.788  12.785  66.663  1.00  0.00    -0.462 A  
HETATM   11  C   UNL     1     -11.754  12.276  67.973  1.00  0.00    -0.417 A  
BRANCH   9  12
HETATM   12  N   UNL     1     -10.440  11.217  69.782  1.00  0.00    -0.437 NA 
HETATM   13  H   UNL     1      -9.628  11.503  70.331  1.00  0.00     0.000 HD 
BRANCH  12  14
HETATM   14  C   UNL     1     -11.251  10.255  70.409  1.00  0.00    -0.332 A  
HETATM   15  C   UNL     1     -12.389  10.675  71.114  1.00  0.00    -0.505 A  
HETATM   16  C   UNL     1     -13.269   9.748  71.677  1.00  0.00    -0.514 A  
HETATM   17  C   UNL     1     -13.028   8.386  71.532  1.00  0.00    -0.319 A  
HETATM   18  C   UNL     1     -11.895   7.953  70.845  1.00  0.00    -0.242 A  
HETATM   19  C   UNL     1     -11.006   8.883  70.294  1.00  0.00    -0.266 A  
ENDBRANCH  12  14
ENDBRANCH   9  12
ENDBRANCH   4   6
ENDBRANCH   2   4
TORSDOF 4
ENDMDL
MODEL       54
REMARK 921   NORMALIZED FREE ENERGY PREDICTED BY IDOCK:   -4.89 KCAL/MOL
REMARK 922        TOTAL FREE ENERGY PREDICTED BY IDOCK:   -6.58 KCAL/MOL
REMARK 923 INTER-LIGAND FREE ENERGY PREDICTED BY IDOCK:   -6.10 KCAL/MOL
REMARK 924 INTRA-LIGAND FREE ENERGY PREDICTED BY IDOCK:   -0.48 KCAL/MOL
REMARK 927      BINDING AFFINITY PREDICTED BY RF-SCORE:    0.00 PKD
ROOT
HETATM    1  C   UNL     1     -10.547  10.265  67.127  1.00  0.00    -0.320 C  
HETATM    2  C   UNL     1     -11.407  10.760  68.289  1.00  0.00    -0.309 C  
HETATM    3  C   UNL     1     -10.551  11.013  69.525  1.00  0.00    -0.182 C  
ENDROOT
BRANCH   2   4
HETATM    4  N   UNL     1     -12.093  11.987  67.886  1.00  0.00    -0.494 NA 
HETATM    5  H   UNL     1     -12.911  11.913  67.281  1.00  0.00     0.000 HD 
BRANCH   4   6
HETATM    6  C   UNL     1     -11.676  13.252  68.294  1.00  0.00    -0.353 A  
HETATM    7  C   UNL     1     -12.196  13.914  69.406  1.00  0.00    -0.338 A  
HETATM    8  C   UNL     1     -11.875  15.248  69.681  1.00  0.00    -0.363 A  
HETATM    9  C   UNL     1     -11.022  15.971  68.845  1.00  0.00    -0.309 A  
HETATM   10  C   UNL     1     -10.801  13.980  67.473  1.00  0.00    -0.277 A  
HETATM   11  C   UNL     1     -10.462  15.316  67.750  1.00  0.00    -0.253 A  
BRANCH   9  12
HETATM   12  N   UNL     1     -10.842  17.338  69.125  1.00  0.00    -0.313 NA 
HETATM   13  H   UNL     1     -11.204  17.632  70.033  1.00  0.00     0.000 HD 
BRANCH  12  14
HETATM   14  C   UNL     1     -10.253  18.369  68.374  1.00  0.00    -0.378 A  
HETATM   15  C   UNL     1      -8.933  18.751  68.656  1.00  0.00    -0.368 A  
HETATM   16  C   UNL     1      -8.279  19.710  67.879  1.00  0.00    -0.344 A  
HETATM   17  C   UNL     1      -8.936  20.294  66.801  1.00  0.00    -0.394 A  
HETATM   18  C   UNL     1     -10.252  19.934  66.515  1.00  0.00    -0.611 A  
HETATM   19  C   UNL     1     -10.910  18.984  67.304  1.00  0.00    -0.494 A  
ENDBRANCH  12  14
ENDBRANCH   9  12
ENDBRANCH   4   6
ENDBRANCH   2   4
TORSDOF 4
ENDMDL
MODEL       55
REMARK 921   NORMALIZED FREE ENERGY PREDICTED BY IDOCK:   -4.89 KCAL/MOL
REMARK 922        TOTAL FREE ENERGY PREDICTED BY IDOCK:   -6.58 KCAL/MOL
REMARK 923 INTER-LIGAND FREE ENERGY PREDICTED BY IDOCK:   -5.99 KCAL/MOL
REMARK 924 INTRA-LIGAND FREE ENERGY PREDICTED BY IDOCK:   -0.59 KCAL/MOL
REMARK 927      BINDING AFFINITY PREDICTED BY RF-SCORE:    0.00 PKD
ROOT
HETATM    1  C   UNL     1      -6.317  19.720  69.850  1.00  0.00    -0.377 C  
HETATM    2  C   UNL     1      -7.389  19.602  68.766  1.00  0.00    -0.336 C  
HETATM    3  C   UNL     1      -7.268  20.744  67.763  1.00  0.00    -0.279 C  
ENDROOT
BRANCH   2   4
HETATM    4  N   UNL     1      -7.246  18.314  68.091  1.00  0.00    -0.242 NA 
HETATM    5  H   UNL     1      -6.309  17.929  67.967  1.00  0.00     0.000 HD 
BRANCH   4   6
HETATM    6  C   UNL     1      -8.334  17.591  67.609  1.00  0.00    -0.214 A  
HETATM    7  C   UNL     1      -9.584  17.575  68.226  1.00  0.00    -0.299 A  
HETATM    8  C   UNL     1     -10.597  16.705  67.809  1.00  0.00    -0.342 A  
HETATM    9  C   UNL     1     -10.391  15.810  66.757  1.00  0.00    -0.293 A  
HETATM   10  C   UNL     1      -8.143  16.705  66.536  1.00  0.00    -0.337 A  
HETATM   11  C   UNL     1      -9.161  15.837  66.102  1.00  0.00    -0.377 A  
BRANCH   9  12
HETATM   12  N   UNL     1     -11.416  14.890  66.476  1.00  0.00    -0.324 NA 
HETATM   13  H   UNL     1     -12.274  15.041  67.007  1.00  0.00     0.000 HD 
BRANCH  12  14
HETATM   14  C   UNL     1     -11.467  13.799  65.592  1.00  0.00    -0.310 A  
HETATM   15  C   UNL     1     -12.094  13.957  64.346  1.00  0.00    -0.477 A  
HETATM   16  C   UNL     1     -12.092  12.927  63.403  1.00  0.00    -0.610 A  
HETATM   17  C   UNL     1     -11.452  11.725  63.690  1.00  0.00    -0.524 A  
HETATM   18  C   UNL     1     -10.835  11.548  64.928  1.00  0.00    -0.345 A  
HETATM   19  C   UNL     1     -10.851  12.576  65.877  1.00  0.00    -0.302 A  
ENDBRANCH  12  14
ENDBRANCH   9  12
ENDBRANCH   4   6
ENDBRANCH   2   4
TORSDOF 4
ENDMDL
MODEL       56
REMARK 921   NORMALIZED FREE ENERGY PREDICTED BY IDOCK:   -4.89 KCAL/MOL
REMARK 922        TOTAL FREE ENERGY PREDICTED BY IDOCK:   -6.58 KCAL/MOL
REMARK 923 INTER-LIGAND FREE ENERGY PREDICTED BY IDOCK:   -5.99 KCAL/MOL
REMARK 924 INTRA-LIGAND FREE ENERGY PREDICTED BY IDOCK:   -0.59 KCAL/MOL
REMARK 927      BINDING AFFINITY PREDICTED BY RF-SCORE:    0.00 PKD
ROOT
HETATM    1  C   UNL     1     -14.331  15.337  71.949  1.00  0.00    -0.691 C  
HETATM    2  C   UNL     1     -12.831  15.433  71.675  1.00  0.00    -0.419 C  
HETATM    3  C   UNL     1     -12.130  16.216  72.779  1.00  0.00    -0.653 C  
ENDROOT
BRANCH   2   4
HETATM    4  N   UNL     1     -12.276  14.084  71.577  1.00  0.00    -0.319 NA 
HETATM    5  H   UNL     1     -11.907  13.645  72.422  1.00  0.00     0.000 HD 
BRANCH   4   6
HETATM    6  C   UNL     1     -12.229  13.373  70.381  1.00  0.00    -0.345 A  
HETATM    7  C   UNL     1     -12.146  11.983  70.312  1.00  0.00    -0.395 A  
HETATM    8  C   UNL     1     -11.929  11.320  69.099  1.00  0.00    -0.405 A  
HETATM    9  C   UNL     1     -11.779  12.031  67.906  1.00  0.00    -0.323 A  
HETATM   10  C   UNL     1     -12.101  14.078  69.173  1.00  0.00    -0.375 A  
HETATM   11  C   UNL     1     -11.896  13.419  67.948  1.00  0.00    -0.392 A  
BRANCH   9  12
HETATM   12  N   UNL     1     -11.448  11.300  66.751  1.00  0.00    -0.397 NA 
HETATM   13  H   UNL     1     -12.172  11.300  66.032  1.00  0.00     0.000 HD 
BRANCH  12  14
HETATM   14  C   UNL     1     -10.296  10.570  66.413  1.00  0.00    -0.221 A  
HETATM   15  C   UNL     1     -10.286   9.181  66.604  1.00  0.00    -0.289 A  
HETATM   16  C   UNL     1      -9.196   8.406  66.202  1.00  0.00    -0.263 A  
HETATM   17  C   UNL     1      -8.102   9.012  65.592  1.00  0.00    -0.115 A  
HETATM   18  C   UNL     1      -8.091  10.394  65.405  1.00  0.00    -0.152 A  
HETATM   19  C   UNL     1      -9.178  11.170  65.823  1.00  0.00    -0.234 A  
ENDBRANCH  12  14
ENDBRANCH   9  12
ENDBRANCH   4   6
ENDBRANCH   2   4
TORSDOF 4
ENDMDL
MODEL       57
REMARK 921   NORMALIZED FREE ENERGY PREDICTED BY IDOCK:   -4.88 KCAL/MOL
REMARK 922        TOTAL FREE ENERGY PREDICTED BY IDOCK:   -6.57 KCAL/MOL
REMARK 923 INTER-LIGAND FREE ENERGY PREDICTED BY IDOCK:   -6.16 KCAL/MOL
REMARK 924 INTRA-LIGAND FREE ENERGY PREDICTED BY IDOCK:   -0.40 KCAL/MOL
REMARK 927      BINDING AFFINITY PREDICTED BY RF-SCORE:    0.00 PKD
ROOT
HETATM    1  C   UNL     1     -10.607  19.502  65.801  1.00  0.00    -0.522 C  
HETATM    2  C   UNL     1      -9.477  18.866  66.610  1.00  0.00    -0.334 C  
HETATM    3  C   UNL     1      -9.922  18.607  68.046  1.00  0.00    -0.389 C  
ENDROOT
BRANCH   2   4
HETATM    4  N   UNL     1      -9.075  17.615  65.969  1.00  0.00    -0.514 NA 
HETATM    5  H   UNL     1      -8.470  17.659  65.148  1.00  0.00     0.000 HD 
BRANCH   4   6
HETATM    6  C   UNL     1      -9.484  16.366  66.431  1.00  0.00    -0.293 A  
HETATM    7  C   UNL     1     -10.729  15.808  66.146  1.00  0.00    -0.293 A  
HETATM    8  C   UNL     1     -11.166  14.633  66.767  1.00  0.00    -0.344 A  
HETATM    9  C   UNL     1     -10.369  13.976  67.708  1.00  0.00    -0.236 A  
HETATM   10  C   UNL     1      -8.680  15.686  67.360  1.00  0.00    -0.194 A  
HETATM   11  C   UNL     1      -9.105  14.498  67.979  1.00  0.00    -0.185 A  
BRANCH   9  12
HETATM   12  N   UNL     1     -10.926  12.869  68.372  1.00  0.00    -0.246 NA 
HETATM   13  H   UNL     1     -10.721  11.969  67.936  1.00  0.00     0.000 HD 
BRANCH  12  14
HETATM   14  C   UNL     1     -11.716  12.783  69.531  1.00  0.00    -0.318 A  
HETATM   15  C   UNL     1     -11.959  11.524  70.101  1.00  0.00    -0.452 A  
HETATM   16  C   UNL     1     -12.665  11.401  71.300  1.00  0.00    -0.498 A  
HETATM   17  C   UNL     1     -13.129  12.539  71.951  1.00  0.00    -0.473 A  
HETATM   18  C   UNL     1     -12.906  13.797  71.392  1.00  0.00    -0.449 A  
HETATM   19  C   UNL     1     -12.212  13.917  70.183  1.00  0.00    -0.425 A  
ENDBRANCH  12  14
ENDBRANCH   9  12
ENDBRANCH   4   6
ENDBRANCH   2   4
TORSDOF 4
ENDMDL
MODEL       58
REMARK 921   NORMALIZED FREE ENERGY PREDICTED BY IDOCK:   -4.87 KCAL/MOL
REMARK 922        TOTAL FREE ENERGY PREDICTED BY IDOCK:   -6.56 KCAL/MOL
REMARK 923 INTER-LIGAND FREE ENERGY PREDICTED BY IDOCK:   -6.34 KCAL/MOL
REMARK 924 INTRA-LIGAND FREE ENERGY PREDICTED BY IDOCK:   -0.22 KCAL/MOL
REMARK 927      BINDING AFFINITY PREDICTED BY RF-SCORE:    0.00 PKD
ROOT
HETATM    1  C   UNL     1     -10.776  12.115  63.316  1.00  0.00    -0.373 C  
HETATM    2  C   UNL     1      -9.785  11.109  63.900  1.00  0.00    -0.286 C  
HETATM    3  C   UNL     1      -8.694  10.777  62.887  1.00  0.00    -0.237 C  
ENDROOT
BRANCH   2   4
HETATM    4  N   UNL     1      -9.197  11.669  65.115  1.00  0.00    -0.413 NA 
HETATM    5  H   UNL     1      -8.210  11.928  65.106  1.00  0.00     0.000 HD 
BRANCH   4   6
HETATM    6  C   UNL     1      -9.927  11.863  66.285  1.00  0.00    -0.220 A  
HETATM    7  C   UNL     1      -9.694  12.911  67.175  1.00  0.00    -0.221 A  
HETATM    8  C   UNL     1     -10.331  12.972  68.419  1.00  0.00    -0.257 A  
HETATM    9  C   UNL     1     -11.224  11.976  68.821  1.00  0.00    -0.263 A  
HETATM   10  C   UNL     1     -10.844  10.879  66.688  1.00  0.00    -0.258 A  
HETATM   11  C   UNL     1     -11.499  10.940  67.931  1.00  0.00    -0.344 A  
BRANCH   9  12
HETATM   12  N   UNL     1     -11.733  12.049  70.130  1.00  0.00    -0.511 NA 
HETATM   13  H   UNL     1     -11.526  11.233  70.708  1.00  0.00     0.000 HD 
BRANCH  12  14
HETATM   14  C   UNL     1     -12.476  13.047  70.783  1.00  0.00    -0.302 A  
HETATM   15  C   UNL     1     -12.418  14.365  70.305  1.00  0.00    -0.413 A  
HETATM   16  C   UNL     1     -13.207  15.371  70.870  1.00  0.00    -0.512 A  
HETATM   17  C   UNL     1     -14.073  15.067  71.916  1.00  0.00    -0.627 A  
HETATM   18  C   UNL     1     -14.133  13.765  72.410  1.00  0.00    -0.593 A  
HETATM   19  C   UNL     1     -13.331  12.763  71.853  1.00  0.00    -0.510 A  
ENDBRANCH  12  14
ENDBRANCH   9  12
ENDBRANCH   4   6
ENDBRANCH   2   4
TORSDOF 4
ENDMDL
MODEL       59
REMARK 921   NORMALIZED FREE ENERGY PREDICTED BY IDOCK:   -4.86 KCAL/MOL
REMARK 922        TOTAL FREE ENERGY PREDICTED BY IDOCK:   -6.55 KCAL/MOL
REMARK 923 INTER-LIGAND FREE ENERGY PREDICTED BY IDOCK:   -6.06 KCAL/MOL
REMARK 924 INTRA-LIGAND FREE ENERGY PREDICTED BY IDOCK:   -0.48 KCAL/MOL
REMARK 927      BINDING AFFINITY PREDICTED BY RF-SCORE:    0.00 PKD
ROOT
HETATM    1  C   UNL     1      -8.288  19.229  67.217  1.00  0.00    -0.309 C  
HETATM    2  C   UNL     1      -9.561  18.684  67.863  1.00  0.00    -0.310 C  
HETATM    3  C   UNL     1     -10.786  19.442  67.364  1.00  0.00    -0.555 C  
ENDROOT
BRANCH   2   4
HETATM    4  N   UNL     1      -9.682  17.261  67.553  1.00  0.00    -0.259 NA 
HETATM    5  H   UNL     1      -9.117  16.876  66.795  1.00  0.00     0.000 HD 
BRANCH   4   6
HETATM    6  C   UNL     1     -10.537  16.408  68.247  1.00  0.00    -0.318 A  
HETATM    7  C   UNL     1     -10.712  16.450  69.630  1.00  0.00    -0.337 A  
HETATM    8  C   UNL     1     -11.446  15.470  70.306  1.00  0.00    -0.352 A  
HETATM    9  C   UNL     1     -12.027  14.402  69.619  1.00  0.00    -0.336 A  
HETATM   10  C   UNL     1     -11.145  15.344  67.561  1.00  0.00    -0.315 A  
HETATM   11  C   UNL     1     -11.895  14.362  68.232  1.00  0.00    -0.361 A  
BRANCH   9  12
HETATM   12  N   UNL     1     -12.647  13.397  70.383  1.00  0.00    -0.220 NA 
HETATM   13  H   UNL     1     -13.486  13.703  70.879  1.00  0.00     0.000 HD 
BRANCH  12  14
HETATM   14  C   UNL     1     -12.316  12.047  70.584  1.00  0.00    -0.304 A  
HETATM   15  C   UNL     1     -13.029  11.303  71.536  1.00  0.00    -0.520 A  
HETATM   16  C   UNL     1     -12.793   9.937  71.707  1.00  0.00    -0.540 A  
HETATM   17  C   UNL     1     -11.844   9.294  70.918  1.00  0.00    -0.346 A  
HETATM   18  C   UNL     1     -11.119  10.021  69.975  1.00  0.00    -0.350 A  
HETATM   19  C   UNL     1     -11.347  11.393  69.817  1.00  0.00    -0.332 A  
ENDBRANCH  12  14
ENDBRANCH   9  12
ENDBRANCH   4   6
ENDBRANCH   2   4
TORSDOF 4
ENDMDL
MODEL       60
REMARK 921   NORMALIZED FREE ENERGY PREDICTED BY IDOCK:   -4.86 KCAL/MOL
REMARK 922        TOTAL FREE ENERGY PREDICTED BY IDOCK:   -6.54 KCAL/MOL
REMARK 923 INTER-LIGAND FREE ENERGY PREDICTED BY IDOCK:   -6.06 KCAL/MOL
REMARK 924 INTRA-LIGAND FREE ENERGY PREDICTED BY IDOCK:   -0.49 KCAL/MOL
REMARK 927      BINDING AFFINITY PREDICTED BY RF-SCORE:    0.00 PKD
ROOT
HETATM    1  C   UNL     1     -10.254   9.737  68.184  1.00  0.00    -0.220 C  
HETATM    2  C   UNL     1     -11.475  10.623  67.939  1.00  0.00    -0.181 C  
HETATM    3  C   UNL     1     -11.630  11.648  69.058  1.00  0.00    -0.379 C  
ENDROOT
BRANCH   2   4
HETATM    4  N   UNL     1     -11.326  11.296  66.650  1.00  0.00    -0.351 NA 
HETATM    5  H   UNL     1     -11.405  10.741  65.797  1.00  0.00     0.000 HD 
BRANCH   4   6
HETATM    6  C   UNL     1     -11.081  12.662  66.538  1.00  0.00    -0.280 A  
HETATM    7  C   UNL     1     -12.078  13.607  66.293  1.00  0.00    -0.477 A  
HETATM    8  C   UNL     1     -11.770  14.943  66.018  1.00  0.00    -0.173 A  
HETATM    9  C   UNL     1     -10.445  15.382  65.969  1.00  0.00    -0.321 A  
HETATM   10  C   UNL     1      -9.753  13.118  66.511  1.00  0.00    -0.268 A  
HETATM   11  C   UNL     1      -9.436  14.462  66.248  1.00  0.00    -0.297 A  
BRANCH   9  12
HETATM   12  N   UNL     1     -10.214  16.711  65.572  1.00  0.00    -0.596 NA 
HETATM   13  H   UNL     1     -10.047  16.828  64.571  1.00  0.00     0.000 HD 
BRANCH  12  14
HETATM   14  C   UNL     1     -10.173  17.907  66.309  1.00  0.00    -0.363 A  
HETATM   15  C   UNL     1      -9.788  17.866  67.657  1.00  0.00    -0.304 A  
HETATM   16  C   UNL     1      -9.650  19.039  68.402  1.00  0.00    -0.429 A  
HETATM   17  C   UNL     1      -9.886  20.273  67.803  1.00  0.00    -0.534 A  
HETATM   18  C   UNL     1     -10.281  20.330  66.467  1.00  0.00    -0.477 A  
HETATM   19  C   UNL     1     -10.433  19.152  65.727  1.00  0.00    -0.404 A  
ENDBRANCH  12  14
ENDBRANCH   9  12
ENDBRANCH   4   6
ENDBRANCH   2   4
TORSDOF 4
ENDMDL
MODEL       61
REMARK 921   NORMALIZED FREE ENERGY PREDICTED BY IDOCK:   -4.76 KCAL/MOL
REMARK 922        TOTAL FREE ENERGY PREDICTED BY IDOCK:   -6.42 KCAL/MOL
REMARK 923 INTER-LIGAND FREE ENERGY PREDICTED BY IDOCK:   -5.80 KCAL/MOL
REMARK 924 INTRA-LIGAND FREE ENERGY PREDICTED BY IDOCK:   -0.62 KCAL/MOL
REMARK 927      BINDING AFFINITY PREDICTED BY RF-SCORE:    0.00 PKD
ROOT
HETATM    1  C   UNL     1      -5.739  19.969  71.009  1.00  0.00    -0.346 C  
HETATM    2  C   UNL     1      -6.290  20.054  69.586  1.00  0.00    -0.352 C  
HETATM    3  C   UNL     1      -5.494  21.057  68.759  1.00  0.00    -0.371 C  
ENDROOT
BRANCH   2   4
HETATM    4  N   UNL     1      -6.231  18.729  68.972  1.00  0.00    -0.232 NA 
HETATM    5  H   UNL     1      -5.466  18.104  69.229  1.00  0.00     0.000 HD 
BRANCH   4   6
HETATM    6  C   UNL     1      -7.176  18.283  68.050  1.00  0.00    -0.236 A  
HETATM    7  C   UNL     1      -8.445  18.845  67.914  1.00  0.00    -0.318 A  
HETATM    8  C   UNL     1      -9.422  18.261  67.100  1.00  0.00    -0.268 A  
HETATM    9  C   UNL     1      -9.163  17.083  66.395  1.00  0.00    -0.271 A  
HETATM   10  C   UNL     1      -6.917  17.113  67.319  1.00  0.00    -0.196 A  
HETATM   11  C   UNL     1      -7.888  16.527  66.488  1.00  0.00    -0.338 A  
BRANCH   9  12
HETATM   12  N   UNL     1     -10.231  16.498  65.693  1.00  0.00    -0.535 NA 
HETATM   13  H   UNL     1     -10.682  17.118  65.019  1.00  0.00     0.000 HD 
BRANCH  12  14
HETATM   14  C   UNL     1     -10.787  15.209  65.756  1.00  0.00    -0.353 A  
HETATM   15  C   UNL     1     -10.786  14.407  64.604  1.00  0.00    -0.363 A  
HETATM   16  C   UNL     1     -11.249  13.090  64.643  1.00  0.00    -0.355 A  
HETATM   17  C   UNL     1     -11.711  12.553  65.841  1.00  0.00    -0.480 A  
HETATM   18  C   UNL     1     -11.729  13.340  66.991  1.00  0.00    -0.439 A  
HETATM   19  C   UNL     1     -11.279  14.664  66.946  1.00  0.00    -0.345 A  
ENDBRANCH  12  14
ENDBRANCH   9  12
ENDBRANCH   4   6
ENDBRANCH   2   4
TORSDOF 4
ENDMDL
MODEL       62
REMARK 921   NORMALIZED FREE ENERGY PREDICTED BY IDOCK:   -4.70 KCAL/MOL
REMARK 922        TOTAL FREE ENERGY PREDICTED BY IDOCK:   -6.35 KCAL/MOL
REMARK 923 INTER-LIGAND FREE ENERGY PREDICTED BY IDOCK:   -6.14 KCAL/MOL
REMARK 924 INTRA-LIGAND FREE ENERGY PREDICTED BY IDOCK:   -0.21 KCAL/MOL
REMARK 927      BINDING AFFINITY PREDICTED BY RF-SCORE:    0.00 PKD
ROOT
HETATM    1  C   UNL     1      -8.215  19.111  66.211  1.00  0.00    -0.309 C  
HETATM    2  C   UNL     1      -9.598  18.757  66.755  1.00  0.00    -0.321 C  
HETATM    3  C   UNL     1     -10.688  19.469  65.961  1.00  0.00    -0.529 C  
ENDROOT
BRANCH   2   4
HETATM    4  N   UNL     1      -9.782  17.308  66.684  1.00  0.00    -0.275 NA 
HETATM    5  H   UNL     1      -9.398  16.805  65.884  1.00  0.00     0.000 HD 
BRANCH   4   6
HETATM    6  C   UNL     1     -10.460  16.586  67.664  1.00  0.00    -0.305 A  
HETATM    7  C   UNL     1     -10.391  16.880  69.025  1.00  0.00    -0.333 A  
HETATM    8  C   UNL     1     -10.946  16.030  69.988  1.00  0.00    -0.365 A  
HETATM    9  C   UNL     1     -11.589  14.846  69.620  1.00  0.00    -0.303 A  
HETATM   10  C   UNL     1     -11.129  15.406  67.301  1.00  0.00    -0.302 A  
HETATM   11  C   UNL     1     -11.702  14.554  68.262  1.00  0.00    -0.368 A  
BRANCH   9  12
HETATM   12  N   UNL     1     -12.017  13.991  70.650  1.00  0.00    -0.422 NA 
HETATM   13  H   UNL     1     -12.255  14.468  71.521  1.00  0.00     0.000 HD 
BRANCH  12  14
HETATM   14  C   UNL     1     -12.174  12.595  70.693  1.00  0.00    -0.285 A  
HETATM   15  C   UNL     1     -11.536  11.805  69.725  1.00  0.00    -0.372 A  
HETATM   16  C   UNL     1     -11.594  10.411  69.781  1.00  0.00    -0.339 A  
HETATM   17  C   UNL     1     -12.285   9.787  70.816  1.00  0.00    -0.342 A  
HETATM   18  C   UNL     1     -12.934  10.558  71.779  1.00  0.00    -0.582 A  
HETATM   19  C   UNL     1     -12.887  11.955  71.712  1.00  0.00    -0.389 A  
ENDBRANCH  12  14
ENDBRANCH   9  12
ENDBRANCH   4   6
ENDBRANCH   2   4
TORSDOF 4
ENDMDL
MODEL       63
REMARK 921   NORMALIZED FREE ENERGY PREDICTED BY IDOCK:   -4.69 KCAL/MOL
REMARK 922        TOTAL FREE ENERGY PREDICTED BY IDOCK:   -6.33 KCAL/MOL
REMARK 923 INTER-LIGAND FREE ENERGY PREDICTED BY IDOCK:   -5.73 KCAL/MOL
REMARK 924 INTRA-LIGAND FREE ENERGY PREDICTED BY IDOCK:   -0.61 KCAL/MOL
REMARK 927      BINDING AFFINITY PREDICTED BY RF-SCORE:    0.00 PKD
ROOT
HETATM    1  C   UNL     1     -11.144  15.028  65.510  1.00  0.00    -0.358 C  
HETATM    2  C   UNL     1     -11.874  13.913  66.259  1.00  0.00    -0.408 C  
HETATM    3  C   UNL     1     -12.539  12.952  65.280  1.00  0.00    -0.502 C  
ENDROOT
BRANCH   2   4
HETATM    4  N   UNL     1     -10.916  13.199  67.102  1.00  0.00    -0.264 NA 
HETATM    5  H   UNL     1      -9.919  13.327  66.926  1.00  0.00     0.000 HD 
BRANCH   4   6
HETATM    6  C   UNL     1     -11.309  12.350  68.134  1.00  0.00    -0.291 A  
HETATM    7  C   UNL     1     -11.931  12.791  69.301  1.00  0.00    -0.300 A  
HETATM    8  C   UNL     1     -12.153  11.932  70.383  1.00  0.00    -0.421 A  
HETATM    9  C   UNL     1     -11.750  10.596  70.337  1.00  0.00    -0.353 A  
HETATM   10  C   UNL     1     -10.929  10.999  68.087  1.00  0.00    -0.301 A  
HETATM   11  C   UNL     1     -11.160  10.126  69.165  1.00  0.00    -0.257 A  
BRANCH   9  12
HETATM   12  N   UNL     1     -11.904   9.830  71.507  1.00  0.00    -0.399 NA 
HETATM   13  H   UNL     1     -12.409  10.304  72.256  1.00  0.00     0.000 HD 
BRANCH  12  14
HETATM   14  C   UNL     1     -11.483   8.528  71.825  1.00  0.00    -0.310 A  
HETATM   15  C   UNL     1     -10.233   8.343  72.435  1.00  0.00    -0.399 A  
HETATM   16  C   UNL     1      -9.813   7.076  72.847  1.00  0.00    -0.204 A  
HETATM   17  C   UNL     1     -10.646   5.976  72.663  1.00  0.00    -0.251 A  
HETATM   18  C   UNL     1     -11.886   6.141  72.048  1.00  0.00    -0.336 A  
HETATM   19  C   UNL     1     -12.298   7.409  71.622  1.00  0.00    -0.373 A  
ENDBRANCH  12  14
ENDBRANCH   9  12
ENDBRANCH   4   6
ENDBRANCH   2   4
TORSDOF 4
ENDMDL
MODEL       64
REMARK 921   NORMALIZED FREE ENERGY PREDICTED BY IDOCK:   -4.67 KCAL/MOL
REMARK 922        TOTAL FREE ENERGY PREDICTED BY IDOCK:   -6.32 KCAL/MOL
REMARK 923 INTER-LIGAND FREE ENERGY PREDICTED BY IDOCK:   -6.10 KCAL/MOL
REMARK 924 INTRA-LIGAND FREE ENERGY PREDICTED BY IDOCK:   -0.22 KCAL/MOL
REMARK 927      BINDING AFFINITY PREDICTED BY RF-SCORE:    0.00 PKD
ROOT
HETATM    1  C   UNL     1     -13.752  13.415  72.322  1.00  0.00    -0.705 C  
HETATM    2  C   UNL     1     -14.070  14.909  72.266  1.00  0.00    -0.499 C  
HETATM    3  C   UNL     1     -13.255  15.673  73.304  1.00  0.00    -0.666 C  
ENDROOT
BRANCH   2   4
HETATM    4  N   UNL     1     -13.779  15.409  70.923  1.00  0.00    -0.814 NA 
HETATM    5  H   UNL     1     -14.523  15.876  70.403  1.00  0.00     0.000 HD 
BRANCH   4   6
HETATM    6  C   UNL     1     -12.529  15.273  70.323  1.00  0.00    -0.363 A  
HETATM    7  C   UNL     1     -11.470  16.155  70.539  1.00  0.00    -0.363 A  
HETATM    8  C   UNL     1     -10.292  16.082  69.789  1.00  0.00    -0.265 A  
HETATM    9  C   UNL     1     -10.133  15.124  68.786  1.00  0.00    -0.226 A  
HETATM   10  C   UNL     1     -12.352  14.298  69.329  1.00  0.00    -0.197 A  
HETATM   11  C   UNL     1     -11.165  14.210  68.580  1.00  0.00    -0.291 A  
BRANCH   9  12
HETATM   12  N   UNL     1      -8.969  15.191  68.001  1.00  0.00    -0.170 NA 
HETATM   13  H   UNL     1      -8.463  14.308  67.921  1.00  0.00     0.000 HD 
BRANCH  12  14
HETATM   14  C   UNL     1      -8.378  16.260  67.306  1.00  0.00    -0.180 A  
HETATM   15  C   UNL     1      -9.170  17.361  66.944  1.00  0.00    -0.266 A  
HETATM   16  C   UNL     1      -8.606  18.482  66.330  1.00  0.00    -0.272 A  
HETATM   17  C   UNL     1      -7.238  18.521  66.080  1.00  0.00    -0.290 A  
HETATM   18  C   UNL     1      -6.440  17.431  66.422  1.00  0.00    -0.283 A  
HETATM   19  C   UNL     1      -7.009  16.302  67.023  1.00  0.00    -0.250 A  
ENDBRANCH  12  14
ENDBRANCH   9  12
ENDBRANCH   4   6
ENDBRANCH   2   4
TORSDOF 4
ENDMDL
MODEL       65
REMARK 921   NORMALIZED FREE ENERGY PREDICTED BY IDOCK:   -4.66 KCAL/MOL
REMARK 922        TOTAL FREE ENERGY PREDICTED BY IDOCK:   -6.31 KCAL/MOL
REMARK 923 INTER-LIGAND FREE ENERGY PREDICTED BY IDOCK:   -5.76 KCAL/MOL
REMARK 924 INTRA-LIGAND FREE ENERGY PREDICTED BY IDOCK:   -0.54 KCAL/MOL
REMARK 927      BINDING AFFINITY PREDICTED BY RF-SCORE:    0.00 PKD
ROOT
HETATM    1  C   UNL     1      -8.797  16.261  66.193  1.00  0.00    -0.362 C  
HETATM    2  C   UNL     1     -10.011  15.334  66.160  1.00  0.00    -0.302 C  
HETATM    3  C   UNL     1     -10.851  15.588  64.913  1.00  0.00    -0.447 C  
ENDROOT
BRANCH   2   4
HETATM    4  N   UNL     1      -9.553  13.946  66.190  1.00  0.00    -0.434 NA 
HETATM    5  H   UNL     1      -8.724  13.694  65.650  1.00  0.00     0.000 HD 
BRANCH   4   6
HETATM    6  C   UNL     1     -10.200  12.954  66.923  1.00  0.00    -0.242 A  
HETATM    7  C   UNL     1     -11.090  13.220  67.963  1.00  0.00    -0.282 A  
HETATM    8  C   UNL     1     -11.585  12.201  68.783  1.00  0.00    -0.380 A  
HETATM    9  C   UNL     1     -11.198  10.872  68.595  1.00  0.00    -0.267 A  
HETATM   10  C   UNL     1      -9.835  11.612  66.725  1.00  0.00    -0.222 A  
HETATM   11  C   UNL     1     -10.339  10.580  67.537  1.00  0.00    -0.265 A  
BRANCH   9  12
HETATM   12  N   UNL     1     -11.648   9.925  69.532  1.00  0.00    -0.456 NA 
HETATM   13  H   UNL     1     -12.607   9.610  69.385  1.00  0.00     0.000 HD 
BRANCH  12  14
HETATM   14  C   UNL     1     -11.008   9.337  70.636  1.00  0.00    -0.276 A  
HETATM   15  C   UNL     1     -11.788   8.757  71.649  1.00  0.00    -0.399 A  
HETATM   16  C   UNL     1     -11.193   8.086  72.720  1.00  0.00    -0.448 A  
HETATM   17  C   UNL     1      -9.808   7.976  72.786  1.00  0.00    -0.351 A  
HETATM   18  C   UNL     1      -9.019   8.556  71.794  1.00  0.00    -0.288 A  
HETATM   19  C   UNL     1      -9.616   9.242  70.730  1.00  0.00    -0.341 A  
ENDBRANCH  12  14
ENDBRANCH   9  12
ENDBRANCH   4   6
ENDBRANCH   2   4
TORSDOF 4
ENDMDL
MODEL       66
REMARK 921   NORMALIZED FREE ENERGY PREDICTED BY IDOCK:   -4.66 KCAL/MOL
REMARK 922        TOTAL FREE ENERGY PREDICTED BY IDOCK:   -6.30 KCAL/MOL
REMARK 923 INTER-LIGAND FREE ENERGY PREDICTED BY IDOCK:   -5.84 KCAL/MOL
REMARK 924 INTRA-LIGAND FREE ENERGY PREDICTED BY IDOCK:   -0.45 KCAL/MOL
REMARK 927      BINDING AFFINITY PREDICTED BY RF-SCORE:    0.00 PKD
ROOT
HETATM    1  C   UNL     1     -10.690  14.527  64.721  1.00  0.00    -0.414 C  
HETATM    2  C   UNL     1     -11.264  13.111  64.683  1.00  0.00    -0.340 C  
HETATM    3  C   UNL     1     -11.963  12.848  63.354  1.00  0.00    -0.612 C  
ENDROOT
BRANCH   2   4
HETATM    4  N   UNL     1     -10.180  12.151  64.887  1.00  0.00    -0.276 NA 
HETATM    5  H   UNL     1      -9.354  12.213  64.291  1.00  0.00     0.000 HD 
BRANCH   4   6
HETATM    6  C   UNL     1     -10.229  11.156  65.860  1.00  0.00    -0.251 A  
HETATM    7  C   UNL     1      -9.779   9.852  65.653  1.00  0.00    -0.346 A  
HETATM    8  C   UNL     1     -10.001   8.842  66.594  1.00  0.00    -0.355 A  
HETATM    9  C   UNL     1     -10.692   9.101  67.780  1.00  0.00    -0.179 A  
HETATM   10  C   UNL     1     -10.901  11.413  67.066  1.00  0.00    -0.331 A  
HETATM   11  C   UNL     1     -11.117  10.406  68.023  1.00  0.00    -0.359 A  
BRANCH   9  12
HETATM   12  N   UNL     1     -10.976   8.008  68.619  1.00  0.00    -0.412 NA 
HETATM   13  H   UNL     1     -11.363   7.196  68.136  1.00  0.00     0.000 HD 
BRANCH  12  14
HETATM   14  C   UNL     1     -10.821   7.838  70.005  1.00  0.00    -0.241 A  
HETATM   15  C   UNL     1      -9.973   8.704  70.710  1.00  0.00    -0.241 A  
HETATM   16  C   UNL     1      -9.857   8.626  72.100  1.00  0.00    -0.387 A  
HETATM   17  C   UNL     1     -10.598   7.683  72.805  1.00  0.00    -0.381 A  
HETATM   18  C   UNL     1     -11.437   6.807  72.118  1.00  0.00    -0.319 A  
HETATM   19  C   UNL     1     -11.540   6.877  70.724  1.00  0.00    -0.397 A  
ENDBRANCH  12  14
ENDBRANCH   9  12
ENDBRANCH   4   6
ENDBRANCH   2   4
TORSDOF 4
ENDMDL
MODEL       67
REMARK 921   NORMALIZED FREE ENERGY PREDICTED BY IDOCK:   -4.65 KCAL/MOL
REMARK 922        TOTAL FREE ENERGY PREDICTED BY IDOCK:   -6.29 KCAL/MOL
REMARK 923 INTER-LIGAND FREE ENERGY PREDICTED BY IDOCK:   -5.68 KCAL/MOL
REMARK 924 INTRA-LIGAND FREE ENERGY PREDICTED BY IDOCK:   -0.60 KCAL/MOL
REMARK 927      BINDING AFFINITY PREDICTED BY RF-SCORE:    0.00 PKD
ROOT
HETATM    1  C   UNL     1     -11.770  12.995  67.119  1.00  0.00    -0.439 C  
HETATM    2  C   UNL     1     -11.111  13.082  68.495  1.00  0.00    -0.266 C  
HETATM    3  C   UNL     1     -10.525  14.470  68.725  1.00  0.00    -0.246 C  
ENDROOT
BRANCH   2   4
HETATM    4  N   UNL     1     -12.106  12.773  69.521  1.00  0.00    -0.251 NA 
HETATM    5  H   UNL     1     -12.895  13.409  69.643  1.00  0.00     0.000 HD 
BRANCH   4   6
HETATM    6  C   UNL     1     -12.021  11.649  70.339  1.00  0.00    -0.358 A  
HETATM    7  C   UNL     1     -11.113  10.611  70.132  1.00  0.00    -0.341 A  
HETATM    8  C   UNL     1     -11.175   9.425  70.870  1.00  0.00    -0.393 A  
HETATM    9  C   UNL     1     -12.159   9.231  71.843  1.00  0.00    -0.370 A  
HETATM   10  C   UNL     1     -12.992  11.456  71.335  1.00  0.00    -0.468 A  
HETATM   11  C   UNL     1     -13.052  10.272  72.091  1.00  0.00    -0.444 A  
BRANCH   9  12
HETATM   12  N   UNL     1     -12.225   7.969  72.458  1.00  0.00    -0.560 NA 
HETATM   13  H   UNL     1     -13.151   7.721  72.810  1.00  0.00     0.000 HD 
BRANCH  12  14
HETATM   14  C   UNL     1     -11.242   6.988  72.672  1.00  0.00    -0.272 A  
HETATM   15  C   UNL     1     -11.157   5.901  71.789  1.00  0.00    -0.324 A  
HETATM   16  C   UNL     1     -10.142   4.949  71.914  1.00  0.00    -0.262 A  
HETATM   17  C   UNL     1      -9.190   5.080  72.921  1.00  0.00    -0.144 A  
HETATM   18  C   UNL     1      -9.268   6.148  73.813  1.00  0.00    -0.133 A  
HETATM   19  C   UNL     1     -10.295   7.091  73.696  1.00  0.00    -0.412 A  
ENDBRANCH  12  14
ENDBRANCH   9  12
ENDBRANCH   4   6
ENDBRANCH   2   4
TORSDOF 4
ENDMDL
MODEL       68
REMARK 921   NORMALIZED FREE ENERGY PREDICTED BY IDOCK:   -4.61 KCAL/MOL
REMARK 922        TOTAL FREE ENERGY PREDICTED BY IDOCK:   -6.24 KCAL/MOL
REMARK 923 INTER-LIGAND FREE ENERGY PREDICTED BY IDOCK:   -5.64 KCAL/MOL
REMARK 924 INTRA-LIGAND FREE ENERGY PREDICTED BY IDOCK:   -0.60 KCAL/MOL
REMARK 927      BINDING AFFINITY PREDICTED BY RF-SCORE:    0.00 PKD
ROOT
HETATM    1  C   UNL     1      -5.941  20.058  69.234  1.00  0.00    -0.328 C  
HETATM    2  C   UNL     1      -7.217  19.828  68.425  1.00  0.00    -0.317 C  
HETATM    3  C   UNL     1      -7.302  20.811  67.262  1.00  0.00    -0.397 C  
ENDROOT
BRANCH   2   4
HETATM    4  N   UNL     1      -7.227  18.453  67.929  1.00  0.00    -0.226 NA 
HETATM    5  H   UNL     1      -6.341  18.026  67.655  1.00  0.00     0.000 HD 
BRANCH   4   6
HETATM    6  C   UNL     1      -8.394  17.702  67.815  1.00  0.00    -0.226 A  
HETATM    7  C   UNL     1      -9.502  17.867  68.645  1.00  0.00    -0.301 A  
HETATM    8  C   UNL     1     -10.584  16.981  68.609  1.00  0.00    -0.362 A  
HETATM    9  C   UNL     1     -10.592  15.888  67.740  1.00  0.00    -0.302 A  
HETATM   10  C   UNL     1      -8.421  16.614  66.928  1.00  0.00    -0.246 A  
HETATM   11  C   UNL     1      -9.511  15.727  66.876  1.00  0.00    -0.244 A  
BRANCH   9  12
HETATM   12  N   UNL     1     -11.661  14.980  67.847  1.00  0.00    -0.340 NA 
HETATM   13  H   UNL     1     -12.455  15.193  67.242  1.00  0.00     0.000 HD 
BRANCH  12  14
HETATM   14  C   UNL     1     -11.828  13.832  68.640  1.00  0.00    -0.374 A  
HETATM   15  C   UNL     1     -11.541  12.574  68.089  1.00  0.00    -0.390 A  
HETATM   16  C   UNL     1     -11.610  11.415  68.867  1.00  0.00    -0.388 A  
HETATM   17  C   UNL     1     -11.958  11.502  70.211  1.00  0.00    -0.455 A  
HETATM   18  C   UNL     1     -12.258  12.744  70.770  1.00  0.00    -0.338 A  
HETATM   19  C   UNL     1     -12.203  13.901  69.985  1.00  0.00    -0.408 A  
ENDBRANCH  12  14
ENDBRANCH   9  12
ENDBRANCH   4   6
ENDBRANCH   2   4
TORSDOF 4
ENDMDL
MODEL       69
REMARK 921   NORMALIZED FREE ENERGY PREDICTED BY IDOCK:   -4.60 KCAL/MOL
REMARK 922        TOTAL FREE ENERGY PREDICTED BY IDOCK:   -6.22 KCAL/MOL
REMARK 923 INTER-LIGAND FREE ENERGY PREDICTED BY IDOCK:   -5.63 KCAL/MOL
REMARK 924 INTRA-LIGAND FREE ENERGY PREDICTED BY IDOCK:   -0.59 KCAL/MOL
REMARK 927      BINDING AFFINITY PREDICTED BY RF-SCORE:    0.00 PKD
ROOT
HETATM    1  C   UNL     1     -11.568   8.684  72.283  1.00  0.00    -0.424 C  
HETATM    2  C   UNL     1     -12.715   9.353  71.526  1.00  0.00    -0.361 C  
HETATM    3  C   UNL     1     -14.061   8.921  72.096  1.00  0.00    -0.497 C  
ENDROOT
BRANCH   2   4
HETATM    4  N   UNL     1     -12.566  10.804  71.618  1.00  0.00    -0.382 NA 
HETATM    5  H   UNL     1     -12.631  11.245  72.536  1.00  0.00     0.000 HD 
BRANCH   4   6
HETATM    6  C   UNL     1     -12.341  11.610  70.505  1.00  0.00    -0.321 A  
HETATM    7  C   UNL     1     -12.086  11.109  69.229  1.00  0.00    -0.377 A  
HETATM    8  C   UNL     1     -11.697  11.946  68.177  1.00  0.00    -0.388 A  
HETATM    9  C   UNL     1     -11.541  13.320  68.369  1.00  0.00    -0.337 A  
HETATM   10  C   UNL     1     -12.205  12.997  70.683  1.00  0.00    -0.390 A  
HETATM   11  C   UNL     1     -11.828  13.846  69.627  1.00  0.00    -0.385 A  
BRANCH   9  12
HETATM   12  N   UNL     1     -11.035  14.074  67.295  1.00  0.00    -0.290 NA 
HETATM   13  H   UNL     1     -11.608  14.041  66.451  1.00  0.00     0.000 HD 
BRANCH  12  14
HETATM   14  C   UNL     1      -9.879  14.864  67.178  1.00  0.00    -0.231 A  
HETATM   15  C   UNL     1      -8.719  14.484  67.868  1.00  0.00    -0.165 A  
HETATM   16  C   UNL     1      -7.524  15.191  67.713  1.00  0.00    -0.179 A  
HETATM   17  C   UNL     1      -7.472  16.284  66.854  1.00  0.00    -0.271 A  
HETATM   18  C   UNL     1      -8.620  16.682  66.170  1.00  0.00    -0.324 A  
HETATM   19  C   UNL     1      -9.820  15.982  66.339  1.00  0.00    -0.308 A  
ENDBRANCH  12  14
ENDBRANCH   9  12
ENDBRANCH   4   6
ENDBRANCH   2   4
TORSDOF 4
ENDMDL
MODEL       70
REMARK 921   NORMALIZED FREE ENERGY PREDICTED BY IDOCK:   -4.60 KCAL/MOL
REMARK 922        TOTAL FREE ENERGY PREDICTED BY IDOCK:   -6.22 KCAL/MOL
REMARK 923 INTER-LIGAND FREE ENERGY PREDICTED BY IDOCK:   -5.72 KCAL/MOL
REMARK 924 INTRA-LIGAND FREE ENERGY PREDICTED BY IDOCK:   -0.50 KCAL/MOL
REMARK 927      BINDING AFFINITY PREDICTED BY RF-SCORE:    0.00 PKD
ROOT
HETATM    1  C   UNL     1     -10.356   8.937  66.876  1.00  0.00    -0.332 C  
HETATM    2  C   UNL     1      -9.676  10.144  66.230  1.00  0.00    -0.218 C  
HETATM    3  C   UNL     1      -9.606   9.977  64.716  1.00  0.00    -0.374 C  
ENDROOT
BRANCH   2   4
HETATM    4  N   UNL     1     -10.422  11.353  66.574  1.00  0.00    -0.240 NA 
HETATM    5  H   UNL     1     -11.326  11.254  67.038  1.00  0.00     0.000 HD 
BRANCH   4   6
HETATM    6  C   UNL     1      -9.952  12.634  66.295  1.00  0.00    -0.258 A  
HETATM    7  C   UNL     1      -9.007  13.297  67.078  1.00  0.00    -0.230 A  
HETATM    8  C   UNL     1      -8.690  14.642  66.862  1.00  0.00    -0.251 A  
HETATM    9  C   UNL     1      -9.315  15.377  65.853  1.00  0.00    -0.294 A  
HETATM   10  C   UNL     1     -10.558  13.375  65.267  1.00  0.00    -0.333 A  
HETATM   11  C   UNL     1     -10.234  14.723  65.035  1.00  0.00    -0.379 A  
BRANCH   9  12
HETATM   12  N   UNL     1      -9.027  16.751  65.776  1.00  0.00    -0.487 NA 
HETATM   13  H   UNL     1      -8.416  17.010  65.000  1.00  0.00     0.000 HD 
BRANCH  12  14
HETATM   14  C   UNL     1      -9.432  17.831  66.579  1.00  0.00    -0.290 A  
HETATM   15  C   UNL     1     -10.467  18.666  66.131  1.00  0.00    -0.473 A  
HETATM   16  C   UNL     1     -10.959  19.697  66.935  1.00  0.00    -0.389 A  
HETATM   17  C   UNL     1     -10.427  19.900  68.204  1.00  0.00    -0.472 A  
HETATM   18  C   UNL     1      -9.390  19.087  68.659  1.00  0.00    -0.428 A  
HETATM   19  C   UNL     1      -8.888  18.065  67.846  1.00  0.00    -0.269 A  
ENDBRANCH  12  14
ENDBRANCH   9  12
ENDBRANCH   4   6
ENDBRANCH   2   4
TORSDOF 4
ENDMDL
MODEL       71
REMARK 921   NORMALIZED FREE ENERGY PREDICTED BY IDOCK:   -4.58 KCAL/MOL
REMARK 922        TOTAL FREE ENERGY PREDICTED BY IDOCK:   -6.21 KCAL/MOL
REMARK 923 INTER-LIGAND FREE ENERGY PREDICTED BY IDOCK:   -5.63 KCAL/MOL
REMARK 924 INTRA-LIGAND FREE ENERGY PREDICTED BY IDOCK:   -0.58 KCAL/MOL
REMARK 927      BINDING AFFINITY PREDICTED BY RF-SCORE:    0.00 PKD
ROOT
HETATM    1  C   UNL     1      -8.809   7.017  70.492  1.00  0.00    -0.154 C  
HETATM    2  C   UNL     1     -10.252   7.474  70.275  1.00  0.00    -0.204 C  
HETATM    3  C   UNL     1     -11.232   6.439  70.818  1.00  0.00    -0.386 C  
ENDROOT
BRANCH   2   4
HETATM    4  N   UNL     1     -10.451   8.760  70.940  1.00  0.00    -0.208 NA 
HETATM    5  H   UNL     1     -10.224   8.838  71.933  1.00  0.00     0.000 HD 
BRANCH   4   6
HETATM    6  C   UNL     1     -10.937   9.884  70.277  1.00  0.00    -0.309 A  
HETATM    7  C   UNL     1     -10.455  10.319  69.042  1.00  0.00    -0.238 A  
HETATM    8  C   UNL     1     -10.848  11.544  68.492  1.00  0.00    -0.254 A  
HETATM    9  C   UNL     1     -11.738  12.384  69.165  1.00  0.00    -0.322 A  
HETATM   10  C   UNL     1     -11.848  10.724  70.935  1.00  0.00    -0.400 A  
HETATM   11  C   UNL     1     -12.259  11.950  70.383  1.00  0.00    -0.399 A  
BRANCH   9  12
HETATM   12  N   UNL     1     -11.992  13.647  68.602  1.00  0.00    -0.364 NA 
HETATM   13  H   UNL     1     -12.505  14.284  69.212  1.00  0.00     0.000 HD 
BRANCH  12  14
HETATM   14  C   UNL     1     -11.664  14.186  67.346  1.00  0.00    -0.391 A  
HETATM   15  C   UNL     1     -10.561  15.047  67.239  1.00  0.00    -0.279 A  
HETATM   16  C   UNL     1     -10.147  15.537  65.998  1.00  0.00    -0.354 A  
HETATM   17  C   UNL     1     -10.827  15.161  64.844  1.00  0.00    -0.437 A  
HETATM   18  C   UNL     1     -11.932  14.316  64.935  1.00  0.00    -0.430 A  
HETATM   19  C   UNL     1     -12.354  13.840  66.181  1.00  0.00    -0.496 A  
ENDBRANCH  12  14
ENDBRANCH   9  12
ENDBRANCH   4   6
ENDBRANCH   2   4
TORSDOF 4
ENDMDL
MODEL       72
REMARK 921   NORMALIZED FREE ENERGY PREDICTED BY IDOCK:   -4.58 KCAL/MOL
REMARK 922        TOTAL FREE ENERGY PREDICTED BY IDOCK:   -6.20 KCAL/MOL
REMARK 923 INTER-LIGAND FREE ENERGY PREDICTED BY IDOCK:   -5.74 KCAL/MOL
REMARK 924 INTRA-LIGAND FREE ENERGY PREDICTED BY IDOCK:   -0.46 KCAL/MOL
REMARK 927      BINDING AFFINITY PREDICTED BY RF-SCORE:    0.00 PKD
ROOT
HETATM    1  C   UNL     1     -10.289  14.005  66.754  1.00  0.00    -0.271 C  
HETATM    2  C   UNL     1     -11.711  13.543  66.436  1.00  0.00    -0.369 C  
HETATM    3  C   UNL     1     -12.062  13.839  64.982  1.00  0.00    -0.424 C  
ENDROOT
BRANCH   2   4
HETATM    4  N   UNL     1     -11.820  12.110  66.704  1.00  0.00    -0.612 NA 
HETATM    5  H   UNL     1     -12.056  11.485  65.932  1.00  0.00     0.000 HD 
BRANCH   4   6
HETATM    6  C   UNL     1     -11.615  11.563  67.968  1.00  0.00    -0.300 A  
HETATM    7  C   UNL     1     -11.038  10.311  68.182  1.00  0.00    -0.324 A  
HETATM    8  C   UNL     1     -11.007   9.726  69.452  1.00  0.00    -0.241 A  
HETATM    9  C   UNL     1     -11.561  10.374  70.558  1.00  0.00    -0.344 A  
HETATM   10  C   UNL     1     -12.148  12.217  69.090  1.00  0.00    -0.214 A  
HETATM   11  C   UNL     1     -12.108  11.642  70.372  1.00  0.00    -0.462 A  
BRANCH   9  12
HETATM   12  N   UNL     1     -11.594   9.670  71.775  1.00  0.00    -0.336 NA 
HETATM   13  H   UNL     1     -11.816  10.246  72.588  1.00  0.00     0.000 HD 
BRANCH  12  14
HETATM   14  C   UNL     1     -11.374   8.314  72.069  1.00  0.00    -0.325 A  
HETATM   15  C   UNL     1     -10.288   7.958  72.883  1.00  0.00    -0.413 A  
HETATM   16  C   UNL     1     -10.083   6.632  73.271  1.00  0.00    -0.232 A  
HETATM   17  C   UNL     1     -10.971   5.643  72.858  1.00  0.00    -0.323 A  
HETATM   18  C   UNL     1     -12.048   5.979  72.039  1.00  0.00    -0.170 A  
HETATM   19  C   UNL     1     -12.243   7.305  71.639  1.00  0.00    -0.377 A  
ENDBRANCH  12  14
ENDBRANCH   9  12
ENDBRANCH   4   6
ENDBRANCH   2   4
TORSDOF 4
ENDMDL
MODEL       73
REMARK 921   NORMALIZED FREE ENERGY PREDICTED BY IDOCK:   -4.54 KCAL/MOL
REMARK 922        TOTAL FREE ENERGY PREDICTED BY IDOCK:   -6.15 KCAL/MOL
REMARK 923 INTER-LIGAND FREE ENERGY PREDICTED BY IDOCK:   -5.52 KCAL/MOL
REMARK 924 INTRA-LIGAND FREE ENERGY PREDICTED BY IDOCK:   -0.63 KCAL/MOL
REMARK 927      BINDING AFFINITY PREDICTED BY RF-SCORE:    0.00 PKD
ROOT
HETATM    1  C   UNL     1     -11.889  15.564  72.066  1.00  0.00    -0.538 C  
HETATM    2  C   UNL     1     -13.039  14.763  71.456  1.00  0.00    -0.354 C  
HETATM    3  C   UNL     1     -14.382  15.271  71.971  1.00  0.00    -0.689 C  
ENDROOT
BRANCH   2   4
HETATM    4  N   UNL     1     -12.978  14.874  70.000  1.00  0.00    -0.603 NA 
HETATM    5  H   UNL     1     -13.765  15.299  69.509  1.00  0.00     0.000 HD 
BRANCH   4   6
HETATM    6  C   UNL     1     -11.891  14.422  69.255  1.00  0.00    -0.325 A  
HETATM    7  C   UNL     1     -11.128  15.246  68.428  1.00  0.00    -0.289 A  
HETATM    8  C   UNL     1     -10.156  14.723  67.569  1.00  0.00    -0.224 A  
HETATM    9  C   UNL     1      -9.918  13.348  67.500  1.00  0.00    -0.230 A  
HETATM   10  C   UNL     1     -11.629  13.044  69.197  1.00  0.00    -0.368 A  
HETATM   11  C   UNL     1     -10.644  12.512  68.346  1.00  0.00    -0.256 A  
BRANCH   9  12
HETATM   12  N   UNL     1      -9.009  12.893  66.529  1.00  0.00    -0.412 NA 
HETATM   13  H   UNL     1      -8.119  13.393  66.519  1.00  0.00     0.000 HD 
BRANCH  12  14
HETATM   14  C   UNL     1      -9.110  11.872  65.569  1.00  0.00     0.080 A  
HETATM   15  C   UNL     1     -10.092  11.966  64.572  1.00  0.00    -0.302 A  
HETATM   16  C   UNL     1     -10.172  11.018  63.548  1.00  0.00    -0.424 A  
HETATM   17  C   UNL     1      -9.261   9.967  63.504  1.00  0.00    -0.315 A  
HETATM   18  C   UNL     1      -8.287   9.853  64.495  1.00  0.00    -0.168 A  
HETATM   19  C   UNL     1      -8.218  10.795  65.528  1.00  0.00    -0.104 A  
ENDBRANCH  12  14
ENDBRANCH   9  12
ENDBRANCH   4   6
ENDBRANCH   2   4
TORSDOF 4
ENDMDL
MODEL       74
REMARK 921   NORMALIZED FREE ENERGY PREDICTED BY IDOCK:   -4.54 KCAL/MOL
REMARK 922        TOTAL FREE ENERGY PREDICTED BY IDOCK:   -6.15 KCAL/MOL
REMARK 923 INTER-LIGAND FREE ENERGY PREDICTED BY IDOCK:   -5.61 KCAL/MOL
REMARK 924 INTRA-LIGAND FREE ENERGY PREDICTED BY IDOCK:   -0.53 KCAL/MOL
REMARK 927      BINDING AFFINITY PREDICTED BY RF-SCORE:    0.00 PKD
ROOT
HETATM    1  C   UNL     1     -10.489   8.917  69.143  1.00  0.00    -0.236 C  
HETATM    2  C   UNL     1     -10.393   9.909  67.984  1.00  0.00    -0.203 C  
HETATM    3  C   UNL     1     -10.526   9.189  66.646  1.00  0.00    -0.237 C  
ENDROOT
BRANCH   2   4
HETATM    4  N   UNL     1     -11.446  10.913  68.127  1.00  0.00    -0.425 NA 
HETATM    5  H   UNL     1     -12.417  10.602  68.165  1.00  0.00     0.000 HD 
BRANCH   4   6
HETATM    6  C   UNL     1     -11.178  12.278  68.214  1.00  0.00    -0.267 A  
HETATM    7  C   UNL     1      -9.950  12.845  67.874  1.00  0.00    -0.233 A  
HETATM    8  C   UNL     1      -9.667  14.190  68.137  1.00  0.00    -0.225 A  
HETATM    9  C   UNL     1     -10.606  15.017  68.758  1.00  0.00    -0.240 A  
HETATM   10  C   UNL     1     -12.124  13.122  68.816  1.00  0.00    -0.226 A  
HETATM   11  C   UNL     1     -11.852  14.478  69.071  1.00  0.00    -0.354 A  
BRANCH   9  12
HETATM   12  N   UNL     1     -10.203  16.322  69.092  1.00  0.00    -0.249 NA 
HETATM   13  H   UNL     1      -9.885  16.430  70.056  1.00  0.00     0.000 HD 
BRANCH  12  14
HETATM   14  C   UNL     1     -10.161  17.503  68.333  1.00  0.00    -0.372 A  
HETATM   15  C   UNL     1     -10.354  17.431  66.945  1.00  0.00    -0.317 A  
HETATM   16  C   UNL     1     -10.407  18.588  66.164  1.00  0.00    -0.457 A  
HETATM   17  C   UNL     1     -10.278  19.836  66.765  1.00  0.00    -0.582 A  
HETATM   18  C   UNL     1     -10.075  19.925  68.141  1.00  0.00    -0.569 A  
HETATM   19  C   UNL     1     -10.007  18.764  68.919  1.00  0.00    -0.423 A  
ENDBRANCH  12  14
ENDBRANCH   9  12
ENDBRANCH   4   6
ENDBRANCH   2   4
TORSDOF 4
ENDMDL
MODEL       75
REMARK 921   NORMALIZED FREE ENERGY PREDICTED BY IDOCK:   -4.53 KCAL/MOL
REMARK 922        TOTAL FREE ENERGY PREDICTED BY IDOCK:   -6.14 KCAL/MOL
REMARK 923 INTER-LIGAND FREE ENERGY PREDICTED BY IDOCK:   -5.65 KCAL/MOL
REMARK 924 INTRA-LIGAND FREE ENERGY PREDICTED BY IDOCK:   -0.48 KCAL/MOL
REMARK 927      BINDING AFFINITY PREDICTED BY RF-SCORE:    0.00 PKD
ROOT
HETATM    1  C   UNL     1     -11.950  15.239  72.174  1.00  0.00    -0.503 C  
HETATM    2  C   UNL     1     -13.068  14.509  71.431  1.00  0.00    -0.353 C  
HETATM    3  C   UNL     1     -14.406  15.206  71.653  1.00  0.00    -0.685 C  
ENDROOT
BRANCH   2   4
HETATM    4  N   UNL     1     -12.747  14.468  70.005  1.00  0.00    -0.535 NA 
HETATM    5  H   UNL     1     -12.953  15.288  69.434  1.00  0.00     0.000 HD 
BRANCH   4   6
HETATM    6  C   UNL     1     -12.170  13.357  69.395  1.00  0.00    -0.195 A  
HETATM    7  C   UNL     1     -11.874  13.291  68.034  1.00  0.00    -0.392 A  
HETATM    8  C   UNL     1     -11.457  12.100  67.431  1.00  0.00    -0.415 A  
HETATM    9  C   UNL     1     -11.327  10.924  68.172  1.00  0.00    -0.315 A  
HETATM   10  C   UNL     1     -12.014  12.175  70.137  1.00  0.00    -0.394 A  
HETATM   11  C   UNL     1     -11.582  10.977  69.541  1.00  0.00    -0.384 A  
BRANCH   9  12
HETATM   12  N   UNL     1     -11.016   9.745  67.472  1.00  0.00    -0.403 NA 
HETATM   13  H   UNL     1     -11.323   9.740  66.498  1.00  0.00     0.000 HD 
BRANCH  12  14
HETATM   14  C   UNL     1     -10.358   8.571  67.876  1.00  0.00    -0.223 A  
HETATM   15  C   UNL     1      -9.199   8.672  68.659  1.00  0.00    -0.138 A  
HETATM   16  C   UNL     1      -8.562   7.532  69.155  1.00  0.00    -0.136 A  
HETATM   17  C   UNL     1      -9.086   6.272  68.882  1.00  0.00    -0.124 A  
HETATM   18  C   UNL     1     -10.231   6.154  68.096  1.00  0.00    -0.208 A  
HETATM   19  C   UNL     1     -10.858   7.297  67.588  1.00  0.00    -0.251 A  
ENDBRANCH  12  14
ENDBRANCH   9  12
ENDBRANCH   4   6
ENDBRANCH   2   4
TORSDOF 4
ENDMDL
MODEL       76
REMARK 921   NORMALIZED FREE ENERGY PREDICTED BY IDOCK:   -4.52 KCAL/MOL
REMARK 922        TOTAL FREE ENERGY PREDICTED BY IDOCK:   -6.13 KCAL/MOL
REMARK 923 INTER-LIGAND FREE ENERGY PREDICTED BY IDOCK:   -5.51 KCAL/MOL
REMARK 924 INTRA-LIGAND FREE ENERGY PREDICTED BY IDOCK:   -0.62 KCAL/MOL
REMARK 927      BINDING AFFINITY PREDICTED BY RF-SCORE:    0.00 PKD
ROOT
HETATM    1  C   UNL     1      -9.992  18.516  68.272  1.00  0.00    -0.409 C  
HETATM    2  C   UNL     1     -10.020  17.008  68.021  1.00  0.00    -0.283 C  
HETATM    3  C   UNL     1      -8.881  16.317  68.762  1.00  0.00    -0.243 C  
ENDROOT
BRANCH   2   4
HETATM    4  N   UNL     1     -11.309  16.475  68.458  1.00  0.00    -0.311 NA 
HETATM    5  H   UNL     1     -12.010  17.124  68.817  1.00  0.00     0.000 HD 
BRANCH   4   6
HETATM    6  C   UNL     1     -11.619  15.118  68.405  1.00  0.00    -0.337 A  
HETATM    7  C   UNL     1     -11.731  14.308  69.535  1.00  0.00    -0.366 A  
HETATM    8  C   UNL     1     -11.875  12.920  69.431  1.00  0.00    -0.371 A  
HETATM    9  C   UNL     1     -11.904  12.290  68.185  1.00  0.00    -0.311 A  
HETATM   10  C   UNL     1     -11.673  14.478  67.156  1.00  0.00    -0.420 A  
HETATM   11  C   UNL     1     -11.831  13.086  67.043  1.00  0.00    -0.437 A  
BRANCH   9  12
HETATM   12  N   UNL     1     -11.932  10.884  68.167  1.00  0.00    -0.796 NA 
HETATM   13  H   UNL     1     -12.870  10.482  68.199  1.00  0.00     0.000 HD 
BRANCH  12  14
HETATM   14  C   UNL     1     -10.898   9.935  68.114  1.00  0.00    -0.234 A  
HETATM   15  C   UNL     1     -10.642   9.270  66.906  1.00  0.00    -0.239 A  
HETATM   16  C   UNL     1      -9.569   8.384  66.784  1.00  0.00    -0.283 A  
HETATM   17  C   UNL     1      -8.729   8.159  67.871  1.00  0.00    -0.128 A  
HETATM   18  C   UNL     1      -8.977   8.804  69.082  1.00  0.00    -0.137 A  
HETATM   19  C   UNL     1     -10.062   9.679  69.206  1.00  0.00    -0.201 A  
ENDBRANCH  12  14
ENDBRANCH   9  12
ENDBRANCH   4   6
ENDBRANCH   2   4
TORSDOF 4
ENDMDL
MODEL       77
REMARK 921   NORMALIZED FREE ENERGY PREDICTED BY IDOCK:   -4.52 KCAL/MOL
REMARK 922        TOTAL FREE ENERGY PREDICTED BY IDOCK:   -6.12 KCAL/MOL
REMARK 923 INTER-LIGAND FREE ENERGY PREDICTED BY IDOCK:   -5.54 KCAL/MOL
REMARK 924 INTRA-LIGAND FREE ENERGY PREDICTED BY IDOCK:   -0.58 KCAL/MOL
REMARK 927      BINDING AFFINITY PREDICTED BY RF-SCORE:    0.00 PKD
ROOT
HETATM    1  C   UNL     1      -7.618  19.891  66.755  1.00  0.00    -0.297 C  
HETATM    2  C   UNL     1      -8.859  18.999  66.752  1.00  0.00    -0.310 C  
HETATM    3  C   UNL     1     -10.066  19.757  66.210  1.00  0.00    -0.601 C  
ENDROOT
BRANCH   2   4
HETATM    4  N   UNL     1      -8.594  17.815  65.937  1.00  0.00    -0.516 NA 
HETATM    5  H   UNL     1      -8.017  17.916  65.102  1.00  0.00     0.000 HD 
BRANCH   4   6
HETATM    6  C   UNL     1      -9.098  16.556  66.252  1.00  0.00    -0.313 A  
HETATM    7  C   UNL     1      -8.411  15.621  67.026  1.00  0.00    -0.261 A  
HETATM    8  C   UNL     1      -8.874  14.310  67.176  1.00  0.00    -0.243 A  
HETATM    9  C   UNL     1     -10.046  13.883  66.547  1.00  0.00    -0.286 A  
HETATM   10  C   UNL     1     -10.288  16.124  65.642  1.00  0.00    -0.405 A  
HETATM   11  C   UNL     1     -10.767  14.812  65.799  1.00  0.00    -0.333 A  
BRANCH   9  12
HETATM   12  N   UNL     1     -10.381  12.522  66.651  1.00  0.00    -0.226 NA 
HETATM   13  H   UNL     1     -10.429  12.030  65.758  1.00  0.00     0.000 HD 
BRANCH  12  14
HETATM   14  C   UNL     1     -10.662  11.718  67.770  1.00  0.00    -0.205 A  
HETATM   15  C   UNL     1     -11.551  12.193  68.746  1.00  0.00    -0.380 A  
HETATM   16  C   UNL     1     -11.925  11.393  69.828  1.00  0.00    -0.422 A  
HETATM   17  C   UNL     1     -11.422  10.101  69.942  1.00  0.00    -0.317 A  
HETATM   18  C   UNL     1     -10.529   9.619  68.986  1.00  0.00    -0.229 A  
HETATM   19  C   UNL     1     -10.143  10.427  67.911  1.00  0.00    -0.200 A  
ENDBRANCH  12  14
ENDBRANCH   9  12
ENDBRANCH   4   6
ENDBRANCH   2   4
TORSDOF 4
ENDMDL
MODEL       78
REMARK 921   NORMALIZED FREE ENERGY PREDICTED BY IDOCK:   -4.48 KCAL/MOL
REMARK 922        TOTAL FREE ENERGY PREDICTED BY IDOCK:   -6.08 KCAL/MOL
REMARK 923 INTER-LIGAND FREE ENERGY PREDICTED BY IDOCK:   -5.54 KCAL/MOL
REMARK 924 INTRA-LIGAND FREE ENERGY PREDICTED BY IDOCK:   -0.54 KCAL/MOL
REMARK 927      BINDING AFFINITY PREDICTED BY RF-SCORE:    0.00 PKD
ROOT
HETATM    1  C   UNL     1      -6.864  19.841  65.398  1.00  0.00    -0.321 C  
HETATM    2  C   UNL     1      -7.306  19.595  66.840  1.00  0.00    -0.224 C  
HETATM    3  C   UNL     1      -7.124  20.853  67.682  1.00  0.00    -0.339 C  
ENDROOT
BRANCH   2   4
HETATM    4  N   UNL     1      -8.706  19.176  66.846  1.00  0.00    -0.290 NA 
HETATM    5  H   UNL     1      -9.431  19.893  66.784  1.00  0.00     0.000 HD 
BRANCH   4   6
HETATM    6  C   UNL     1      -9.094  17.841  66.934  1.00  0.00    -0.258 A  
HETATM    7  C   UNL     1      -8.411  16.798  66.311  1.00  0.00    -0.353 A  
HETATM    8  C   UNL     1      -8.927  15.498  66.282  1.00  0.00    -0.362 A  
HETATM    9  C   UNL     1     -10.156  15.197  66.872  1.00  0.00    -0.255 A  
HETATM   10  C   UNL     1     -10.317  17.525  67.546  1.00  0.00    -0.356 A  
HETATM   11  C   UNL     1     -10.836  16.218  67.533  1.00  0.00    -0.268 A  
BRANCH   9  12
HETATM   12  N   UNL     1     -10.660  13.896  66.699  1.00  0.00    -0.273 NA 
HETATM   13  H   UNL     1     -10.944  13.435  67.564  1.00  0.00     0.000 HD 
BRANCH  12  14
HETATM   14  C   UNL     1     -10.840  13.117  65.543  1.00  0.00    -0.283 A  
HETATM   15  C   UNL     1     -10.165  11.892  65.432  1.00  0.00    -0.300 A  
HETATM   16  C   UNL     1     -10.382  11.046  64.342  1.00  0.00    -0.424 A  
HETATM   17  C   UNL     1     -11.288  11.412  63.351  1.00  0.00    -0.190 A  
HETATM   18  C   UNL     1     -11.958  12.631  63.441  1.00  0.00    -0.613 A  
HETATM   19  C   UNL     1     -11.728  13.483  64.526  1.00  0.00    -0.431 A  
ENDBRANCH  12  14
ENDBRANCH   9  12
ENDBRANCH   4   6
ENDBRANCH   2   4
TORSDOF 4
ENDMDL
MODEL       79
REMARK 921   NORMALIZED FREE ENERGY PREDICTED BY IDOCK:   -4.46 KCAL/MOL
REMARK 922        TOTAL FREE ENERGY PREDICTED BY IDOCK:   -6.05 KCAL/MOL
REMARK 923 INTER-LIGAND FREE ENERGY PREDICTED BY IDOCK:   -5.44 KCAL/MOL
REMARK 924 INTRA-LIGAND FREE ENERGY PREDICTED BY IDOCK:   -0.61 KCAL/MOL
REMARK 927      BINDING AFFINITY PREDICTED BY RF-SCORE:    0.00 PKD
ROOT
HETATM    1  C   UNL     1     -14.363  15.118  71.500  1.00  0.00    -0.660 C  
HETATM    2  C   UNL     1     -13.239  14.205  71.988  1.00  0.00    -0.402 C  
HETATM    3  C   UNL     1     -12.765  14.628  73.374  1.00  0.00    -0.528 C  
ENDROOT
BRANCH   2   4
HETATM    4  N   UNL     1     -13.722  12.825  72.016  1.00  0.00    -0.353 NA 
HETATM    5  H   UNL     1     -14.646  12.639  72.406  1.00  0.00     0.000 HD 
BRANCH   4   6
HETATM    6  C   UNL     1     -12.973  11.755  71.532  1.00  0.00    -0.341 A  
HETATM    7  C   UNL     1     -12.196  11.817  70.376  1.00  0.00    -0.416 A  
HETATM    8  C   UNL     1     -11.598  10.676  69.832  1.00  0.00    -0.396 A  
HETATM    9  C   UNL     1     -11.763   9.423  70.426  1.00  0.00    -0.144 A  
HETATM   10  C   UNL     1     -13.113  10.496  72.137  1.00  0.00    -0.413 A  
HETATM   11  C   UNL     1     -12.504   9.346  71.604  1.00  0.00    -0.460 A  
BRANCH   9  12
HETATM   12  N   UNL     1     -11.228   8.309  69.755  1.00  0.00    -0.450 NA 
HETATM   13  H   UNL     1     -11.875   7.525  69.659  1.00  0.00     0.000 HD 
BRANCH  12  14
HETATM   14  C   UNL     1      -9.959   8.084  69.194  1.00  0.00    -0.188 A  
HETATM   15  C   UNL     1      -9.830   8.024  67.799  1.00  0.00    -0.207 A  
HETATM   16  C   UNL     1      -8.577   7.890  67.197  1.00  0.00    -0.128 A  
HETATM   17  C   UNL     1      -7.432   7.824  67.986  1.00  0.00    -0.108 A  
HETATM   18  C   UNL     1      -7.545   7.871  69.374  1.00  0.00    -0.103 A  
HETATM   19  C   UNL     1      -8.803   7.990  69.976  1.00  0.00    -0.143 A  
ENDBRANCH  12  14
ENDBRANCH   9  12
ENDBRANCH   4   6
ENDBRANCH   2   4
TORSDOF 4
ENDMDL
MODEL       80
REMARK 921   NORMALIZED FREE ENERGY PREDICTED BY IDOCK:   -4.38 KCAL/MOL
REMARK 922        TOTAL FREE ENERGY PREDICTED BY IDOCK:   -5.95 KCAL/MOL
REMARK 923 INTER-LIGAND FREE ENERGY PREDICTED BY IDOCK:   -5.71 KCAL/MOL
REMARK 924 INTRA-LIGAND FREE ENERGY PREDICTED BY IDOCK:   -0.24 KCAL/MOL
REMARK 927      BINDING AFFINITY PREDICTED BY RF-SCORE:    0.00 PKD
ROOT
HETATM    1  C   UNL     1     -12.770  13.740  65.628  1.00  0.00    -0.523 C  
HETATM    2  C   UNL     1     -11.833  12.672  65.065  1.00  0.00    -0.395 C  
HETATM    3  C   UNL     1     -11.959  12.589  63.548  1.00  0.00    -0.629 C  
ENDROOT
BRANCH   2   4
HETATM    4  N   UNL     1     -10.458  12.995  65.444  1.00  0.00    -0.290 NA 
HETATM    5  H   UNL     1      -9.731  12.297  65.284  1.00  0.00     0.000 HD 
BRANCH   4   6
HETATM    6  C   UNL     1     -10.100  14.214  66.014  1.00  0.00    -0.316 A  
HETATM    7  C   UNL     1      -9.898  14.396  67.382  1.00  0.00    -0.224 A  
HETATM    8  C   UNL     1      -9.708  15.668  67.932  1.00  0.00    -0.211 A  
HETATM    9  C   UNL     1      -9.723  16.811  67.129  1.00  0.00    -0.251 A  
HETATM   10  C   UNL     1     -10.089  15.366  65.211  1.00  0.00    -0.354 A  
HETATM   11  C   UNL     1      -9.886  16.646  65.754  1.00  0.00    -0.241 A  
BRANCH   9  12
HETATM   12  N   UNL     1      -9.642  18.059  67.771  1.00  0.00    -0.272 NA 
HETATM   13  H   UNL     1     -10.491  18.332  68.268  1.00  0.00     0.000 HD 
BRANCH  12  14
HETATM   14  C   UNL     1      -8.599  18.996  67.850  1.00  0.00    -0.301 A  
HETATM   15  C   UNL     1      -7.770  19.003  68.983  1.00  0.00    -0.288 A  
HETATM   16  C   UNL     1      -6.669  19.859  69.064  1.00  0.00    -0.355 A  
HETATM   17  C   UNL     1      -6.376  20.714  68.006  1.00  0.00    -0.357 A  
HETATM   18  C   UNL     1      -7.197  20.728  66.880  1.00  0.00    -0.337 A  
HETATM   19  C   UNL     1      -8.308  19.881  66.806  1.00  0.00    -0.364 A  
ENDBRANCH  12  14
ENDBRANCH   9  12
ENDBRANCH   4   6
ENDBRANCH   2   4
TORSDOF 4
ENDMDL
MODEL       81
REMARK 921   NORMALIZED FREE ENERGY PREDICTED BY IDOCK:   -4.38 KCAL/MOL
REMARK 922        TOTAL FREE ENERGY PREDICTED BY IDOCK:   -5.95 KCAL/MOL
REMARK 923 INTER-LIGAND FREE ENERGY PREDICTED BY IDOCK:   -5.42 KCAL/MOL
REMARK 924 INTRA-LIGAND FREE ENERGY PREDICTED BY IDOCK:   -0.54 KCAL/MOL
REMARK 927      BINDING AFFINITY PREDICTED BY RF-SCORE:    0.00 PKD
ROOT
HETATM    1  C   UNL     1      -8.265   8.726  62.844  1.00  0.00    -0.190 C  
HETATM    2  C   UNL     1      -8.622  10.082  63.452  1.00  0.00    -0.204 C  
HETATM    3  C   UNL     1      -8.646  11.165  62.378  1.00  0.00    -0.307 C  
ENDROOT
BRANCH   2   4
HETATM    4  N   UNL     1      -9.927   9.985  64.103  1.00  0.00    -0.466 NA 
HETATM    5  H   UNL     1     -10.570   9.252  63.802  1.00  0.00     0.000 HD 
BRANCH   4   6
HETATM    6  C   UNL     1     -10.329  10.850  65.118  1.00  0.00    -0.278 A  
HETATM    7  C   UNL     1     -11.223  11.902  64.926  1.00  0.00    -0.350 A  
HETATM    8  C   UNL     1     -11.467  12.849  65.926  1.00  0.00    -0.387 A  
HETATM    9  C   UNL     1     -10.816  12.779  67.160  1.00  0.00    -0.256 A  
HETATM   10  C   UNL     1      -9.697  10.773  66.370  1.00  0.00    -0.241 A  
HETATM   11  C   UNL     1      -9.947  11.713  67.385  1.00  0.00    -0.200 A  
BRANCH   9  12
HETATM   12  N   UNL     1     -11.028  13.832  68.067  1.00  0.00    -0.245 NA 
HETATM   13  H   UNL     1     -10.583  14.712  67.802  1.00  0.00     0.000 HD 
BRANCH  12  14
HETATM   14  C   UNL     1     -11.743  13.886  69.275  1.00  0.00    -0.334 A  
HETATM   15  C   UNL     1     -12.195  15.128  69.747  1.00  0.00    -0.325 A  
HETATM   16  C   UNL     1     -12.983  15.218  70.896  1.00  0.00    -0.522 A  
HETATM   17  C   UNL     1     -13.340  14.063  71.585  1.00  0.00    -0.442 A  
HETATM   18  C   UNL     1     -12.889  12.823  71.136  1.00  0.00    -0.315 A  
HETATM   19  C   UNL     1     -12.087  12.736  69.993  1.00  0.00    -0.355 A  
ENDBRANCH  12  14
ENDBRANCH   9  12
ENDBRANCH   4   6
ENDBRANCH   2   4
TORSDOF 4
ENDMDL
MODEL       82
REMARK 921   NORMALIZED FREE ENERGY PREDICTED BY IDOCK:   -4.36 KCAL/MOL
REMARK 922        TOTAL FREE ENERGY PREDICTED BY IDOCK:   -5.93 KCAL/MOL
REMARK 923 INTER-LIGAND FREE ENERGY PREDICTED BY IDOCK:   -5.32 KCAL/MOL
REMARK 924 INTRA-LIGAND FREE ENERGY PREDICTED BY IDOCK:   -0.61 KCAL/MOL
REMARK 927      BINDING AFFINITY PREDICTED BY RF-SCORE:    0.00 PKD
ROOT
HETATM    1  C   UNL     1     -11.434  15.701  71.773  1.00  0.00    -0.505 C  
HETATM    2  C   UNL     1     -12.660  14.814  71.553  1.00  0.00    -0.333 C  
HETATM    3  C   UNL     1     -13.889  15.418  72.223  1.00  0.00    -0.649 C  
ENDROOT
BRANCH   2   4
HETATM    4  N   UNL     1     -12.887  14.661  70.117  1.00  0.00    -0.567 NA 
HETATM    5  H   UNL     1     -13.609  15.231  69.673  1.00  0.00     0.000 HD 
BRANCH   4   6
HETATM    6  C   UNL     1     -12.161  13.771  69.330  1.00  0.00    -0.329 A  
HETATM    7  C   UNL     1     -11.686  14.079  68.055  1.00  0.00    -0.394 A  
HETATM    8  C   UNL     1     -11.112  13.105  67.231  1.00  0.00    -0.305 A  
HETATM    9  C   UNL     1     -10.999  11.778  67.655  1.00  0.00    -0.233 A  
HETATM   10  C   UNL     1     -12.021  12.441  69.756  1.00  0.00    -0.359 A  
HETATM   11  C   UNL     1     -11.433  11.458  68.940  1.00  0.00    -0.363 A  
BRANCH   9  12
HETATM   12  N   UNL     1     -10.518  10.838  66.726  1.00  0.00    -0.243 NA 
HETATM   13  H   UNL     1     -10.624  11.118  65.750  1.00  0.00     0.000 HD 
BRANCH  12  14
HETATM   14  C   UNL     1      -9.918   9.580  66.905  1.00  0.00    -0.216 A  
HETATM   15  C   UNL     1     -10.717   8.429  66.860  1.00  0.00    -0.163 A  
HETATM   16  C   UNL     1     -10.150   7.155  66.946  1.00  0.00    -0.308 A  
HETATM   17  C   UNL     1      -8.771   7.017  67.067  1.00  0.00    -0.123 A  
HETATM   18  C   UNL     1      -7.964   8.152  67.125  1.00  0.00    -0.105 A  
HETATM   19  C   UNL     1      -8.535   9.427  67.054  1.00  0.00    -0.127 A  
ENDBRANCH  12  14
ENDBRANCH   9  12
ENDBRANCH   4   6
ENDBRANCH   2   4
TORSDOF 4
ENDMDL
MODEL       83
REMARK 921   NORMALIZED FREE ENERGY PREDICTED BY IDOCK:   -4.35 KCAL/MOL
REMARK 922        TOTAL FREE ENERGY PREDICTED BY IDOCK:   -5.92 KCAL/MOL
REMARK 923 INTER-LIGAND FREE ENERGY PREDICTED BY IDOCK:   -5.45 KCAL/MOL
REMARK 924 INTRA-LIGAND FREE ENERGY PREDICTED BY IDOCK:   -0.47 KCAL/MOL
REMARK 927      BINDING AFFINITY PREDICTED BY RF-SCORE:    0.00 PKD
ROOT
HETATM    1  C   UNL     1     -10.718   6.188  70.039  1.00  0.00    -0.370 C  
HETATM    2  C   UNL     1     -10.236   7.636  69.964  1.00  0.00    -0.213 C  
HETATM    3  C   UNL     1      -8.712   7.697  69.962  1.00  0.00    -0.142 C  
ENDROOT
BRANCH   2   4
HETATM    4  N   UNL     1     -10.771   8.256  68.754  1.00  0.00    -0.407 NA 
HETATM    5  H   UNL     1     -11.004   7.658  67.960  1.00  0.00     0.000 HD 
BRANCH   4   6
HETATM    6  C   UNL     1     -10.975   9.629  68.638  1.00  0.00    -0.111 A  
HETATM    7  C   UNL     1     -11.519  10.416  69.652  1.00  0.00    -0.326 A  
HETATM    8  C   UNL     1     -11.866  11.754  69.436  1.00  0.00    -0.398 A  
HETATM    9  C   UNL     1     -11.686  12.353  68.188  1.00  0.00    -0.353 A  
HETATM   10  C   UNL     1     -10.775  10.246  67.393  1.00  0.00    -0.339 A  
HETATM   11  C   UNL     1     -11.108  11.594  67.171  1.00  0.00    -0.354 A  
BRANCH   9  12
HETATM   12  N   UNL     1     -12.166  13.664  68.019  1.00  0.00    -0.386 NA 
HETATM   13  H   UNL     1     -13.163  13.774  68.209  1.00  0.00     0.000 HD 
BRANCH  12  14
HETATM   14  C   UNL     1     -11.516  14.849  67.636  1.00  0.00    -0.352 A  
HETATM   15  C   UNL     1     -10.962  14.940  66.351  1.00  0.00    -0.336 A  
HETATM   16  C   UNL     1     -10.383  16.128  65.898  1.00  0.00    -0.384 A  
HETATM   17  C   UNL     1     -10.361  17.247  66.725  1.00  0.00    -0.308 A  
HETATM   18  C   UNL     1     -10.897  17.169  68.010  1.00  0.00    -0.317 A  
HETATM   19  C   UNL     1     -11.462  15.973  68.466  1.00  0.00    -0.357 A  
ENDBRANCH  12  14
ENDBRANCH   9  12
ENDBRANCH   4   6
ENDBRANCH   2   4
TORSDOF 4
ENDMDL
MODEL       84
REMARK 921   NORMALIZED FREE ENERGY PREDICTED BY IDOCK:   -4.35 KCAL/MOL
REMARK 922        TOTAL FREE ENERGY PREDICTED BY IDOCK:   -5.92 KCAL/MOL
REMARK 923 INTER-LIGAND FREE ENERGY PREDICTED BY IDOCK:   -5.30 KCAL/MOL
REMARK 924 INTRA-LIGAND FREE ENERGY PREDICTED BY IDOCK:   -0.61 KCAL/MOL
REMARK 927      BINDING AFFINITY PREDICTED BY RF-SCORE:    0.00 PKD
ROOT
HETATM    1  C   UNL     1      -8.480  10.214  63.030  1.00  0.00    -0.180 C  
HETATM    2  C   UNL     1      -9.116  10.301  64.418  1.00  0.00    -0.239 C  
HETATM    3  C   UNL     1     -10.490  10.957  64.341  1.00  0.00    -0.403 C  
ENDROOT
BRANCH   2   4
HETATM    4  N   UNL     1      -9.226   8.955  64.977  1.00  0.00    -0.437 NA 
HETATM    5  H   UNL     1      -9.184   8.157  64.343  1.00  0.00     0.000 HD 
BRANCH   4   6
HETATM    6  C   UNL     1      -9.386   8.717  66.340  1.00  0.00    -0.211 A  
HETATM    7  C   UNL     1     -10.254   7.756  66.858  1.00  0.00    -0.373 A  
HETATM    8  C   UNL     1     -10.513   7.666  68.230  1.00  0.00    -0.219 A  
HETATM    9  C   UNL     1      -9.914   8.544  69.136  1.00  0.00    -0.192 A  
HETATM   10  C   UNL     1      -8.770   9.580  67.261  1.00  0.00    -0.132 A  
HETATM   11  C   UNL     1      -9.015   9.487  68.642  1.00  0.00    -0.132 A  
BRANCH   9  12
HETATM   12  N   UNL     1     -10.315   8.463  70.482  1.00  0.00    -0.196 NA 
HETATM   13  H   UNL     1      -9.550   8.314  71.141  1.00  0.00     0.000 HD 
BRANCH  12  14
HETATM   14  C   UNL     1     -11.584   8.552  71.079  1.00  0.00    -0.279 A  
HETATM   15  C   UNL     1     -12.114   9.818  71.371  1.00  0.00    -0.486 A  
HETATM   16  C   UNL     1     -13.406   9.956  71.885  1.00  0.00    -0.524 A  
HETATM   17  C   UNL     1     -14.190   8.827  72.103  1.00  0.00    -0.504 A  
HETATM   18  C   UNL     1     -13.673   7.562  71.829  1.00  0.00    -0.414 A  
HETATM   19  C   UNL     1     -12.373   7.425  71.329  1.00  0.00    -0.380 A  
ENDBRANCH  12  14
ENDBRANCH   9  12
ENDBRANCH   4   6
ENDBRANCH   2   4
TORSDOF 4
ENDMDL
MODEL       85
REMARK 921   NORMALIZED FREE ENERGY PREDICTED BY IDOCK:   -4.33 KCAL/MOL
REMARK 922        TOTAL FREE ENERGY PREDICTED BY IDOCK:   -5.89 KCAL/MOL
REMARK 923 INTER-LIGAND FREE ENERGY PREDICTED BY IDOCK:   -5.34 KCAL/MOL
REMARK 924 INTRA-LIGAND FREE ENERGY PREDICTED BY IDOCK:   -0.55 KCAL/MOL
REMARK 927      BINDING AFFINITY PREDICTED BY RF-SCORE:    0.00 PKD
ROOT
HETATM    1  C   UNL     1     -13.322  15.519  70.919  1.00  0.00    -0.414 C  
HETATM    2  C   UNL     1     -12.722  14.491  71.878  1.00  0.00    -0.338 C  
HETATM    3  C   UNL     1     -13.002  14.879  73.326  1.00  0.00    -0.635 C  
ENDROOT
BRANCH   2   4
HETATM    4  N   UNL     1     -13.290  13.176  71.586  1.00  0.00    -0.348 NA 
HETATM    5  H   UNL     1     -14.256  12.990  71.855  1.00  0.00     0.000 HD 
BRANCH   4   6
HETATM    6  C   UNL     1     -12.566  12.167  70.955  1.00  0.00    -0.263 A  
HETATM    7  C   UNL     1     -12.385  10.894  71.496  1.00  0.00    -0.344 A  
HETATM    8  C   UNL     1     -11.513   9.968  70.915  1.00  0.00    -0.452 A  
HETATM    9  C   UNL     1     -10.781  10.287  69.769  1.00  0.00    -0.285 A  
HETATM   10  C   UNL     1     -11.845  12.471  69.789  1.00  0.00    -0.380 A  
HETATM   11  C   UNL     1     -10.977  11.540  69.191  1.00  0.00    -0.276 A  
BRANCH   9  12
HETATM   12  N   UNL     1      -9.840   9.346  69.315  1.00  0.00    -0.168 NA 
HETATM   13  H   UNL     1      -8.883   9.698  69.265  1.00  0.00     0.000 HD 
BRANCH  12  14
HETATM   14  C   UNL     1      -9.985   8.006  68.918  1.00  0.00    -0.195 A  
HETATM   15  C   UNL     1      -9.502   6.989  69.755  1.00  0.00    -0.145 A  
HETATM   16  C   UNL     1      -9.702   5.642  69.441  1.00  0.00    -0.208 A  
HETATM   17  C   UNL     1     -10.399   5.296  68.288  1.00  0.00    -0.181 A  
HETATM   18  C   UNL     1     -10.876   6.294  67.440  1.00  0.00    -0.448 A  
HETATM   19  C   UNL     1     -10.661   7.642  67.748  1.00  0.00    -0.265 A  
ENDBRANCH  12  14
ENDBRANCH   9  12
ENDBRANCH   4   6
ENDBRANCH   2   4
TORSDOF 4
ENDMDL
MODEL       86
REMARK 921   NORMALIZED FREE ENERGY PREDICTED BY IDOCK:   -4.32 KCAL/MOL
REMARK 922        TOTAL FREE ENERGY PREDICTED BY IDOCK:   -5.88 KCAL/MOL
REMARK 923 INTER-LIGAND FREE ENERGY PREDICTED BY IDOCK:   -5.53 KCAL/MOL
REMARK 924 INTRA-LIGAND FREE ENERGY PREDICTED BY IDOCK:   -0.34 KCAL/MOL
REMARK 927      BINDING AFFINITY PREDICTED BY RF-SCORE:    0.00 PKD
ROOT
HETATM    1  C   UNL     1      -9.020   7.618  70.904  1.00  0.00    -0.148 C  
HETATM    2  C   UNL     1     -10.452   7.450  70.397  1.00  0.00    -0.221 C  
HETATM    3  C   UNL     1     -10.858   5.981  70.406  1.00  0.00    -0.386 C  
ENDROOT
BRANCH   2   4
HETATM    4  N   UNL     1     -11.353   8.232  71.242  1.00  0.00    -0.259 NA 
HETATM    5  H   UNL     1     -11.696   7.814  72.108  1.00  0.00     0.000 HD 
BRANCH   4   6
HETATM    6  C   UNL     1     -11.763   9.522  70.916  1.00  0.00    -0.317 A  
HETATM    7  C   UNL     1     -11.230  10.255  69.855  1.00  0.00    -0.360 A  
HETATM    8  C   UNL     1     -11.545  11.605  69.666  1.00  0.00    -0.401 A  
HETATM    9  C   UNL     1     -12.402  12.275  70.542  1.00  0.00    -0.264 A  
HETATM   10  C   UNL     1     -12.642  10.198  71.777  1.00  0.00    -0.500 A  
HETATM   11  C   UNL     1     -12.974  11.551  71.586  1.00  0.00    -0.499 A  
BRANCH   9  12
HETATM   12  N   UNL     1     -12.575  13.658  70.352  1.00  0.00    -0.270 NA 
HETATM   13  H   UNL     1     -13.372  14.055  70.852  1.00  0.00     0.000 HD 
BRANCH  12  14
HETATM   14  C   UNL     1     -11.844  14.589  69.595  1.00  0.00    -0.318 A  
HETATM   15  C   UNL     1     -11.889  14.517  68.194  1.00  0.00    -0.348 A  
HETATM   16  C   UNL     1     -11.249  15.474  67.403  1.00  0.00    -0.248 A  
HETATM   17  C   UNL     1     -10.563  16.525  68.005  1.00  0.00    -0.328 A  
HETATM   18  C   UNL     1     -10.500  16.604  69.395  1.00  0.00    -0.320 A  
HETATM   19  C   UNL     1     -11.129  15.635  70.186  1.00  0.00    -0.347 A  
ENDBRANCH  12  14
ENDBRANCH   9  12
ENDBRANCH   4   6
ENDBRANCH   2   4
TORSDOF 4
ENDMDL
MODEL       87
REMARK 921   NORMALIZED FREE ENERGY PREDICTED BY IDOCK:   -4.31 KCAL/MOL
REMARK 922        TOTAL FREE ENERGY PREDICTED BY IDOCK:   -5.87 KCAL/MOL
REMARK 923 INTER-LIGAND FREE ENERGY PREDICTED BY IDOCK:   -5.41 KCAL/MOL
REMARK 924 INTRA-LIGAND FREE ENERGY PREDICTED BY IDOCK:   -0.46 KCAL/MOL
REMARK 927      BINDING AFFINITY PREDICTED BY RF-SCORE:    0.00 PKD
ROOT
HETATM    1  C   UNL     1      -9.889  10.828  63.363  1.00  0.00    -0.400 C  
HETATM    2  C   UNL     1      -8.842   9.728  63.187  1.00  0.00    -0.246 C  
HETATM    3  C   UNL     1      -7.465  10.331  62.934  1.00  0.00    -0.140 C  
ENDROOT
BRANCH   2   4
HETATM    4  N   UNL     1      -8.819   8.894  64.387  1.00  0.00    -0.410 NA 
HETATM    5  H   UNL     1      -8.550   7.914  64.296  1.00  0.00     0.000 HD 
BRANCH   4   6
HETATM    6  C   UNL     1      -9.150   9.381  65.649  1.00  0.00    -0.207 A  
HETATM    7  C   UNL     1      -8.379  10.313  66.343  1.00  0.00    -0.132 A  
HETATM    8  C   UNL     1      -8.653  10.646  67.674  1.00  0.00    -0.118 A  
HETATM    9  C   UNL     1      -9.710  10.049  68.364  1.00  0.00    -0.146 A  
HETATM   10  C   UNL     1     -10.226   8.803  66.343  1.00  0.00    -0.256 A  
HETATM   11  C   UNL     1     -10.516   9.142  67.677  1.00  0.00    -0.323 A  
BRANCH   9  12
HETATM   12  N   UNL     1      -9.847  10.350  69.730  1.00  0.00    -0.413 NA 
HETATM   13  H   UNL     1      -9.130  10.977  70.097  1.00  0.00     0.000 HD 
BRANCH  12  14
HETATM   14  C   UNL     1     -10.797   9.938  70.681  1.00  0.00    -0.330 A  
HETATM   15  C   UNL     1     -11.977  10.682  70.834  1.00  0.00    -0.469 A  
HETATM   16  C   UNL     1     -12.985  10.261  71.703  1.00  0.00    -0.570 A  
HETATM   17  C   UNL     1     -12.830   9.081  72.425  1.00  0.00    -0.454 A  
HETATM   18  C   UNL     1     -11.659   8.338  72.293  1.00  0.00    -0.449 A  
HETATM   19  C   UNL     1     -10.643   8.769  71.433  1.00  0.00    -0.349 A  
ENDBRANCH  12  14
ENDBRANCH   9  12
ENDBRANCH   4   6
ENDBRANCH   2   4
TORSDOF 4
ENDMDL
MODEL       88
REMARK 921   NORMALIZED FREE ENERGY PREDICTED BY IDOCK:   -4.30 KCAL/MOL
REMARK 922        TOTAL FREE ENERGY PREDICTED BY IDOCK:   -5.85 KCAL/MOL
REMARK 923 INTER-LIGAND FREE ENERGY PREDICTED BY IDOCK:   -5.50 KCAL/MOL
REMARK 924 INTRA-LIGAND FREE ENERGY PREDICTED BY IDOCK:   -0.35 KCAL/MOL
REMARK 927      BINDING AFFINITY PREDICTED BY RF-SCORE:    0.00 PKD
ROOT
HETATM    1  C   UNL     1     -12.527   9.728  71.532  1.00  0.00    -0.495 C  
HETATM    2  C   UNL     1     -12.040   8.381  72.067  1.00  0.00    -0.356 C  
HETATM    3  C   UNL     1     -13.018   7.270  71.699  1.00  0.00    -0.417 C  
ENDROOT
BRANCH   2   4
HETATM    4  N   UNL     1     -10.717   8.097  71.513  1.00  0.00    -0.225 NA 
HETATM    5  H   UNL     1     -10.091   7.482  72.034  1.00  0.00     0.000 HD 
BRANCH   4   6
HETATM    6  C   UNL     1     -10.276   8.631  70.305  1.00  0.00    -0.194 A  
HETATM    7  C   UNL     1      -9.644   9.870  70.194  1.00  0.00    -0.237 A  
HETATM    8  C   UNL     1      -9.371  10.445  68.949  1.00  0.00    -0.190 A  
HETATM    9  C   UNL     1      -9.730   9.800  67.763  1.00  0.00    -0.141 A  
HETATM   10  C   UNL     1     -10.611   7.979  69.107  1.00  0.00    -0.181 A  
HETATM   11  C   UNL     1     -10.328   8.545  67.851  1.00  0.00    -0.281 A  
BRANCH   9  12
HETATM   12  N   UNL     1      -9.527  10.496  66.558  1.00  0.00    -0.162 NA 
HETATM   13  H   UNL     1      -8.565  10.478  66.219  1.00  0.00     0.000 HD 
BRANCH  12  14
HETATM   14  C   UNL     1     -10.417  11.210  65.737  1.00  0.00    -0.246 A  
HETATM   15  C   UNL     1     -11.376  12.043  66.332  1.00  0.00    -0.411 A  
HETATM   16  C   UNL     1     -12.222  12.837  65.554  1.00  0.00    -0.519 A  
HETATM   17  C   UNL     1     -12.111  12.816  64.168  1.00  0.00    -0.513 A  
HETATM   18  C   UNL     1     -11.171  11.985  63.561  1.00  0.00    -0.526 A  
HETATM   19  C   UNL     1     -10.335  11.179  64.341  1.00  0.00    -0.407 A  
ENDBRANCH  12  14
ENDBRANCH   9  12
ENDBRANCH   4   6
ENDBRANCH   2   4
TORSDOF 4
ENDMDL
MODEL       89
REMARK 921   NORMALIZED FREE ENERGY PREDICTED BY IDOCK:   -4.24 KCAL/MOL
REMARK 922        TOTAL FREE ENERGY PREDICTED BY IDOCK:   -5.79 KCAL/MOL
REMARK 923 INTER-LIGAND FREE ENERGY PREDICTED BY IDOCK:   -5.49 KCAL/MOL
REMARK 924 INTRA-LIGAND FREE ENERGY PREDICTED BY IDOCK:   -0.29 KCAL/MOL
REMARK 927      BINDING AFFINITY PREDICTED BY RF-SCORE:    0.00 PKD
ROOT
HETATM    1  C   UNL     1      -9.260   6.541  66.220  1.00  0.00    -0.160 C  
HETATM    2  C   UNL     1     -10.209   6.912  67.360  1.00  0.00    -0.203 C  
HETATM    3  C   UNL     1     -10.437   5.718  68.281  1.00  0.00    -0.281 C  
ENDROOT
BRANCH   2   4
HETATM    4  N   UNL     1      -9.640   8.031  68.109  1.00  0.00    -0.150 NA 
HETATM    5  H   UNL     1      -8.696   7.938  68.484  1.00  0.00     0.000 HD 
BRANCH   4   6
HETATM    6  C   UNL     1     -10.334   9.217  68.333  1.00  0.00    -0.209 A  
HETATM    7  C   UNL     1     -10.602  10.154  67.335  1.00  0.00    -0.329 A  
HETATM    8  C   UNL     1     -11.148  11.407  67.633  1.00  0.00    -0.325 A  
HETATM    9  C   UNL     1     -11.442  11.771  68.949  1.00  0.00    -0.297 A  
HETATM   10  C   UNL     1     -10.655   9.583  69.650  1.00  0.00    -0.245 A  
HETATM   11  C   UNL     1     -11.217  10.835  69.956  1.00  0.00    -0.366 A  
BRANCH   9  12
HETATM   12  N   UNL     1     -11.879  13.088  69.177  1.00  0.00    -0.312 NA 
HETATM   13  H   UNL     1     -11.791  13.706  68.370  1.00  0.00     0.000 HD 
BRANCH  12  14
HETATM   14  C   UNL     1     -12.415  13.703  70.321  1.00  0.00    -0.265 A  
HETATM   15  C   UNL     1     -12.174  15.067  70.540  1.00  0.00    -0.391 A  
HETATM   16  C   UNL     1     -12.759  15.738  71.617  1.00  0.00    -0.515 A  
HETATM   17  C   UNL     1     -13.603  15.052  72.485  1.00  0.00    -0.569 A  
HETATM   18  C   UNL     1     -13.843  13.693  72.287  1.00  0.00    -0.689 A  
HETATM   19  C   UNL     1     -13.244  13.020  71.217  1.00  0.00    -0.186 A  
ENDBRANCH  12  14
ENDBRANCH   9  12
ENDBRANCH   4   6
ENDBRANCH   2   4
TORSDOF 4
ENDMDL
MODEL       90
REMARK 921   NORMALIZED FREE ENERGY PREDICTED BY IDOCK:   -4.24 KCAL/MOL
REMARK 922        TOTAL FREE ENERGY PREDICTED BY IDOCK:   -5.78 KCAL/MOL
REMARK 923 INTER-LIGAND FREE ENERGY PREDICTED BY IDOCK:   -5.22 KCAL/MOL
REMARK 924 INTRA-LIGAND FREE ENERGY PREDICTED BY IDOCK:   -0.57 KCAL/MOL
REMARK 927      BINDING AFFINITY PREDICTED BY RF-SCORE:    0.00 PKD
ROOT
HETATM    1  C   UNL     1     -10.054  18.676  68.636  1.00  0.00    -0.412 C  
HETATM    2  C   UNL     1     -10.784  18.505  67.303  1.00  0.00    -0.374 C  
HETATM    3  C   UNL     1     -10.450  19.652  66.356  1.00  0.00    -0.618 C  
ENDROOT
BRANCH   2   4
HETATM    4  N   UNL     1     -10.399  17.226  66.709  1.00  0.00    -0.320 NA 
HETATM    5  H   UNL     1     -10.135  17.205  65.723  1.00  0.00     0.000 HD 
BRANCH   4   6
HETATM    6  C   UNL     1     -10.380  16.035  67.431  1.00  0.00    -0.294 A  
HETATM    7  C   UNL     1      -9.209  15.357  67.768  1.00  0.00    -0.183 A  
HETATM    8  C   UNL     1      -9.240  14.082  68.342  1.00  0.00    -0.196 A  
HETATM    9  C   UNL     1     -10.451  13.434  68.594  1.00  0.00    -0.225 A  
HETATM   10  C   UNL     1     -11.593  15.386  67.709  1.00  0.00    -0.237 A  
HETATM   11  C   UNL     1     -11.633  14.110  68.299  1.00  0.00    -0.356 A  
BRANCH   9  12
HETATM   12  N   UNL     1     -10.395  12.109  69.063  1.00  0.00    -0.421 NA 
HETATM   13  H   UNL     1     -10.426  12.021  70.079  1.00  0.00     0.000 HD 
BRANCH  12  14
HETATM   14  C   UNL     1     -10.304  10.885  68.379  1.00  0.00    -0.178 A  
HETATM   15  C   UNL     1     -10.480   9.690  69.091  1.00  0.00    -0.230 A  
HETATM   16  C   UNL     1     -10.484   8.455  68.437  1.00  0.00    -0.208 A  
HETATM   17  C   UNL     1     -10.321   8.403  67.056  1.00  0.00    -0.385 A  
HETATM   18  C   UNL     1     -10.133   9.581  66.335  1.00  0.00    -0.328 A  
HETATM   19  C   UNL     1     -10.114  10.815  66.995  1.00  0.00    -0.249 A  
ENDBRANCH  12  14
ENDBRANCH   9  12
ENDBRANCH   4   6
ENDBRANCH   2   4
TORSDOF 4
ENDMDL
MODEL       91
REMARK 921   NORMALIZED FREE ENERGY PREDICTED BY IDOCK:   -4.21 KCAL/MOL
REMARK 922        TOTAL FREE ENERGY PREDICTED BY IDOCK:   -5.74 KCAL/MOL
REMARK 923 INTER-LIGAND FREE ENERGY PREDICTED BY IDOCK:   -5.53 KCAL/MOL
REMARK 924 INTRA-LIGAND FREE ENERGY PREDICTED BY IDOCK:   -0.21 KCAL/MOL
REMARK 927      BINDING AFFINITY PREDICTED BY RF-SCORE:    0.00 PKD
ROOT
HETATM    1  C   UNL     1     -13.627  13.692  72.233  1.00  0.00    -0.669 C  
HETATM    2  C   UNL     1     -13.487  15.167  72.611  1.00  0.00    -0.475 C  
HETATM    3  C   UNL     1     -12.415  15.350  73.680  1.00  0.00    -0.715 C  
ENDROOT
BRANCH   2   4
HETATM    4  N   UNL     1     -13.148  15.936  71.415  1.00  0.00    -0.535 NA 
HETATM    5  H   UNL     1     -13.566  16.859  71.293  1.00  0.00     0.000 HD 
BRANCH   4   6
HETATM    6  C   UNL     1     -12.280  15.462  70.435  1.00  0.00    -0.391 A  
HETATM    7  C   UNL     1     -12.637  14.504  69.486  1.00  0.00    -0.037 A  
HETATM    8  C   UNL     1     -11.690  13.931  68.631  1.00  0.00    -0.396 A  
HETATM    9  C   UNL     1     -10.343  14.292  68.700  1.00  0.00    -0.246 A  
HETATM   10  C   UNL     1     -10.927  15.837  70.482  1.00  0.00    -0.361 A  
HETATM   11  C   UNL     1      -9.972  15.275  69.616  1.00  0.00    -0.236 A  
BRANCH   9  12
HETATM   12  N   UNL     1      -9.437  13.587  67.888  1.00  0.00    -0.207 NA 
HETATM   13  H   UNL     1      -8.608  14.119  67.622  1.00  0.00     0.000 HD 
BRANCH  12  14
HETATM   14  C   UNL     1      -9.473  12.278  67.379  1.00  0.00    -0.181 A  
HETATM   15  C   UNL     1      -9.608  12.086  65.996  1.00  0.00    -0.247 A  
HETATM   16  C   UNL     1      -9.561  10.806  65.438  1.00  0.00    -0.272 A  
HETATM   17  C   UNL     1      -9.366   9.700  66.258  1.00  0.00    -0.238 A  
HETATM   18  C   UNL     1      -9.241   9.872  67.636  1.00  0.00    -0.146 A  
HETATM   19  C   UNL     1      -9.304  11.154  68.194  1.00  0.00    -0.176 A  
ENDBRANCH  12  14
ENDBRANCH   9  12
ENDBRANCH   4   6
ENDBRANCH   2   4
TORSDOF 4
ENDMDL
MODEL       92
REMARK 921   NORMALIZED FREE ENERGY PREDICTED BY IDOCK:   -4.17 KCAL/MOL
REMARK 922        TOTAL FREE ENERGY PREDICTED BY IDOCK:   -5.70 KCAL/MOL
REMARK 923 INTER-LIGAND FREE ENERGY PREDICTED BY IDOCK:   -5.12 KCAL/MOL
REMARK 924 INTRA-LIGAND FREE ENERGY PREDICTED BY IDOCK:   -0.58 KCAL/MOL
REMARK 927      BINDING AFFINITY PREDICTED BY RF-SCORE:    0.00 PKD
ROOT
HETATM    1  C   UNL     1      -9.786   6.475  66.623  1.00  0.00    -0.201 C  
HETATM    2  C   UNL     1     -10.457   7.190  67.795  1.00  0.00    -0.223 C  
HETATM    3  C   UNL     1     -10.304   6.382  69.079  1.00  0.00    -0.238 C  
ENDROOT
BRANCH   2   4
HETATM    4  N   UNL     1      -9.859   8.514  67.953  1.00  0.00    -0.162 NA 
HETATM    5  H   UNL     1      -8.952   8.589  68.416  1.00  0.00     0.000 HD 
BRANCH   4   6
HETATM    6  C   UNL     1     -10.474   9.678  67.498  1.00  0.00    -0.262 A  
HETATM    7  C   UNL     1     -10.144  10.307  66.298  1.00  0.00    -0.300 A  
HETATM    8  C   UNL     1     -10.662  11.562  65.961  1.00  0.00    -0.332 A  
HETATM    9  C   UNL     1     -11.528  12.239  66.822  1.00  0.00    -0.361 A  
HETATM   10  C   UNL     1     -11.363  10.356  68.348  1.00  0.00    -0.292 A  
HETATM   11  C   UNL     1     -11.899  11.612  68.010  1.00  0.00    -0.295 A  
BRANCH   9  12
HETATM   12  N   UNL     1     -11.911  13.544  66.465  1.00  0.00    -0.400 NA 
HETATM   13  H   UNL     1     -12.774  13.595  65.922  1.00  0.00     0.000 HD 
BRANCH  12  14
HETATM   14  C   UNL     1     -11.316  14.790  66.724  1.00  0.00    -0.346 A  
HETATM   15  C   UNL     1     -10.654  15.461  65.685  1.00  0.00    -0.379 A  
HETATM   16  C   UNL     1     -10.124  16.739  65.876  1.00  0.00    -0.324 A  
HETATM   17  C   UNL     1     -10.259  17.369  67.109  1.00  0.00    -0.323 A  
HETATM   18  C   UNL     1     -10.904  16.711  68.156  1.00  0.00    -0.348 A  
HETATM   19  C   UNL     1     -11.420  15.424  67.967  1.00  0.00    -0.333 A  
ENDBRANCH  12  14
ENDBRANCH   9  12
ENDBRANCH   4   6
ENDBRANCH   2   4
TORSDOF 4
ENDMDL
MODEL       93
REMARK 921   NORMALIZED FREE ENERGY PREDICTED BY IDOCK:   -4.16 KCAL/MOL
REMARK 922        TOTAL FREE ENERGY PREDICTED BY IDOCK:   -5.69 KCAL/MOL
REMARK 923 INTER-LIGAND FREE ENERGY PREDICTED BY IDOCK:   -5.20 KCAL/MOL
REMARK 924 INTRA-LIGAND FREE ENERGY PREDICTED BY IDOCK:   -0.49 KCAL/MOL
REMARK 927      BINDING AFFINITY PREDICTED BY RF-SCORE:    0.00 PKD
ROOT
HETATM    1  C   UNL     1     -12.476  13.130  70.601  1.00  0.00    -0.363 C  
HETATM    2  C   UNL     1     -11.983  12.166  69.523  1.00  0.00    -0.275 C  
HETATM    3  C   UNL     1     -11.286  12.925  68.399  1.00  0.00    -0.305 C  
ENDROOT
BRANCH   2   4
HETATM    4  N   UNL     1     -11.066  11.200  70.128  1.00  0.00    -0.479 NA 
HETATM    5  H   UNL     1     -10.079  11.447  70.208  1.00  0.00     0.000 HD 
BRANCH   4   6
HETATM    6  C   UNL     1     -11.485   9.959  70.600  1.00  0.00    -0.334 A  
HETATM    7  C   UNL     1     -12.394   9.797  71.644  1.00  0.00    -0.495 A  
HETATM    8  C   UNL     1     -12.657   8.540  72.200  1.00  0.00    -0.431 A  
HETATM    9  C   UNL     1     -12.008   7.395  71.732  1.00  0.00    -0.305 A  
HETATM   10  C   UNL     1     -10.855   8.799  70.120  1.00  0.00    -0.241 A  
HETATM   11  C   UNL     1     -11.123   7.530  70.664  1.00  0.00    -0.280 A  
BRANCH   9  12
HETATM   12  N   UNL     1     -12.238   6.190  72.419  1.00  0.00    -0.532 NA 
HETATM   13  H   UNL     1     -13.204   5.861  72.379  1.00  0.00     0.000 HD 
BRANCH  12  14
HETATM   14  C   UNL     1     -11.374   5.359  73.152  1.00  0.00    -0.263 A  
HETATM   15  C   UNL     1     -11.650   3.986  73.232  1.00  0.00    -0.102 A  
HETATM   16  C   UNL     1     -10.772   3.111  73.876  1.00  0.00    -0.286 A  
HETATM   17  C   UNL     1      -9.597   3.599  74.440  1.00  0.00    -0.133 A  
HETATM   18  C   UNL     1      -9.314   4.963  74.379  1.00  0.00    -0.130 A  
HETATM   19  C   UNL     1     -10.202   5.839  73.747  1.00  0.00    -0.245 A  
ENDBRANCH  12  14
ENDBRANCH   9  12
ENDBRANCH   4   6
ENDBRANCH   2   4
TORSDOF 4
ENDMDL
MODEL       94
REMARK 921   NORMALIZED FREE ENERGY PREDICTED BY IDOCK:   -4.16 KCAL/MOL
REMARK 922        TOTAL FREE ENERGY PREDICTED BY IDOCK:   -5.68 KCAL/MOL
REMARK 923 INTER-LIGAND FREE ENERGY PREDICTED BY IDOCK:   -5.12 KCAL/MOL
REMARK 924 INTRA-LIGAND FREE ENERGY PREDICTED BY IDOCK:   -0.56 KCAL/MOL
REMARK 927      BINDING AFFINITY PREDICTED BY RF-SCORE:    0.00 PKD
ROOT
HETATM    1  C   UNL     1     -11.815  11.845  69.317  1.00  0.00    -0.379 C  
HETATM    2  C   UNL     1     -11.379  12.641  68.087  1.00  0.00    -0.290 C  
HETATM    3  C   UNL     1     -11.633  11.845  66.812  1.00  0.00    -0.341 C  
ENDROOT
BRANCH   2   4
HETATM    4  N   UNL     1     -12.112  13.905  68.052  1.00  0.00    -0.477 NA 
HETATM    5  H   UNL     1     -13.132  13.879  68.053  1.00  0.00     0.000 HD 
BRANCH   4   6
HETATM    6  C   UNL     1     -11.476  15.144  68.017  1.00  0.00    -0.342 A  
HETATM    7  C   UNL     1     -10.772  15.618  66.911  1.00  0.00    -0.307 A  
HETATM    8  C   UNL     1     -10.006  16.787  66.976  1.00  0.00    -0.269 A  
HETATM    9  C   UNL     1      -9.912  17.523  68.160  1.00  0.00    -0.321 A  
HETATM   10  C   UNL     1     -11.396  15.903  69.196  1.00  0.00    -0.366 A  
HETATM   11  C   UNL     1     -10.639  17.086  69.265  1.00  0.00    -0.276 A  
BRANCH   9  12
HETATM   12  N   UNL     1      -9.032  18.619  68.176  1.00  0.00    -0.302 NA 
HETATM   13  H   UNL     1      -9.245  19.320  68.887  1.00  0.00     0.000 HD 
BRANCH  12  14
HETATM   14  C   UNL     1      -7.909  18.920  67.386  1.00  0.00    -0.238 A  
HETATM   15  C   UNL     1      -6.793  18.071  67.434  1.00  0.00    -0.202 A  
HETATM   16  C   UNL     1      -5.691  18.284  66.602  1.00  0.00    -0.172 A  
HETATM   17  C   UNL     1      -5.697  19.344  65.701  1.00  0.00    -0.187 A  
HETATM   18  C   UNL     1      -6.793  20.203  65.650  1.00  0.00    -0.314 A  
HETATM   19  C   UNL     1      -7.889  19.998  66.495  1.00  0.00    -0.334 A  
ENDBRANCH  12  14
ENDBRANCH   9  12
ENDBRANCH   4   6
ENDBRANCH   2   4
TORSDOF 4
ENDMDL
MODEL       95
REMARK 921   NORMALIZED FREE ENERGY PREDICTED BY IDOCK:   -4.14 KCAL/MOL
REMARK 922        TOTAL FREE ENERGY PREDICTED BY IDOCK:   -5.66 KCAL/MOL
REMARK 923 INTER-LIGAND FREE ENERGY PREDICTED BY IDOCK:   -5.04 KCAL/MOL
REMARK 924 INTRA-LIGAND FREE ENERGY PREDICTED BY IDOCK:   -0.62 KCAL/MOL
REMARK 927      BINDING AFFINITY PREDICTED BY RF-SCORE:    0.00 PKD
ROOT
HETATM    1  C   UNL     1      -8.670  15.543  66.970  1.00  0.00    -0.258 C  
HETATM    2  C   UNL     1      -9.850  14.722  66.452  1.00  0.00    -0.280 C  
HETATM    3  C   UNL     1     -10.626  15.500  65.395  1.00  0.00    -0.428 C  
ENDROOT
BRANCH   2   4
HETATM    4  N   UNL     1      -9.351  13.466  65.895  1.00  0.00    -0.491 NA 
HETATM    5  H   UNL     1      -8.578  13.500  65.229  1.00  0.00     0.000 HD 
BRANCH   4   6
HETATM    6  C   UNL     1      -9.885  12.226  66.235  1.00  0.00    -0.241 A  
HETATM    7  C   UNL     1     -10.703  12.016  67.345  1.00  0.00    -0.266 A  
HETATM    8  C   UNL     1     -11.077  10.730  67.747  1.00  0.00    -0.381 A  
HETATM    9  C   UNL     1     -10.637   9.600  67.053  1.00  0.00    -0.197 A  
HETATM   10  C   UNL     1      -9.467  11.086  65.529  1.00  0.00    -0.250 A  
HETATM   11  C   UNL     1      -9.850   9.791  65.919  1.00  0.00    -0.352 A  
BRANCH   9  12
HETATM   12  N   UNL     1     -10.961   8.341  67.588  1.00  0.00    -0.489 NA 
HETATM   13  H   UNL     1     -11.792   7.911  67.180  1.00  0.00     0.000 HD 
BRANCH  12  14
HETATM   14  C   UNL     1     -10.342   7.570  68.587  1.00  0.00    -0.200 A  
HETATM   15  C   UNL     1     -10.998   6.430  69.075  1.00  0.00    -0.410 A  
HETATM   16  C   UNL     1     -10.382   5.588  70.004  1.00  0.00    -0.358 A  
HETATM   17  C   UNL     1      -9.094   5.870  70.449  1.00  0.00    -0.157 A  
HETATM   18  C   UNL     1      -8.433   7.005  69.982  1.00  0.00    -0.140 A  
HETATM   19  C   UNL     1      -9.058   7.856  69.063  1.00  0.00    -0.144 A  
ENDBRANCH  12  14
ENDBRANCH   9  12
ENDBRANCH   4   6
ENDBRANCH   2   4
TORSDOF 4
ENDMDL
MODEL       96
REMARK 921   NORMALIZED FREE ENERGY PREDICTED BY IDOCK:   -4.14 KCAL/MOL
REMARK 922        TOTAL FREE ENERGY PREDICTED BY IDOCK:   -5.66 KCAL/MOL
REMARK 923 INTER-LIGAND FREE ENERGY PREDICTED BY IDOCK:   -5.08 KCAL/MOL
REMARK 924 INTRA-LIGAND FREE ENERGY PREDICTED BY IDOCK:   -0.58 KCAL/MOL
REMARK 927      BINDING AFFINITY PREDICTED BY RF-SCORE:    0.00 PKD
ROOT
HETATM    1  C   UNL     1     -10.071   5.427  66.350  1.00  0.00    -0.239 C  
HETATM    2  C   UNL     1      -9.212   6.627  66.749  1.00  0.00    -0.149 C  
HETATM    3  C   UNL     1      -7.730   6.298  66.609  1.00  0.00    -0.100 C  
ENDROOT
BRANCH   2   4
HETATM    4  N   UNL     1      -9.562   7.767  65.904  1.00  0.00    -0.424 NA 
HETATM    5  H   UNL     1      -9.470   7.672  64.892  1.00  0.00     0.000 HD 
BRANCH   4   6
HETATM    6  C   UNL     1     -10.015   8.978  66.422  1.00  0.00    -0.300 A  
HETATM    7  C   UNL     1     -10.537   9.119  67.708  1.00  0.00    -0.289 A  
HETATM    8  C   UNL     1     -11.138  10.311  68.128  1.00  0.00    -0.324 A  
HETATM    9  C   UNL     1     -11.244  11.407  67.269  1.00  0.00    -0.304 A  
HETATM   10  C   UNL     1     -10.105  10.093  65.573  1.00  0.00    -0.338 A  
HETATM   11  C   UNL     1     -10.694  11.298  65.993  1.00  0.00    -0.301 A  
BRANCH   9  12
HETATM   12  N   UNL     1     -11.963  12.525  67.727  1.00  0.00    -0.429 NA 
HETATM   13  H   UNL     1     -12.946  12.534  67.453  1.00  0.00     0.000 HD 
BRANCH  12  14
HETATM   14  C   UNL     1     -11.566  13.632  68.496  1.00  0.00    -0.335 A  
HETATM   15  C   UNL     1     -10.458  14.388  68.086  1.00  0.00    -0.237 A  
HETATM   16  C   UNL     1     -10.083  15.546  68.771  1.00  0.00    -0.211 A  
HETATM   17  C   UNL     1     -10.820  15.969  69.873  1.00  0.00    -0.351 A  
HETATM   18  C   UNL     1     -11.917  15.222  70.300  1.00  0.00    -0.367 A  
HETATM   19  C   UNL     1     -12.282  14.054  69.622  1.00  0.00    -0.383 A  
ENDBRANCH  12  14
ENDBRANCH   9  12
ENDBRANCH   4   6
ENDBRANCH   2   4
TORSDOF 4
ENDMDL
MODEL       97
REMARK 921   NORMALIZED FREE ENERGY PREDICTED BY IDOCK:   -4.13 KCAL/MOL
REMARK 922        TOTAL FREE ENERGY PREDICTED BY IDOCK:   -5.65 KCAL/MOL
REMARK 923 INTER-LIGAND FREE ENERGY PREDICTED BY IDOCK:   -5.23 KCAL/MOL
REMARK 924 INTRA-LIGAND FREE ENERGY PREDICTED BY IDOCK:   -0.42 KCAL/MOL
REMARK 927      BINDING AFFINITY PREDICTED BY RF-SCORE:    0.00 PKD
ROOT
HETATM    1  C   UNL     1      -7.972   7.942  62.396  1.00  0.00    -0.153 C  
HETATM    2  C   UNL     1      -8.058   9.289  63.114  1.00  0.00    -0.158 C  
HETATM    3  C   UNL     1      -7.118  10.303  62.471  1.00  0.00    -0.151 C  
ENDROOT
BRANCH   2   4
HETATM    4  N   UNL     1      -9.437   9.770  63.062  1.00  0.00    -0.541 NA 
HETATM    5  H   UNL     1     -10.062   9.389  62.351  1.00  0.00     0.000 HD 
BRANCH   4   6
HETATM    6  C   UNL     1      -9.935  10.727  63.944  1.00  0.00    -0.343 A  
HETATM    7  C   UNL     1     -10.203  12.046  63.579  1.00  0.00    -0.477 A  
HETATM    8  C   UNL     1     -10.537  13.016  64.530  1.00  0.00    -0.413 A  
HETATM    9  C   UNL     1     -10.608  12.699  65.889  1.00  0.00    -0.273 A  
HETATM   10  C   UNL     1     -10.032  10.412  65.309  1.00  0.00    -0.376 A  
HETATM   11  C   UNL     1     -10.380  11.378  66.269  1.00  0.00    -0.287 A  
BRANCH   9  12
HETATM   12  N   UNL     1     -10.835  13.753  66.791  1.00  0.00    -0.283 NA 
HETATM   13  H   UNL     1     -11.514  13.542  67.524  1.00  0.00     0.000 HD 
BRANCH  12  14
HETATM   14  C   UNL     1     -10.292  15.047  66.863  1.00  0.00    -0.266 A  
HETATM   15  C   UNL     1      -9.029  15.290  66.301  1.00  0.00    -0.314 A  
HETATM   16  C   UNL     1      -8.490  16.579  66.273  1.00  0.00    -0.363 A  
HETATM   17  C   UNL     1      -9.213  17.645  66.798  1.00  0.00    -0.281 A  
HETATM   18  C   UNL     1     -10.464  17.418  67.370  1.00  0.00    -0.336 A  
HETATM   19  C   UNL     1     -10.996  16.124  67.411  1.00  0.00    -0.210 A  
ENDBRANCH  12  14
ENDBRANCH   9  12
ENDBRANCH   4   6
ENDBRANCH   2   4
TORSDOF 4
ENDMDL
MODEL       98
REMARK 921   NORMALIZED FREE ENERGY PREDICTED BY IDOCK:   -4.11 KCAL/MOL
REMARK 922        TOTAL FREE ENERGY PREDICTED BY IDOCK:   -5.62 KCAL/MOL
REMARK 923 INTER-LIGAND FREE ENERGY PREDICTED BY IDOCK:   -5.18 KCAL/MOL
REMARK 924 INTRA-LIGAND FREE ENERGY PREDICTED BY IDOCK:   -0.43 KCAL/MOL
REMARK 927      BINDING AFFINITY PREDICTED BY RF-SCORE:    0.00 PKD
ROOT
HETATM    1  C   UNL     1      -9.096  20.436  67.089  1.00  0.00    -0.489 C  
HETATM    2  C   UNL     1     -10.407  19.652  67.139  1.00  0.00    -0.457 C  
HETATM    3  C   UNL     1     -10.448  18.598  66.038  1.00  0.00    -0.456 C  
ENDROOT
BRANCH   2   4
HETATM    4  N   UNL     1     -10.535  19.020  68.452  1.00  0.00    -0.410 NA 
HETATM    5  H   UNL     1     -10.864  19.584  69.236  1.00  0.00     0.000 HD 
BRANCH   4   6
HETATM    6  C   UNL     1     -10.226  17.680  68.676  1.00  0.00    -0.377 A  
HETATM    7  C   UNL     1      -8.926  17.176  68.665  1.00  0.00    -0.267 A  
HETATM    8  C   UNL     1      -8.672  15.802  68.724  1.00  0.00    -0.203 A  
HETATM    9  C   UNL     1      -9.717  14.878  68.789  1.00  0.00    -0.225 A  
HETATM   10  C   UNL     1     -11.270  16.745  68.766  1.00  0.00    -0.148 A  
HETATM   11  C   UNL     1     -11.023  15.363  68.840  1.00  0.00    -0.261 A  
BRANCH   9  12
HETATM   12  N   UNL     1      -9.384  13.513  68.728  1.00  0.00    -0.399 NA 
HETATM   13  H   UNL     1      -8.863  13.170  69.536  1.00  0.00     0.000 HD 
BRANCH  12  14
HETATM   14  C   UNL     1      -9.640  12.538  67.749  1.00  0.00    -0.203 A  
HETATM   15  C   UNL     1     -10.060  11.261  68.150  1.00  0.00    -0.195 A  
HETATM   16  C   UNL     1     -10.410  10.289  67.209  1.00  0.00    -0.284 A  
HETATM   17  C   UNL     1     -10.353  10.587  65.852  1.00  0.00    -0.275 A  
HETATM   18  C   UNL     1      -9.927  11.848  65.436  1.00  0.00    -0.281 A  
HETATM   19  C   UNL     1      -9.562  12.815  66.380  1.00  0.00    -0.254 A  
ENDBRANCH  12  14
ENDBRANCH   9  12
ENDBRANCH   4   6
ENDBRANCH   2   4
TORSDOF 4
ENDMDL
MODEL       99
REMARK 921   NORMALIZED FREE ENERGY PREDICTED BY IDOCK:   -4.08 KCAL/MOL
REMARK 922        TOTAL FREE ENERGY PREDICTED BY IDOCK:   -5.58 KCAL/MOL
REMARK 923 INTER-LIGAND FREE ENERGY PREDICTED BY IDOCK:   -5.09 KCAL/MOL
REMARK 924 INTRA-LIGAND FREE ENERGY PREDICTED BY IDOCK:   -0.49 KCAL/MOL
REMARK 927      BINDING AFFINITY PREDICTED BY RF-SCORE:    0.00 PKD
ROOT
HETATM    1  C   UNL     1     -11.488  15.623  70.097  1.00  0.00    -0.358 C  
HETATM    2  C   UNL     1     -11.104  15.654  68.618  1.00  0.00    -0.317 C  
HETATM    3  C   UNL     1     -10.640  17.049  68.210  1.00  0.00    -0.372 C  
ENDROOT
BRANCH   2   4
HETATM    4  N   UNL     1     -10.044  14.676  68.379  1.00  0.00    -0.230 NA 
HETATM    5  H   UNL     1      -9.088  15.012  68.256  1.00  0.00     0.000 HD 
BRANCH   4   6
HETATM    6  C   UNL     1     -10.285  13.306  68.311  1.00  0.00    -0.250 A  
HETATM    7  C   UNL     1     -11.562  12.748  68.273  1.00  0.00    -0.375 A  
HETATM    8  C   UNL     1     -11.763  11.368  68.379  1.00  0.00    -0.373 A  
HETATM    9  C   UNL     1     -10.686  10.492  68.534  1.00  0.00    -0.224 A  
HETATM   10  C   UNL     1      -9.206  12.416  68.444  1.00  0.00    -0.145 A  
HETATM   11  C   UNL     1      -9.399  11.027  68.537  1.00  0.00    -0.188 A  
BRANCH   9  12
HETATM   12  N   UNL     1     -10.979   9.134  68.750  1.00  0.00    -0.445 NA 
HETATM   13  H   UNL     1     -11.214   8.615  67.904  1.00  0.00     0.000 HD 
BRANCH  12  14
HETATM   14  C   UNL     1     -11.003   8.366  69.927  1.00  0.00    -0.166 A  
HETATM   15  C   UNL     1     -11.526   8.929  71.100  1.00  0.00    -0.364 A  
HETATM   16  C   UNL     1     -11.650   8.173  72.268  1.00  0.00    -0.436 A  
HETATM   17  C   UNL     1     -11.261   6.837  72.274  1.00  0.00    -0.295 A  
HETATM   18  C   UNL     1     -10.729   6.266  71.119  1.00  0.00    -0.301 A  
HETATM   19  C   UNL     1     -10.591   7.029  69.955  1.00  0.00    -0.249 A  
ENDBRANCH  12  14
ENDBRANCH   9  12
ENDBRANCH   4   6
ENDBRANCH   2   4
TORSDOF 4
ENDMDL
MODEL      100
REMARK 921   NORMALIZED FREE ENERGY PREDICTED BY IDOCK:   -4.05 KCAL/MOL
REMARK 922        TOTAL FREE ENERGY PREDICTED BY IDOCK:   -5.55 KCAL/MOL
REMARK 923 INTER-LIGAND FREE ENERGY PREDICTED BY IDOCK:   -5.02 KCAL/MOL
REMARK 924 INTRA-LIGAND FREE ENERGY PREDICTED BY IDOCK:   -0.53 KCAL/MOL
REMARK 927      BINDING AFFINITY PREDICTED BY RF-SCORE:    0.00 PKD
ROOT
HETATM    1  C   UNL     1      -9.121   4.726  65.112  1.00  0.00    -0.155 C  
HETATM    2  C   UNL     1      -9.751   5.373  66.345  1.00  0.00    -0.166 C  
HETATM    3  C   UNL     1      -9.874   4.362  67.481  1.00  0.00    -0.180 C  
ENDROOT
BRANCH   2   4
HETATM    4  N   UNL     1      -8.929   6.508  66.762  1.00  0.00    -0.127 NA 
HETATM    5  H   UNL     1      -7.945   6.345  66.979  1.00  0.00     0.000 HD 
BRANCH   4   6
HETATM    6  C   UNL     1      -9.432   7.801  66.875  1.00  0.00    -0.187 A  
HETATM    7  C   UNL     1     -10.219   8.232  67.943  1.00  0.00    -0.276 A  
HETATM    8  C   UNL     1     -10.845   9.483  67.934  1.00  0.00    -0.240 A  
HETATM    9  C   UNL     1     -10.710  10.349  66.847  1.00  0.00    -0.207 A  
HETATM   10  C   UNL     1      -9.283   8.688  65.796  1.00  0.00    -0.245 A  
HETATM   11  C   UNL     1      -9.898   9.953  65.786  1.00  0.00    -0.356 A  
BRANCH   9  12
HETATM   12  N   UNL     1     -11.463  11.537  66.864  1.00  0.00    -0.483 NA 
HETATM   13  H   UNL     1     -12.239  11.533  67.527  1.00  0.00     0.000 HD 
BRANCH  12  14
HETATM   14  C   UNL     1     -11.337  12.727  66.128  1.00  0.00    -0.328 A  
HETATM   15  C   UNL     1     -12.442  13.210  65.413  1.00  0.00    -0.535 A  
HETATM   16  C   UNL     1     -12.387  14.433  64.740  1.00  0.00    -0.427 A  
HETATM   17  C   UNL     1     -11.224  15.195  64.783  1.00  0.00    -0.396 A  
HETATM   18  C   UNL     1     -10.112  14.724  65.480  1.00  0.00    -0.409 A  
HETATM   19  C   UNL     1     -10.165  13.492  66.141  1.00  0.00    -0.303 A  
ENDBRANCH  12  14
ENDBRANCH   9  12
ENDBRANCH   4   6
ENDBRANCH   2   4
TORSDOF 4
ENDMDL
MODEL      101
REMARK 921   NORMALIZED FREE ENERGY PREDICTED BY IDOCK:   -4.05 KCAL/MOL
REMARK 922        TOTAL FREE ENERGY PREDICTED BY IDOCK:   -5.55 KCAL/MOL
REMARK 923 INTER-LIGAND FREE ENERGY PREDICTED BY IDOCK:   -4.96 KCAL/MOL
REMARK 924 INTRA-LIGAND FREE ENERGY PREDICTED BY IDOCK:   -0.59 KCAL/MOL
REMARK 927      BINDING AFFINITY PREDICTED BY RF-SCORE:    0.00 PKD
ROOT
HETATM    1  C   UNL     1     -10.329   3.775  63.646  1.00  0.00    -0.232 C  
HETATM    2  C   UNL     1      -9.936   3.971  65.109  1.00  0.00    -0.198 C  
HETATM    3  C   UNL     1      -8.945   2.899  65.550  1.00  0.00    -0.145 C  
ENDROOT
BRANCH   2   4
HETATM    4  N   UNL     1      -9.351   5.301  65.272  1.00  0.00    -0.337 NA 
HETATM    5  H   UNL     1      -8.698   5.638  64.564  1.00  0.00     0.000 HD 
BRANCH   4   6
HETATM    6  C   UNL     1      -9.648   6.127  66.354  1.00  0.00    -0.127 A  
HETATM    7  C   UNL     1      -8.827   7.173  66.774  1.00  0.00    -0.137 A  
HETATM    8  C   UNL     1      -9.074   7.867  67.963  1.00  0.00    -0.132 A  
HETATM    9  C   UNL     1     -10.155   7.532  68.782  1.00  0.00    -0.185 A  
HETATM   10  C   UNL     1     -10.746   5.813  67.171  1.00  0.00    -0.358 A  
HETATM   11  C   UNL     1     -11.010   6.515  68.360  1.00  0.00    -0.358 A  
BRANCH   9  12
HETATM   12  N   UNL     1     -10.268   8.198  70.015  1.00  0.00    -0.198 NA 
HETATM   13  H   UNL     1      -9.487   8.038  70.653  1.00  0.00     0.000 HD 
BRANCH  12  14
HETATM   14  C   UNL     1     -11.266   9.045  70.525  1.00  0.00    -0.260 A  
HETATM   15  C   UNL     1     -12.149   8.553  71.498  1.00  0.00    -0.351 A  
HETATM   16  C   UNL     1     -13.100   9.385  72.094  1.00  0.00    -0.526 A  
HETATM   17  C   UNL     1     -13.172  10.726  71.732  1.00  0.00    -0.523 A  
HETATM   18  C   UNL     1     -12.309  11.228  70.758  1.00  0.00    -0.495 A  
HETATM   19  C   UNL     1     -11.368  10.389  70.151  1.00  0.00    -0.397 A  
ENDBRANCH  12  14
ENDBRANCH   9  12
ENDBRANCH   4   6
ENDBRANCH   2   4
TORSDOF 4
ENDMDL
MODEL      102
REMARK 921   NORMALIZED FREE ENERGY PREDICTED BY IDOCK:   -4.01 KCAL/MOL
REMARK 922        TOTAL FREE ENERGY PREDICTED BY IDOCK:   -5.49 KCAL/MOL
REMARK 923 INTER-LIGAND FREE ENERGY PREDICTED BY IDOCK:   -4.90 KCAL/MOL
REMARK 924 INTRA-LIGAND FREE ENERGY PREDICTED BY IDOCK:   -0.59 KCAL/MOL
REMARK 927      BINDING AFFINITY PREDICTED BY RF-SCORE:    0.00 PKD
ROOT
HETATM    1  C   UNL     1     -11.850  15.491  71.869  1.00  0.00    -0.514 C  
HETATM    2  C   UNL     1     -13.051  14.786  71.240  1.00  0.00    -0.368 C  
HETATM    3  C   UNL     1     -14.356  15.404  71.732  1.00  0.00    -0.639 C  
ENDROOT
BRANCH   2   4
HETATM    4  N   UNL     1     -12.957  14.889  69.785  1.00  0.00    -0.487 NA 
HETATM    5  H   UNL     1     -13.706  15.363  69.279  1.00  0.00     0.000 HD 
BRANCH   4   6
HETATM    6  C   UNL     1     -11.889  14.365  69.060  1.00  0.00    -0.323 A  
HETATM    7  C   UNL     1     -11.191  15.082  68.089  1.00  0.00    -0.316 A  
HETATM    8  C   UNL     1     -10.241  14.468  67.266  1.00  0.00    -0.255 A  
HETATM    9  C   UNL     1      -9.959  13.105  67.383  1.00  0.00    -0.229 A  
HETATM   10  C   UNL     1     -11.582  13.001  69.187  1.00  0.00    -0.368 A  
HETATM   11  C   UNL     1     -10.618  12.380  68.374  1.00  0.00    -0.251 A  
BRANCH   9  12
HETATM   12  N   UNL     1      -9.078  12.541  66.444  1.00  0.00    -0.378 NA 
HETATM   13  H   UNL     1      -8.875  13.141  65.644  1.00  0.00     0.000 HD 
BRANCH  12  14
HETATM   14  C   UNL     1      -8.428  11.295  66.413  1.00  0.00    -0.169 A  
HETATM   15  C   UNL     1      -7.114  11.198  66.895  1.00  0.00    -0.131 A  
HETATM   16  C   UNL     1      -6.462   9.965  66.963  1.00  0.00    -0.069 A  
HETATM   17  C   UNL     1      -7.121   8.808  66.558  1.00  0.00    -0.080 A  
HETATM   18  C   UNL     1      -8.423   8.890  66.066  1.00  0.00    -0.138 A  
HETATM   19  C   UNL     1      -9.069  10.128  65.984  1.00  0.00    -0.185 A  
ENDBRANCH  12  14
ENDBRANCH   9  12
ENDBRANCH   4   6
ENDBRANCH   2   4
TORSDOF 4
ENDMDL
MODEL      103
REMARK 921   NORMALIZED FREE ENERGY PREDICTED BY IDOCK:   -3.99 KCAL/MOL
REMARK 922        TOTAL FREE ENERGY PREDICTED BY IDOCK:   -5.47 KCAL/MOL
REMARK 923 INTER-LIGAND FREE ENERGY PREDICTED BY IDOCK:   -4.92 KCAL/MOL
REMARK 924 INTRA-LIGAND FREE ENERGY PREDICTED BY IDOCK:   -0.55 KCAL/MOL
REMARK 927      BINDING AFFINITY PREDICTED BY RF-SCORE:    0.00 PKD
ROOT
HETATM    1  C   UNL     1     -12.925  15.644  73.038  1.00  0.00    -0.617 C  
HETATM    2  C   UNL     1     -12.784  14.772  71.791  1.00  0.00    -0.328 C  
HETATM    3  C   UNL     1     -13.952  13.798  71.678  1.00  0.00    -0.257 C  
ENDROOT
BRANCH   2   4
HETATM    4  N   UNL     1     -12.723  15.632  70.611  1.00  0.00    -0.474 NA 
HETATM    5  H   UNL     1     -13.547  16.180  70.363  1.00  0.00     0.000 HD 
BRANCH   4   6
HETATM    6  C   UNL     1     -11.587  15.734  69.811  1.00  0.00    -0.355 A  
HETATM    7  C   UNL     1     -10.313  15.352  70.228  1.00  0.00    -0.205 A  
HETATM    8  C   UNL     1      -9.176  15.629  69.461  1.00  0.00    -0.259 A  
HETATM    9  C   UNL     1      -9.275  16.309  68.245  1.00  0.00    -0.197 A  
HETATM   10  C   UNL     1     -11.680  16.396  68.576  1.00  0.00     0.020 A  
HETATM   11  C   UNL     1     -10.544  16.666  67.793  1.00  0.00    -0.342 A  
BRANCH   9  12
HETATM   12  N   UNL     1      -8.078  16.651  67.592  1.00  0.00    -0.169 NA 
HETATM   13  H   UNL     1      -7.422  15.877  67.484  1.00  0.00     0.000 HD 
BRANCH  12  14
HETATM   14  C   UNL     1      -7.626  17.871  67.062  1.00  0.00    -0.201 A  
HETATM   15  C   UNL     1      -6.848  17.863  65.894  1.00  0.00    -0.315 A  
HETATM   16  C   UNL     1      -6.451  19.055  65.285  1.00  0.00    -0.301 A  
HETATM   17  C   UNL     1      -6.837  20.275  65.832  1.00  0.00    -0.281 A  
HETATM   18  C   UNL     1      -7.600  20.301  66.998  1.00  0.00    -0.351 A  
HETATM   19  C   UNL     1      -7.984  19.105  67.616  1.00  0.00    -0.290 A  
ENDBRANCH  12  14
ENDBRANCH   9  12
ENDBRANCH   4   6
ENDBRANCH   2   4
TORSDOF 4
ENDMDL
MODEL      104
REMARK 921   NORMALIZED FREE ENERGY PREDICTED BY IDOCK:   -3.98 KCAL/MOL
REMARK 922        TOTAL FREE ENERGY PREDICTED BY IDOCK:   -5.46 KCAL/MOL
REMARK 923 INTER-LIGAND FREE ENERGY PREDICTED BY IDOCK:   -5.04 KCAL/MOL
REMARK 924 INTRA-LIGAND FREE ENERGY PREDICTED BY IDOCK:   -0.42 KCAL/MOL
REMARK 927      BINDING AFFINITY PREDICTED BY RF-SCORE:    0.00 PKD
ROOT
HETATM    1  C   UNL     1     -10.080  18.341  66.414  1.00  0.00    -0.406 C  
HETATM    2  C   UNL     1      -9.728  18.666  67.865  1.00  0.00    -0.318 C  
HETATM    3  C   UNL     1     -10.246  20.048  68.249  1.00  0.00    -0.527 C  
ENDROOT
BRANCH   2   4
HETATM    4  N   UNL     1     -10.307  17.646  68.738  1.00  0.00    -0.366 NA 
HETATM    5  H   UNL     1     -10.565  17.907  69.690  1.00  0.00     0.000 HD 
BRANCH   4   6
HETATM    6  C   UNL     1     -10.520  16.334  68.324  1.00  0.00    -0.284 A  
HETATM    7  C   UNL     1     -11.777  15.818  68.011  1.00  0.00    -0.116 A  
HETATM    8  C   UNL     1     -11.971  14.455  67.766  1.00  0.00    -0.368 A  
HETATM    9  C   UNL     1     -10.907  13.552  67.834  1.00  0.00    -0.247 A  
HETATM   10  C   UNL     1      -9.452  15.423  68.366  1.00  0.00    -0.200 A  
HETATM   11  C   UNL     1      -9.635  14.053  68.108  1.00  0.00    -0.220 A  
BRANCH   9  12
HETATM   12  N   UNL     1     -11.204  12.185  67.690  1.00  0.00    -0.266 NA 
HETATM   13  H   UNL     1     -11.949  11.850  68.302  1.00  0.00     0.000 HD 
BRANCH  12  14
HETATM   14  C   UNL     1     -10.655  11.199  66.853  1.00  0.00    -0.258 A  
HETATM   15  C   UNL     1     -10.028  11.587  65.660  1.00  0.00    -0.275 A  
HETATM   16  C   UNL     1      -9.394  10.649  64.841  1.00  0.00    -0.271 A  
HETATM   17  C   UNL     1      -9.369   9.309  65.214  1.00  0.00    -0.269 A  
HETATM   18  C   UNL     1      -9.997   8.906  66.391  1.00  0.00    -0.354 A  
HETATM   19  C   UNL     1     -10.646   9.844  67.201  1.00  0.00    -0.295 A  
ENDBRANCH  12  14
ENDBRANCH   9  12
ENDBRANCH   4   6
ENDBRANCH   2   4
TORSDOF 4
ENDMDL
MODEL      105
REMARK 921   NORMALIZED FREE ENERGY PREDICTED BY IDOCK:   -3.92 KCAL/MOL
REMARK 922        TOTAL FREE ENERGY PREDICTED BY IDOCK:   -5.39 KCAL/MOL
REMARK 923 INTER-LIGAND FREE ENERGY PREDICTED BY IDOCK:   -4.80 KCAL/MOL
REMARK 924 INTRA-LIGAND FREE ENERGY PREDICTED BY IDOCK:   -0.59 KCAL/MOL
REMARK 927      BINDING AFFINITY PREDICTED BY RF-SCORE:    0.00 PKD
ROOT
HETATM    1  C   UNL     1     -11.940  15.926  71.095  1.00  0.00    -0.472 C  
HETATM    2  C   UNL     1     -11.963  15.103  69.808  1.00  0.00    -0.334 C  
HETATM    3  C   UNL     1     -11.765  16.000  68.591  1.00  0.00    -0.273 C  
ENDROOT
BRANCH   2   4
HETATM    4  N   UNL     1     -10.910  14.090  69.869  1.00  0.00    -0.449 NA 
HETATM    5  H   UNL     1     -10.034  14.324  70.338  1.00  0.00     0.000 HD 
BRANCH   4   6
HETATM    6  C   UNL     1     -11.053  12.821  69.314  1.00  0.00    -0.133 A  
HETATM    7  C   UNL     1     -11.806  11.803  69.900  1.00  0.00    -0.423 A  
HETATM    8  C   UNL     1     -11.785  10.496  69.402  1.00  0.00    -0.295 A  
HETATM    9  C   UNL     1     -10.998  10.158  68.299  1.00  0.00    -0.248 A  
HETATM   10  C   UNL     1     -10.284  12.477  68.191  1.00  0.00    -0.231 A  
HETATM   11  C   UNL     1     -10.268  11.168  67.676  1.00  0.00    -0.208 A  
BRANCH   9  12
HETATM   12  N   UNL     1     -10.941   8.801  67.933  1.00  0.00    -0.491 NA 
HETATM   13  H   UNL     1     -11.419   8.581  67.058  1.00  0.00     0.000 HD 
BRANCH  12  14
HETATM   14  C   UNL     1     -10.343   7.695  68.559  1.00  0.00    -0.198 A  
HETATM   15  C   UNL     1     -10.722   6.401  68.171  1.00  0.00    -0.359 A  
HETATM   16  C   UNL     1     -10.091   5.275  68.705  1.00  0.00    -0.248 A  
HETATM   17  C   UNL     1      -9.062   5.430  69.629  1.00  0.00    -0.145 A  
HETATM   18  C   UNL     1      -8.681   6.708  70.033  1.00  0.00    -0.141 A  
HETATM   19  C   UNL     1      -9.325   7.835  69.509  1.00  0.00    -0.149 A  
ENDBRANCH  12  14
ENDBRANCH   9  12
ENDBRANCH   4   6
ENDBRANCH   2   4
TORSDOF 4
ENDMDL
MODEL      106
REMARK 921   NORMALIZED FREE ENERGY PREDICTED BY IDOCK:   -3.92 KCAL/MOL
REMARK 922        TOTAL FREE ENERGY PREDICTED BY IDOCK:   -5.38 KCAL/MOL
REMARK 923 INTER-LIGAND FREE ENERGY PREDICTED BY IDOCK:   -4.88 KCAL/MOL
REMARK 924 INTRA-LIGAND FREE ENERGY PREDICTED BY IDOCK:   -0.50 KCAL/MOL
REMARK 927      BINDING AFFINITY PREDICTED BY RF-SCORE:    0.00 PKD
ROOT
HETATM    1  C   UNL     1     -12.178  12.561  70.631  1.00  0.00    -0.365 C  
HETATM    2  C   UNL     1     -12.169  11.192  69.951  1.00  0.00    -0.314 C  
HETATM    3  C   UNL     1     -12.099  11.343  68.435  1.00  0.00    -0.118 C  
ENDROOT
BRANCH   2   4
HETATM    4  N   UNL     1     -11.025  10.424  70.439  1.00  0.00    -0.402 NA 
HETATM    5  H   UNL     1     -10.086  10.728  70.179  1.00  0.00     0.000 HD 
BRANCH   4   6
HETATM    6  C   UNL     1     -11.164   9.294  71.242  1.00  0.00    -0.355 A  
HETATM    7  C   UNL     1     -10.115   8.732  71.969  1.00  0.00    -0.397 A  
HETATM    8  C   UNL     1     -10.253   7.503  72.624  1.00  0.00    -0.297 A  
HETATM    9  C   UNL     1     -11.451   6.787  72.568  1.00  0.00    -0.231 A  
HETATM   10  C   UNL     1     -12.372   8.579  71.211  1.00  0.00    -0.301 A  
HETATM   11  C   UNL     1     -12.523   7.351  71.878  1.00  0.00    -0.334 A  
BRANCH   9  12
HETATM   12  N   UNL     1     -11.473   5.509  73.154  1.00  0.00    -0.509 NA 
HETATM   13  H   UNL     1     -12.095   5.425  73.959  1.00  0.00     0.000 HD 
BRANCH  12  14
HETATM   14  C   UNL     1     -10.788   4.327  72.827  1.00  0.00    -0.099 A  
HETATM   15  C   UNL     1     -10.958   3.192  73.635  1.00  0.00    -0.327 A  
HETATM   16  C   UNL     1     -10.366   1.973  73.298  1.00  0.00    -0.202 A  
HETATM   17  C   UNL     1      -9.602   1.870  72.140  1.00  0.00    -0.177 A  
HETATM   18  C   UNL     1      -9.413   2.991  71.333  1.00  0.00    -0.216 A  
HETATM   19  C   UNL     1      -9.995   4.215  71.680  1.00  0.00    -0.240 A  
ENDBRANCH  12  14
ENDBRANCH   9  12
ENDBRANCH   4   6
ENDBRANCH   2   4
TORSDOF 4
ENDMDL
MODEL      107
REMARK 921   NORMALIZED FREE ENERGY PREDICTED BY IDOCK:   -3.91 KCAL/MOL
REMARK 922        TOTAL FREE ENERGY PREDICTED BY IDOCK:   -5.37 KCAL/MOL
REMARK 923 INTER-LIGAND FREE ENERGY PREDICTED BY IDOCK:   -5.07 KCAL/MOL
REMARK 924 INTRA-LIGAND FREE ENERGY PREDICTED BY IDOCK:   -0.31 KCAL/MOL
REMARK 927      BINDING AFFINITY PREDICTED BY RF-SCORE:    0.00 PKD
ROOT
HETATM    1  C   UNL     1     -10.649  11.103  63.989  1.00  0.00    -0.436 C  
HETATM    2  C   UNL     1     -11.547  12.253  63.532  1.00  0.00    -0.486 C  
HETATM    3  C   UNL     1     -12.870  12.238  64.291  1.00  0.00    -0.336 C  
ENDROOT
BRANCH   2   4
HETATM    4  N   UNL     1     -10.850  13.519  63.751  1.00  0.00    -0.444 NA 
HETATM    5  H   UNL     1     -10.541  14.053  62.938  1.00  0.00     0.000 HD 
BRANCH   4   6
HETATM    6  C   UNL     1     -10.591  14.027  65.021  1.00  0.00    -0.410 A  
HETATM    7  C   UNL     1     -11.226  15.151  65.547  1.00  0.00    -0.320 A  
HETATM    8  C   UNL     1     -10.816  15.728  66.754  1.00  0.00    -0.254 A  
HETATM    9  C   UNL     1      -9.744  15.200  67.478  1.00  0.00    -0.205 A  
HETATM   10  C   UNL     1      -9.530  13.489  65.767  1.00  0.00     0.021 A  
HETATM   11  C   UNL     1      -9.120  14.054  66.988  1.00  0.00    -0.256 A  
BRANCH   9  12
HETATM   12  N   UNL     1      -9.320  15.904  68.618  1.00  0.00    -0.202 NA 
HETATM   13  H   UNL     1      -9.800  15.640  69.479  1.00  0.00     0.000 HD 
BRANCH  12  14
HETATM   14  C   UNL     1      -8.350  16.908  68.782  1.00  0.00    -0.240 A  
HETATM   15  C   UNL     1      -8.678  18.234  68.460  1.00  0.00    -0.325 A  
HETATM   16  C   UNL     1      -7.774  19.275  68.689  1.00  0.00    -0.394 A  
HETATM   17  C   UNL     1      -6.532  19.003  69.254  1.00  0.00    -0.321 A  
HETATM   18  C   UNL     1      -6.187  17.689  69.568  1.00  0.00    -0.245 A  
HETATM   19  C   UNL     1      -7.087  16.646  69.323  1.00  0.00    -0.212 A  
ENDBRANCH  12  14
ENDBRANCH   9  12
ENDBRANCH   4   6
ENDBRANCH   2   4
TORSDOF 4
ENDMDL
MODEL      108
REMARK 921   NORMALIZED FREE ENERGY PREDICTED BY IDOCK:   -3.88 KCAL/MOL
REMARK 922        TOTAL FREE ENERGY PREDICTED BY IDOCK:   -5.34 KCAL/MOL
REMARK 923 INTER-LIGAND FREE ENERGY PREDICTED BY IDOCK:   -4.70 KCAL/MOL
REMARK 924 INTRA-LIGAND FREE ENERGY PREDICTED BY IDOCK:   -0.63 KCAL/MOL
REMARK 927      BINDING AFFINITY PREDICTED BY RF-SCORE:    0.00 PKD
ROOT
HETATM    1  C   UNL     1      -7.440   6.906  63.486  1.00  0.00    -0.088 C  
HETATM    2  C   UNL     1      -8.145   7.269  64.793  1.00  0.00    -0.097 C  
HETATM    3  C   UNL     1      -7.434   6.635  65.983  1.00  0.00    -0.081 C  
ENDROOT
BRANCH   2   4
HETATM    4  N   UNL     1      -8.173   8.724  64.932  1.00  0.00    -0.150 NA 
HETATM    5  H   UNL     1      -7.770   9.294  64.188  1.00  0.00     0.000 HD 
BRANCH   4   6
HETATM    6  C   UNL     1      -8.726   9.364  66.039  1.00  0.00    -0.150 A  
HETATM    7  C   UNL     1      -7.978  10.094  66.961  1.00  0.00    -0.110 A  
HETATM    8  C   UNL     1      -8.543  10.576  68.147  1.00  0.00    -0.123 A  
HETATM    9  C   UNL     1      -9.883  10.335  68.456  1.00  0.00    -0.164 A  
HETATM   10  C   UNL     1     -10.079   9.147  66.347  1.00  0.00    -0.345 A  
HETATM   11  C   UNL     1     -10.658   9.639  67.530  1.00  0.00    -0.339 A  
BRANCH   9  12
HETATM   12  N   UNL     1     -10.344  10.751  69.718  1.00  0.00    -0.445 NA 
HETATM   13  H   UNL     1      -9.954  11.639  70.037  1.00  0.00     0.000 HD 
BRANCH  12  14
HETATM   14  C   UNL     1     -11.248  10.160  70.617  1.00  0.00    -0.340 A  
HETATM   15  C   UNL     1     -10.878   8.981  71.282  1.00  0.00    -0.385 A  
HETATM   16  C   UNL     1     -11.709   8.407  72.247  1.00  0.00    -0.453 A  
HETATM   17  C   UNL     1     -12.919   9.014  72.569  1.00  0.00    -0.429 A  
HETATM   18  C   UNL     1     -13.306  10.179  71.909  1.00  0.00    -0.505 A  
HETATM   19  C   UNL     1     -12.479  10.743  70.931  1.00  0.00    -0.500 A  
ENDBRANCH  12  14
ENDBRANCH   9  12
ENDBRANCH   4   6
ENDBRANCH   2   4
TORSDOF 4
ENDMDL
MODEL      109
REMARK 921   NORMALIZED FREE ENERGY PREDICTED BY IDOCK:   -3.86 KCAL/MOL
REMARK 922        TOTAL FREE ENERGY PREDICTED BY IDOCK:   -5.32 KCAL/MOL
REMARK 923 INTER-LIGAND FREE ENERGY PREDICTED BY IDOCK:   -5.14 KCAL/MOL
REMARK 924 INTRA-LIGAND FREE ENERGY PREDICTED BY IDOCK:   -0.18 KCAL/MOL
REMARK 927      BINDING AFFINITY PREDICTED BY RF-SCORE:    0.00 PKD
ROOT
HETATM    1  C   UNL     1      -8.629   9.611  64.361  1.00  0.00    -0.208 C  
HETATM    2  C   UNL     1      -9.662   9.922  65.444  1.00  0.00    -0.306 C  
HETATM    3  C   UNL     1     -10.014   8.663  66.229  1.00  0.00    -0.287 C  
ENDROOT
BRANCH   2   4
HETATM    4  N   UNL     1      -9.124  10.945  66.338  1.00  0.00    -0.167 NA 
HETATM    5  H   UNL     1      -8.564  10.649  67.138  1.00  0.00     0.000 HD 
BRANCH   4   6
HETATM    6  C   UNL     1      -9.345  12.306  66.145  1.00  0.00    -0.176 A  
HETATM    7  C   UNL     1      -8.872  13.295  67.007  1.00  0.00    -0.216 A  
HETATM    8  C   UNL     1      -9.259  14.632  66.872  1.00  0.00    -0.267 A  
HETATM    9  C   UNL     1     -10.145  15.029  65.867  1.00  0.00    -0.320 A  
HETATM   10  C   UNL     1     -10.216  12.718  65.123  1.00  0.00    -0.297 A  
HETATM   11  C   UNL     1     -10.599  14.062  64.972  1.00  0.00    -0.426 A  
BRANCH   9  12
HETATM   12  N   UNL     1     -10.575  16.367  65.870  1.00  0.00    -0.315 NA 
HETATM   13  H   UNL     1     -11.571  16.490  65.684  1.00  0.00     0.000 HD 
BRANCH  12  14
HETATM   14  C   UNL     1      -9.875  17.567  66.085  1.00  0.00    -0.242 A  
HETATM   15  C   UNL     1      -8.472  17.548  66.087  1.00  0.00    -0.177 A  
HETATM   16  C   UNL     1      -7.737  18.730  66.209  1.00  0.00    -0.295 A  
HETATM   17  C   UNL     1      -8.397  19.949  66.321  1.00  0.00    -0.371 A  
HETATM   18  C   UNL     1      -9.791  19.983  66.332  1.00  0.00    -0.578 A  
HETATM   19  C   UNL     1     -10.526  18.797  66.224  1.00  0.00    -0.489 A  
ENDBRANCH  12  14
ENDBRANCH   9  12
ENDBRANCH   4   6
ENDBRANCH   2   4
TORSDOF 4
ENDMDL
MODEL      110
REMARK 921   NORMALIZED FREE ENERGY PREDICTED BY IDOCK:   -3.86 KCAL/MOL
REMARK 922        TOTAL FREE ENERGY PREDICTED BY IDOCK:   -5.31 KCAL/MOL
REMARK 923 INTER-LIGAND FREE ENERGY PREDICTED BY IDOCK:   -4.92 KCAL/MOL
REMARK 924 INTRA-LIGAND FREE ENERGY PREDICTED BY IDOCK:   -0.39 KCAL/MOL
REMARK 927      BINDING AFFINITY PREDICTED BY RF-SCORE:    0.00 PKD
ROOT
HETATM    1  C   UNL     1     -12.350  10.446  70.823  1.00  0.00    -0.463 C  
HETATM    2  C   UNL     1     -11.414  11.098  69.806  1.00  0.00    -0.312 C  
HETATM    3  C   UNL     1     -11.460  10.354  68.476  1.00  0.00    -0.231 C  
ENDROOT
BRANCH   2   4
HETATM    4  N   UNL     1     -11.807  12.494  69.621  1.00  0.00    -0.323 NA 
HETATM    5  H   UNL     1     -12.791  12.742  69.727  1.00  0.00     0.000 HD 
BRANCH   4   6
HETATM    6  C   UNL     1     -10.894  13.498  69.308  1.00  0.00    -0.063 A  
HETATM    7  C   UNL     1     -10.959  14.790  69.829  1.00  0.00    -0.261 A  
HETATM    8  C   UNL     1     -10.130  15.813  69.359  1.00  0.00    -0.268 A  
HETATM    9  C   UNL     1      -9.205  15.580  68.339  1.00  0.00    -0.191 A  
HETATM   10  C   UNL     1      -9.945  13.267  68.299  1.00  0.00    -0.236 A  
HETATM   11  C   UNL     1      -9.098  14.287  67.831  1.00  0.00    -0.190 A  
BRANCH   9  12
HETATM   12  N   UNL     1      -8.491  16.685  67.843  1.00  0.00    -0.191 NA 
HETATM   13  H   UNL     1      -7.502  16.504  67.670  1.00  0.00     0.000 HD 
BRANCH  12  14
HETATM   14  C   UNL     1      -8.900  17.996  67.543  1.00  0.00    -0.252 A  
HETATM   15  C   UNL     1      -9.821  18.204  66.505  1.00  0.00    -0.362 A  
HETATM   16  C   UNL     1     -10.321  19.479  66.231  1.00  0.00    -0.601 A  
HETATM   17  C   UNL     1      -9.912  20.564  67.000  1.00  0.00    -0.489 A  
HETATM   18  C   UNL     1      -8.989  20.376  68.027  1.00  0.00    -0.122 A  
HETATM   19  C   UNL     1      -8.478  19.100  68.291  1.00  0.00    -0.367 A  
ENDBRANCH  12  14
ENDBRANCH   9  12
ENDBRANCH   4   6
ENDBRANCH   2   4
TORSDOF 4
ENDMDL
MODEL      111
REMARK 921   NORMALIZED FREE ENERGY PREDICTED BY IDOCK:   -3.82 KCAL/MOL
REMARK 922        TOTAL FREE ENERGY PREDICTED BY IDOCK:   -5.27 KCAL/MOL
REMARK 923 INTER-LIGAND FREE ENERGY PREDICTED BY IDOCK:   -4.73 KCAL/MOL
REMARK 924 INTRA-LIGAND FREE ENERGY PREDICTED BY IDOCK:   -0.54 KCAL/MOL
REMARK 927      BINDING AFFINITY PREDICTED BY RF-SCORE:    0.00 PKD
ROOT
HETATM    1  C   UNL     1     -10.101   9.539  65.971  1.00  0.00    -0.319 C  
HETATM    2  C   UNL     1     -10.341  10.640  67.003  1.00  0.00    -0.231 C  
HETATM    3  C   UNL     1     -10.793  11.928  66.323  1.00  0.00    -0.323 C  
ENDROOT
BRANCH   2   4
HETATM    4  N   UNL     1     -11.353  10.188  67.957  1.00  0.00    -0.572 NA 
HETATM    5  H   UNL     1     -12.336  10.240  67.688  1.00  0.00     0.000 HD 
BRANCH   4   6
HETATM    6  C   UNL     1     -11.030   9.691  69.218  1.00  0.00    -0.168 A  
HETATM    7  C   UNL     1     -10.034   8.741  69.440  1.00  0.00    -0.196 A  
HETATM    8  C   UNL     1      -9.858   8.142  70.692  1.00  0.00    -0.196 A  
HETATM    9  C   UNL     1     -10.682   8.471  71.770  1.00  0.00    -0.303 A  
HETATM   10  C   UNL     1     -11.839  10.032  70.313  1.00  0.00    -0.291 A  
HETATM   11  C   UNL     1     -11.660   9.445  71.578  1.00  0.00    -0.467 A  
BRANCH   9  12
HETATM   12  N   UNL     1     -10.517   7.741  72.961  1.00  0.00    -0.349 NA 
HETATM   13  H   UNL     1     -10.559   8.307  73.810  1.00  0.00     0.000 HD 
BRANCH  12  14
HETATM   14  C   UNL     1     -10.304   6.371  73.189  1.00  0.00    -0.226 A  
HETATM   15  C   UNL     1      -9.049   5.941  73.645  1.00  0.00    -0.127 A  
HETATM   16  C   UNL     1      -8.820   4.601  73.967  1.00  0.00    -0.107 A  
HETATM   17  C   UNL     1      -9.850   3.674  73.845  1.00  0.00    -0.154 A  
HETATM   18  C   UNL     1     -11.099   4.083  73.382  1.00  0.00    -0.341 A  
HETATM   19  C   UNL     1     -11.322   5.423  73.045  1.00  0.00    -0.355 A  
ENDBRANCH  12  14
ENDBRANCH   9  12
ENDBRANCH   4   6
ENDBRANCH   2   4
TORSDOF 4
ENDMDL
MODEL      112
REMARK 921   NORMALIZED FREE ENERGY PREDICTED BY IDOCK:   -3.77 KCAL/MOL
REMARK 922        TOTAL FREE ENERGY PREDICTED BY IDOCK:   -5.21 KCAL/MOL
REMARK 923 INTER-LIGAND FREE ENERGY PREDICTED BY IDOCK:   -4.69 KCAL/MOL
REMARK 924 INTRA-LIGAND FREE ENERGY PREDICTED BY IDOCK:   -0.51 KCAL/MOL
REMARK 927      BINDING AFFINITY PREDICTED BY RF-SCORE:    0.00 PKD
ROOT
HETATM    1  C   UNL     1     -10.827  15.728  67.536  1.00  0.00    -0.315 C  
HETATM    2  C   UNL     1      -9.337  15.824  67.212  1.00  0.00    -0.211 C  
HETATM    3  C   UNL     1      -8.533  16.150  68.466  1.00  0.00    -0.197 C  
ENDROOT
BRANCH   2   4
HETATM    4  N   UNL     1      -8.890  14.557  66.637  1.00  0.00    -0.412 NA 
HETATM    5  H   UNL     1      -8.085  14.561  66.010  1.00  0.00     0.000 HD 
BRANCH   4   6
HETATM    6  C   UNL     1      -9.518  13.343  66.909  1.00  0.00    -0.253 A  
HETATM    7  C   UNL     1      -9.329  12.625  68.089  1.00  0.00    -0.210 A  
HETATM    8  C   UNL     1      -9.841  11.333  68.251  1.00  0.00    -0.201 A  
HETATM    9  C   UNL     1     -10.559  10.709  67.229  1.00  0.00    -0.263 A  
HETATM   10  C   UNL     1     -10.261  12.717  65.895  1.00  0.00    -0.290 A  
HETATM   11  C   UNL     1     -10.790  11.424  66.055  1.00  0.00    -0.306 A  
BRANCH   9  12
HETATM   12  N   UNL     1     -10.938   9.369  67.425  1.00  0.00    -0.400 NA 
HETATM   13  H   UNL     1     -11.811   9.251  67.942  1.00  0.00     0.000 HD 
BRANCH  12  14
HETATM   14  C   UNL     1     -10.329   8.165  67.035  1.00  0.00    -0.333 A  
HETATM   15  C   UNL     1     -11.015   6.957  67.231  1.00  0.00    -0.406 A  
HETATM   16  C   UNL     1     -10.484   5.746  66.780  1.00  0.00    -0.350 A  
HETATM   17  C   UNL     1      -9.262   5.730  66.115  1.00  0.00    -0.169 A  
HETATM   18  C   UNL     1      -8.563   6.920  65.923  1.00  0.00    -0.152 A  
HETATM   19  C   UNL     1      -9.089   8.130  66.389  1.00  0.00    -0.226 A  
ENDBRANCH  12  14
ENDBRANCH   9  12
ENDBRANCH   4   6
ENDBRANCH   2   4
TORSDOF 4
ENDMDL
MODEL      113
REMARK 921   NORMALIZED FREE ENERGY PREDICTED BY IDOCK:   -3.77 KCAL/MOL
REMARK 922        TOTAL FREE ENERGY PREDICTED BY IDOCK:   -5.20 KCAL/MOL
REMARK 923 INTER-LIGAND FREE ENERGY PREDICTED BY IDOCK:   -4.76 KCAL/MOL
REMARK 924 INTRA-LIGAND FREE ENERGY PREDICTED BY IDOCK:   -0.44 KCAL/MOL
REMARK 927      BINDING AFFINITY PREDICTED BY RF-SCORE:    0.00 PKD
ROOT
HETATM    1  C   UNL     1     -11.337  15.259  71.354  1.00  0.00    -0.419 C  
HETATM    2  C   UNL     1     -11.864  14.794  69.998  1.00  0.00    -0.311 C  
HETATM    3  C   UNL     1     -11.808  15.928  68.980  1.00  0.00    -0.328 C  
ENDROOT
BRANCH   2   4
HETATM    4  N   UNL     1     -11.066  13.659  69.539  1.00  0.00    -0.436 NA 
HETATM    5  H   UNL     1     -10.599  13.076  70.235  1.00  0.00     0.000 HD 
BRANCH   4   6
HETATM    6  C   UNL     1     -10.915  13.339  68.191  1.00  0.00    -0.255 A  
HETATM    7  C   UNL     1     -11.763  12.471  67.505  1.00  0.00    -0.439 A  
HETATM    8  C   UNL     1     -11.478  12.044  66.203  1.00  0.00    -0.401 A  
HETATM    9  C   UNL     1     -10.324  12.469  65.542  1.00  0.00    -0.280 A  
HETATM   10  C   UNL     1      -9.769  13.780  67.510  1.00  0.00    -0.230 A  
HETATM   11  C   UNL     1      -9.483  13.367  66.197  1.00  0.00    -0.156 A  
BRANCH   9  12
HETATM   12  N   UNL     1     -10.050  11.905  64.283  1.00  0.00    -0.304 NA 
HETATM   13  H   UNL     1     -10.461  12.410  63.497  1.00  0.00     0.000 HD 
BRANCH  12  14
HETATM   14  C   UNL     1      -9.311  10.767  63.917  1.00  0.00    -0.253 A  
HETATM   15  C   UNL     1      -8.493  10.146  64.873  1.00  0.00    -0.178 A  
HETATM   16  C   UNL     1      -7.809   8.965  64.577  1.00  0.00    -0.126 A  
HETATM   17  C   UNL     1      -7.944   8.382  63.321  1.00  0.00    -0.161 A  
HETATM   18  C   UNL     1      -8.744   8.993  62.356  1.00  0.00    -0.210 A  
HETATM   19  C   UNL     1      -9.416  10.184  62.650  1.00  0.00    -0.277 A  
ENDBRANCH  12  14
ENDBRANCH   9  12
ENDBRANCH   4   6
ENDBRANCH   2   4
TORSDOF 4
ENDMDL
MODEL      114
REMARK 921   NORMALIZED FREE ENERGY PREDICTED BY IDOCK:   -3.75 KCAL/MOL
REMARK 922        TOTAL FREE ENERGY PREDICTED BY IDOCK:   -5.17 KCAL/MOL
REMARK 923 INTER-LIGAND FREE ENERGY PREDICTED BY IDOCK:   -4.60 KCAL/MOL
REMARK 924 INTRA-LIGAND FREE ENERGY PREDICTED BY IDOCK:   -0.58 KCAL/MOL
REMARK 927      BINDING AFFINITY PREDICTED BY RF-SCORE:    0.00 PKD
ROOT
HETATM    1  C   UNL     1     -11.055  14.918  66.450  1.00  0.00    -0.342 C  
HETATM    2  C   UNL     1     -11.054  14.530  67.929  1.00  0.00    -0.279 C  
HETATM    3  C   UNL     1     -11.404  15.731  68.801  1.00  0.00    -0.362 C  
ENDROOT
BRANCH   2   4
HETATM    4  N   UNL     1     -12.017  13.450  68.140  1.00  0.00    -0.348 NA 
HETATM    5  H   UNL     1     -12.966  13.565  67.781  1.00  0.00     0.000 HD 
BRANCH   4   6
HETATM    6  C   UNL     1     -11.693  12.273  68.810  1.00  0.00    -0.340 A  
HETATM    7  C   UNL     1     -10.933  11.249  68.246  1.00  0.00    -0.275 A  
HETATM    8  C   UNL     1     -10.775  10.015  68.886  1.00  0.00    -0.243 A  
HETATM    9  C   UNL     1     -11.382   9.759  70.118  1.00  0.00    -0.251 A  
HETATM   10  C   UNL     1     -12.280  12.015  70.059  1.00  0.00    -0.280 A  
HETATM   11  C   UNL     1     -12.115  10.783  70.716  1.00  0.00    -0.473 A  
BRANCH   9  12
HETATM   12  N   UNL     1     -11.272   8.458  70.639  1.00  0.00    -0.258 NA 
HETATM   13  H   UNL     1     -11.730   8.326  71.542  1.00  0.00     0.000 HD 
BRANCH  12  14
HETATM   14  C   UNL     1     -10.643   7.307  70.136  1.00  0.00    -0.232 A  
HETATM   15  C   UNL     1      -9.346   6.993  70.568  1.00  0.00    -0.159 A  
HETATM   16  C   UNL     1      -8.717   5.814  70.161  1.00  0.00    -0.140 A  
HETATM   17  C   UNL     1      -9.385   4.926  69.323  1.00  0.00    -0.185 A  
HETATM   18  C   UNL     1     -10.670   5.229  68.876  1.00  0.00    -0.028 A  
HETATM   19  C   UNL     1     -11.292   6.418  69.272  1.00  0.00    -0.405 A  
ENDBRANCH  12  14
ENDBRANCH   9  12
ENDBRANCH   4   6
ENDBRANCH   2   4
TORSDOF 4
ENDMDL
MODEL      115
REMARK 921   NORMALIZED FREE ENERGY PREDICTED BY IDOCK:   -3.74 KCAL/MOL
REMARK 922        TOTAL FREE ENERGY PREDICTED BY IDOCK:   -5.16 KCAL/MOL
REMARK 923 INTER-LIGAND FREE ENERGY PREDICTED BY IDOCK:   -4.68 KCAL/MOL
REMARK 924 INTRA-LIGAND FREE ENERGY PREDICTED BY IDOCK:   -0.48 KCAL/MOL
REMARK 927      BINDING AFFINITY PREDICTED BY RF-SCORE:    0.00 PKD
ROOT
HETATM    1  C   UNL     1     -10.346  12.171  63.490  1.00  0.00    -0.473 C  
HETATM    2  C   UNL     1      -9.448  10.935  63.521  1.00  0.00    -0.294 C  
HETATM    3  C   UNL     1      -8.470  10.949  62.351  1.00  0.00    -0.323 C  
ENDROOT
BRANCH   2   4
HETATM    4  N   UNL     1      -8.721  10.905  64.790  1.00  0.00    -0.341 NA 
HETATM    5  H   UNL     1      -7.710  11.042  64.777  1.00  0.00     0.000 HD 
BRANCH   4   6
HETATM    6  C   UNL     1      -9.352  10.698  66.014  1.00  0.00    -0.186 A  
HETATM    7  C   UNL     1      -9.150  11.506  67.132  1.00  0.00    -0.167 A  
HETATM    8  C   UNL     1      -9.667  11.165  68.387  1.00  0.00    -0.191 A  
HETATM    9  C   UNL     1     -10.403   9.991  68.568  1.00  0.00    -0.193 A  
HETATM   10  C   UNL     1     -10.113   9.532  66.201  1.00  0.00    -0.326 A  
HETATM   11  C   UNL     1     -10.647   9.189  67.455  1.00  0.00    -0.315 A  
BRANCH   9  12
HETATM   12  N   UNL     1     -10.788   9.661  69.880  1.00  0.00    -0.243 NA 
HETATM   13  H   UNL     1     -10.923  10.466  70.493  1.00  0.00     0.000 HD 
BRANCH  12  14
HETATM   14  C   UNL     1     -11.019   8.419  70.495  1.00  0.00    -0.242 A  
HETATM   15  C   UNL     1     -10.132   7.360  70.250  1.00  0.00    -0.197 A  
HETATM   16  C   UNL     1     -10.274   6.135  70.907  1.00  0.00    -0.250 A  
HETATM   17  C   UNL     1     -11.302   5.958  71.828  1.00  0.00    -0.289 A  
HETATM   18  C   UNL     1     -12.198   6.997  72.074  1.00  0.00    -0.317 A  
HETATM   19  C   UNL     1     -12.063   8.218  71.403  1.00  0.00    -0.331 A  
ENDBRANCH  12  14
ENDBRANCH   9  12
ENDBRANCH   4   6
ENDBRANCH   2   4
TORSDOF 4
ENDMDL
MODEL      116
REMARK 921   NORMALIZED FREE ENERGY PREDICTED BY IDOCK:   -3.73 KCAL/MOL
REMARK 922        TOTAL FREE ENERGY PREDICTED BY IDOCK:   -5.15 KCAL/MOL
REMARK 923 INTER-LIGAND FREE ENERGY PREDICTED BY IDOCK:   -5.52 KCAL/MOL
REMARK 924 INTRA-LIGAND FREE ENERGY PREDICTED BY IDOCK:    0.36 KCAL/MOL
REMARK 927      BINDING AFFINITY PREDICTED BY RF-SCORE:    0.00 PKD
ROOT
HETATM    1  C   UNL     1      -9.922   7.860  72.889  1.00  0.00    -0.360 C  
HETATM    2  C   UNL     1     -11.033   7.813  71.841  1.00  0.00    -0.249 C  
HETATM    3  C   UNL     1     -12.222   8.662  72.277  1.00  0.00    -0.447 C  
ENDROOT
BRANCH   2   4
HETATM    4  N   UNL     1     -10.506   8.293  70.564  1.00  0.00    -0.207 NA 
HETATM    5  H   UNL     1      -9.951   7.655  69.994  1.00  0.00     0.000 HD 
BRANCH   4   6
HETATM    6  C   UNL     1     -10.730   9.585  70.096  1.00  0.00    -0.257 A  
HETATM    7  C   UNL     1     -11.978  10.207  70.115  1.00  0.00    -0.262 A  
HETATM    8  C   UNL     1     -12.195  11.435  69.480  1.00  0.00    -0.303 A  
HETATM    9  C   UNL     1     -11.166  12.084  68.794  1.00  0.00    -0.263 A  
HETATM   10  C   UNL     1      -9.695  10.256  69.424  1.00  0.00    -0.242 A  
HETATM   11  C   UNL     1      -9.902  11.497  68.796  1.00  0.00    -0.153 A  
BRANCH   9  12
HETATM   12  N   UNL     1     -11.493  13.254  68.086  1.00  0.00    -0.291 NA 
HETATM   13  H   UNL     1     -11.654  14.071  68.675  1.00  0.00     0.000 HD 
BRANCH  12  14
HETATM   14  C   UNL     1     -11.637  13.495  66.709  1.00  0.00    -0.363 A  
HETATM   15  C   UNL     1     -12.136  12.476  65.885  1.00  0.00    -0.420 A  
HETATM   16  C   UNL     1     -12.377  12.701  64.527  1.00  0.00    -0.537 A  
HETATM   17  C   UNL     1     -12.132  13.955  63.978  1.00  0.00    -0.437 A  
HETATM   18  C   UNL     1     -11.625  14.976  64.782  1.00  0.00    -0.395 A  
HETATM   19  C   UNL     1     -11.369  14.744  66.138  1.00  0.00    -0.330 A  
ENDBRANCH  12  14
ENDBRANCH   9  12
ENDBRANCH   4   6
ENDBRANCH   2   4
TORSDOF 4
ENDMDL
MODEL      117
REMARK 921   NORMALIZED FREE ENERGY PREDICTED BY IDOCK:   -3.73 KCAL/MOL
REMARK 922        TOTAL FREE ENERGY PREDICTED BY IDOCK:   -5.15 KCAL/MOL
REMARK 923 INTER-LIGAND FREE ENERGY PREDICTED BY IDOCK:   -4.71 KCAL/MOL
REMARK 924 INTRA-LIGAND FREE ENERGY PREDICTED BY IDOCK:   -0.44 KCAL/MOL
REMARK 927      BINDING AFFINITY PREDICTED BY RF-SCORE:    0.00 PKD
ROOT
HETATM    1  C   UNL     1      -9.934  18.633  67.999  1.00  0.00    -0.389 C  
HETATM    2  C   UNL     1     -10.332  18.504  66.529  1.00  0.00    -0.414 C  
HETATM    3  C   UNL     1     -10.406  19.877  65.869  1.00  0.00    -0.567 C  
ENDROOT
BRANCH   2   4
HETATM    4  N   UNL     1      -9.356  17.661  65.842  1.00  0.00    -0.524 NA 
HETATM    5  H   UNL     1      -8.853  18.048  65.043  1.00  0.00     0.000 HD 
BRANCH   4   6
HETATM    6  C   UNL     1      -9.084  16.352  66.232  1.00  0.00    -0.327 A  
HETATM    7  C   UNL     1     -10.026  15.324  66.193  1.00  0.00    -0.325 A  
HETATM    8  C   UNL     1      -9.765  14.068  66.752  1.00  0.00    -0.283 A  
HETATM    9  C   UNL     1      -8.547  13.798  67.380  1.00  0.00    -0.203 A  
HETATM   10  C   UNL     1      -7.854  16.064  66.845  1.00  0.00    -0.284 A  
HETATM   11  C   UNL     1      -7.579  14.800  67.397  1.00  0.00    -0.228 A  
BRANCH   9  12
HETATM   12  N   UNL     1      -8.407  12.553  68.019  1.00  0.00    -0.162 NA 
HETATM   13  H   UNL     1      -7.504  12.413  68.474  1.00  0.00     0.000 HD 
BRANCH  12  14
HETATM   14  C   UNL     1      -9.291  11.468  68.141  1.00  0.00    -0.185 A  
HETATM   15  C   UNL     1      -8.953  10.241  67.549  1.00  0.00    -0.138 A  
HETATM   16  C   UNL     1      -9.760   9.114  67.718  1.00  0.00    -0.188 A  
HETATM   17  C   UNL     1     -10.913   9.196  68.493  1.00  0.00     0.003 A  
HETATM   18  C   UNL     1     -11.269  10.411  69.078  1.00  0.00    -0.289 A  
HETATM   19  C   UNL     1     -10.467  11.543  68.894  1.00  0.00    -0.212 A  
ENDBRANCH  12  14
ENDBRANCH   9  12
ENDBRANCH   4   6
ENDBRANCH   2   4
TORSDOF 4
ENDMDL
MODEL      118
REMARK 921   NORMALIZED FREE ENERGY PREDICTED BY IDOCK:   -3.73 KCAL/MOL
REMARK 922        TOTAL FREE ENERGY PREDICTED BY IDOCK:   -5.15 KCAL/MOL
REMARK 923 INTER-LIGAND FREE ENERGY PREDICTED BY IDOCK:   -4.55 KCAL/MOL
REMARK 924 INTRA-LIGAND FREE ENERGY PREDICTED BY IDOCK:   -0.60 KCAL/MOL
REMARK 927      BINDING AFFINITY PREDICTED BY RF-SCORE:    0.00 PKD
ROOT
HETATM    1  C   UNL     1      -8.687   8.684  71.386  1.00  0.00    -0.262 C  
HETATM    2  C   UNL     1      -9.083   8.487  69.923  1.00  0.00    -0.150 C  
HETATM    3  C   UNL     1      -8.737   7.077  69.457  1.00  0.00    -0.134 C  
ENDROOT
BRANCH   2   4
HETATM    4  N   UNL     1     -10.517   8.733  69.778  1.00  0.00    -0.216 NA 
HETATM    5  H   UNL     1     -11.166   7.972  69.980  1.00  0.00     0.000 HD 
BRANCH   4   6
HETATM    6  C   UNL     1     -11.033   9.962  69.376  1.00  0.00    -0.230 A  
HETATM    7  C   UNL     1     -10.999  10.420  68.059  1.00  0.00    -0.347 A  
HETATM    8  C   UNL     1     -11.371  11.726  67.727  1.00  0.00    -0.358 A  
HETATM    9  C   UNL     1     -11.787  12.629  68.708  1.00  0.00    -0.300 A  
HETATM   10  C   UNL     1     -11.475  10.869  70.353  1.00  0.00    -0.367 A  
HETATM   11  C   UNL     1     -11.864  12.180  70.025  1.00  0.00    -0.383 A  
BRANCH   9  12
HETATM   12  N   UNL     1     -12.032  13.955  68.310  1.00  0.00    -0.411 NA 
HETATM   13  H   UNL     1     -12.972  14.119  67.947  1.00  0.00     0.000 HD 
BRANCH  12  14
HETATM   14  C   UNL     1     -11.211  15.095  68.324  1.00  0.00    -0.308 A  
HETATM   15  C   UNL     1     -11.534  16.160  69.178  1.00  0.00    -0.311 A  
HETATM   16  C   UNL     1     -10.698  17.274  69.288  1.00  0.00    -0.051 A  
HETATM   17  C   UNL     1      -9.521  17.333  68.549  1.00  0.00    -0.285 A  
HETATM   18  C   UNL     1      -9.192  16.289  67.687  1.00  0.00    -0.206 A  
HETATM   19  C   UNL     1     -10.037  15.180  67.567  1.00  0.00    -0.232 A  
ENDBRANCH  12  14
ENDBRANCH   9  12
ENDBRANCH   4   6
ENDBRANCH   2   4
TORSDOF 4
ENDMDL
MODEL      119
REMARK 921   NORMALIZED FREE ENERGY PREDICTED BY IDOCK:   -3.72 KCAL/MOL
REMARK 922        TOTAL FREE ENERGY PREDICTED BY IDOCK:   -5.14 KCAL/MOL
REMARK 923 INTER-LIGAND FREE ENERGY PREDICTED BY IDOCK:   -4.50 KCAL/MOL
REMARK 924 INTRA-LIGAND FREE ENERGY PREDICTED BY IDOCK:   -0.63 KCAL/MOL
REMARK 927      BINDING AFFINITY PREDICTED BY RF-SCORE:    0.00 PKD
ROOT
HETATM    1  C   UNL     1     -10.256   5.268  69.477  1.00  0.00    -0.338 C  
HETATM    2  C   UNL     1     -10.042   6.541  68.659  1.00  0.00    -0.161 C  
HETATM    3  C   UNL     1     -11.022   6.603  67.492  1.00  0.00    -0.416 C  
ENDROOT
BRANCH   2   4
HETATM    4  N   UNL     1     -10.213   7.703  69.529  1.00  0.00    -0.203 NA 
HETATM    5  H   UNL     1     -10.421   7.548  70.516  1.00  0.00     0.000 HD 
BRANCH   4   6
HETATM    6  C   UNL     1     -10.104   9.012  69.067  1.00  0.00    -0.195 A  
HETATM    7  C   UNL     1      -8.941   9.539  68.508  1.00  0.00    -0.128 A  
HETATM    8  C   UNL     1      -8.819  10.902  68.216  1.00  0.00    -0.140 A  
HETATM    9  C   UNL     1      -9.862  11.792  68.481  1.00  0.00    -0.189 A  
HETATM   10  C   UNL     1     -11.157   9.910  69.308  1.00  0.00    -0.220 A  
HETATM   11  C   UNL     1     -11.048  11.279  69.004  1.00  0.00    -0.301 A  
BRANCH   9  12
HETATM   12  N   UNL     1      -9.620  13.160  68.267  1.00  0.00    -0.225 NA 
HETATM   13  H   UNL     1      -9.103  13.618  69.019  1.00  0.00     0.000 HD 
BRANCH  12  14
HETATM   14  C   UNL     1      -9.964  14.008  67.201  1.00  0.00    -0.252 A  
HETATM   15  C   UNL     1     -10.413  13.446  65.997  1.00  0.00    -0.294 A  
HETATM   16  C   UNL     1     -10.847  14.253  64.943  1.00  0.00    -0.429 A  
HETATM   17  C   UNL     1     -10.848  15.637  65.084  1.00  0.00    -0.448 A  
HETATM   18  C   UNL     1     -10.394  16.212  66.270  1.00  0.00    -0.337 A  
HETATM   19  C   UNL     1      -9.945  15.402  67.319  1.00  0.00    -0.226 A  
ENDBRANCH  12  14
ENDBRANCH   9  12
ENDBRANCH   4   6
ENDBRANCH   2   4
TORSDOF 4
ENDMDL
MODEL      120
REMARK 921   NORMALIZED FREE ENERGY PREDICTED BY IDOCK:   -3.71 KCAL/MOL
REMARK 922        TOTAL FREE ENERGY PREDICTED BY IDOCK:   -5.12 KCAL/MOL
REMARK 923 INTER-LIGAND FREE ENERGY PREDICTED BY IDOCK:   -4.51 KCAL/MOL
REMARK 924 INTRA-LIGAND FREE ENERGY PREDICTED BY IDOCK:   -0.61 KCAL/MOL
REMARK 927      BINDING AFFINITY PREDICTED BY RF-SCORE:    0.00 PKD
ROOT
HETATM    1  C   UNL     1      -8.340  10.873  62.579  1.00  0.00    -0.250 C  
HETATM    2  C   UNL     1      -7.465  10.054  63.527  1.00  0.00    -0.140 C  
HETATM    3  C   UNL     1      -6.010  10.075  63.071  1.00  0.00    -0.127 C  
ENDROOT
BRANCH   2   4
HETATM    4  N   UNL     1      -7.581  10.602  64.878  1.00  0.00    -0.351 NA 
HETATM    5  H   UNL     1      -7.097  11.473  65.095  1.00  0.00     0.000 HD 
BRANCH   4   6
HETATM    6  C   UNL     1      -8.326   9.984  65.879  1.00  0.00    -0.127 A  
HETATM    7  C   UNL     1      -7.912   8.834  66.550  1.00  0.00    -0.103 A  
HETATM    8  C   UNL     1      -8.762   8.149  67.425  1.00  0.00    -0.124 A  
HETATM    9  C   UNL     1     -10.067   8.590  67.656  1.00  0.00    -0.213 A  
HETATM   10  C   UNL     1      -9.631  10.434  66.136  1.00  0.00    -0.245 A  
HETATM   11  C   UNL     1     -10.487   9.760  67.024  1.00  0.00    -0.295 A  
BRANCH   9  12
HETATM   12  N   UNL     1     -10.894   7.783  68.456  1.00  0.00    -0.417 NA 
HETATM   13  H   UNL     1     -11.542   7.195  67.932  1.00  0.00     0.000 HD 
BRANCH  12  14
HETATM   14  C   UNL     1     -10.986   7.645  69.852  1.00  0.00    -0.200 A  
HETATM   15  C   UNL     1     -10.574   8.705  70.673  1.00  0.00    -0.249 A  
HETATM   16  C   UNL     1     -10.728   8.644  72.060  1.00  0.00    -0.427 A  
HETATM   17  C   UNL     1     -11.308   7.522  72.644  1.00  0.00    -0.395 A  
HETATM   18  C   UNL     1     -11.712   6.455  71.843  1.00  0.00    -0.378 A  
HETATM   19  C   UNL     1     -11.543   6.512  70.455  1.00  0.00    -0.470 A  
ENDBRANCH  12  14
ENDBRANCH   9  12
ENDBRANCH   4   6
ENDBRANCH   2   4
TORSDOF 4
ENDMDL
MODEL      121
REMARK 921   NORMALIZED FREE ENERGY PREDICTED BY IDOCK:   -3.67 KCAL/MOL
REMARK 922        TOTAL FREE ENERGY PREDICTED BY IDOCK:   -5.08 KCAL/MOL
REMARK 923 INTER-LIGAND FREE ENERGY PREDICTED BY IDOCK:   -4.43 KCAL/MOL
REMARK 924 INTRA-LIGAND FREE ENERGY PREDICTED BY IDOCK:   -0.65 KCAL/MOL
REMARK 927      BINDING AFFINITY PREDICTED BY RF-SCORE:    0.00 PKD
ROOT
HETATM    1  C   UNL     1     -10.802  17.623  68.114  1.00  0.00    -0.223 C  
HETATM    2  C   UNL     1     -10.793  16.200  68.672  1.00  0.00    -0.311 C  
HETATM    3  C   UNL     1     -11.008  16.212  70.182  1.00  0.00    -0.359 C  
ENDROOT
BRANCH   2   4
HETATM    4  N   UNL     1     -11.842  15.422  68.015  1.00  0.00    -0.413 NA 
HETATM    5  H   UNL     1     -12.797  15.784  68.025  1.00  0.00     0.000 HD 
BRANCH   4   6
HETATM    6  C   UNL     1     -11.594  14.209  67.378  1.00  0.00    -0.372 A  
HETATM    7  C   UNL     1     -12.002  12.975  67.884  1.00  0.00    -0.338 A  
HETATM    8  C   UNL     1     -11.586  11.772  67.304  1.00  0.00    -0.344 A  
HETATM    9  C   UNL     1     -10.736  11.761  66.196  1.00  0.00    -0.277 A  
HETATM   10  C   UNL     1     -10.759  14.189  66.250  1.00  0.00    -0.293 A  
HETATM   11  C   UNL     1     -10.348  12.984  65.653  1.00  0.00    -0.294 A  
BRANCH   9  12
HETATM   12  N   UNL     1     -10.271  10.513  65.745  1.00  0.00    -0.257 NA 
HETATM   13  H   UNL     1     -10.491  10.309  64.770  1.00  0.00     0.000 HD 
BRANCH  12  14
HETATM   14  C   UNL     1      -9.556   9.497  66.402  1.00  0.00    -0.213 A  
HETATM   15  C   UNL     1      -8.443   9.839  67.184  1.00  0.00    -0.125 A  
HETATM   16  C   UNL     1      -7.757   8.872  67.922  1.00  0.00    -0.101 A  
HETATM   17  C   UNL     1      -8.183   7.548  67.896  1.00  0.00    -0.123 A  
HETATM   18  C   UNL     1      -9.280   7.190  67.114  1.00  0.00    -0.153 A  
HETATM   19  C   UNL     1      -9.957   8.157  66.363  1.00  0.00    -0.238 A  
ENDBRANCH  12  14
ENDBRANCH   9  12
ENDBRANCH   4   6
ENDBRANCH   2   4
TORSDOF 4
ENDMDL
MODEL      122
REMARK 921   NORMALIZED FREE ENERGY PREDICTED BY IDOCK:   -3.66 KCAL/MOL
REMARK 922        TOTAL FREE ENERGY PREDICTED BY IDOCK:   -5.07 KCAL/MOL
REMARK 923 INTER-LIGAND FREE ENERGY PREDICTED BY IDOCK:   -5.01 KCAL/MOL
REMARK 924 INTRA-LIGAND FREE ENERGY PREDICTED BY IDOCK:   -0.06 KCAL/MOL
REMARK 927      BINDING AFFINITY PREDICTED BY RF-SCORE:    0.00 PKD
ROOT
HETATM    1  C   UNL     1     -10.530   4.979  72.104  1.00  0.00    -0.274 C  
HETATM    2  C   UNL     1     -10.517   6.504  72.010  1.00  0.00    -0.202 C  
HETATM    3  C   UNL     1      -9.088   7.035  72.052  1.00  0.00    -0.140 C  
ENDROOT
BRANCH   2   4
HETATM    4  N   UNL     1     -11.174   6.912  70.769  1.00  0.00    -0.277 NA 
HETATM    5  H   UNL     1     -11.573   6.190  70.167  1.00  0.00     0.000 HD 
BRANCH   4   6
HETATM    6  C   UNL     1     -11.277   8.243  70.373  1.00  0.00    -0.219 A  
HETATM    7  C   UNL     1     -10.669   8.757  69.228  1.00  0.00    -0.166 A  
HETATM    8  C   UNL     1     -10.655  10.130  68.959  1.00  0.00    -0.245 A  
HETATM    9  C   UNL     1     -11.245  11.043  69.836  1.00  0.00    -0.252 A  
HETATM   10  C   UNL     1     -11.889   9.166  71.237  1.00  0.00    -0.396 A  
HETATM   11  C   UNL     1     -11.891  10.546  70.967  1.00  0.00    -0.438 A  
BRANCH   9  12
HETATM   12  N   UNL     1     -11.086  12.411  69.554  1.00  0.00    -0.466 NA 
HETATM   13  H   UNL     1     -10.304  12.625  68.934  1.00  0.00     0.000 HD 
BRANCH  12  14
HETATM   14  C   UNL     1     -11.815  13.536  69.975  1.00  0.00    -0.301 A  
HETATM   15  C   UNL     1     -12.633  13.435  71.110  1.00  0.00    -0.430 A  
HETATM   16  C   UNL     1     -13.306  14.551  71.614  1.00  0.00    -0.441 A  
HETATM   17  C   UNL     1     -13.161  15.787  70.993  1.00  0.00    -0.308 A  
HETATM   18  C   UNL     1     -12.361  15.901  69.857  1.00  0.00    -0.098 A  
HETATM   19  C   UNL     1     -11.699  14.780  69.345  1.00  0.00    -0.358 A  
ENDBRANCH  12  14
ENDBRANCH   9  12
ENDBRANCH   4   6
ENDBRANCH   2   4
TORSDOF 4
ENDMDL
MODEL      123
REMARK 921   NORMALIZED FREE ENERGY PREDICTED BY IDOCK:   -3.66 KCAL/MOL
REMARK 922        TOTAL FREE ENERGY PREDICTED BY IDOCK:   -5.07 KCAL/MOL
REMARK 923 INTER-LIGAND FREE ENERGY PREDICTED BY IDOCK:   -4.48 KCAL/MOL
REMARK 924 INTRA-LIGAND FREE ENERGY PREDICTED BY IDOCK:   -0.59 KCAL/MOL
REMARK 927      BINDING AFFINITY PREDICTED BY RF-SCORE:    0.00 PKD
ROOT
HETATM    1  C   UNL     1      -6.739   6.474  63.684  1.00  0.00    -0.048 C  
HETATM    2  C   UNL     1      -7.954   6.855  64.529  1.00  0.00    -0.106 C  
HETATM    3  C   UNL     1      -8.172   5.842  65.648  1.00  0.00    -0.128 C  
ENDROOT
BRANCH   2   4
HETATM    4  N   UNL     1      -7.748   8.191  65.087  1.00  0.00    -0.100 NA 
HETATM    5  H   UNL     1      -6.812   8.451  65.400  1.00  0.00     0.000 HD 
BRANCH   4   6
HETATM    6  C   UNL     1      -8.776   9.123  65.209  1.00  0.00    -0.188 A  
HETATM    7  C   UNL     1      -9.198   9.947  64.166  1.00  0.00    -0.312 A  
HETATM    8  C   UNL     1     -10.113  10.984  64.375  1.00  0.00    -0.393 A  
HETATM    9  C   UNL     1     -10.635  11.239  65.645  1.00  0.00    -0.244 A  
HETATM   10  C   UNL     1      -9.325   9.371  66.477  1.00  0.00    -0.222 A  
HETATM   11  C   UNL     1     -10.255  10.403  66.693  1.00  0.00    -0.292 A  
BRANCH   9  12
HETATM   12  N   UNL     1     -11.457  12.370  65.795  1.00  0.00    -0.352 NA 
HETATM   13  H   UNL     1     -12.430  12.222  65.525  1.00  0.00     0.000 HD 
BRANCH  12  14
HETATM   14  C   UNL     1     -11.174  13.669  66.251  1.00  0.00    -0.305 A  
HETATM   15  C   UNL     1     -11.620  14.059  67.523  1.00  0.00    -0.397 A  
HETATM   16  C   UNL     1     -11.287  15.309  68.051  1.00  0.00    -0.345 A  
HETATM   17  C   UNL     1     -10.494  16.183  67.314  1.00  0.00    -0.309 A  
HETATM   18  C   UNL     1     -10.053  15.815  66.044  1.00  0.00    -0.359 A  
HETATM   19  C   UNL     1     -10.400  14.569  65.511  1.00  0.00    -0.379 A  
ENDBRANCH  12  14
ENDBRANCH   9  12
ENDBRANCH   4   6
ENDBRANCH   2   4
TORSDOF 4
ENDMDL
MODEL      124
REMARK 921   NORMALIZED FREE ENERGY PREDICTED BY IDOCK:   -3.66 KCAL/MOL
REMARK 922        TOTAL FREE ENERGY PREDICTED BY IDOCK:   -5.06 KCAL/MOL
REMARK 923 INTER-LIGAND FREE ENERGY PREDICTED BY IDOCK:   -4.91 KCAL/MOL
REMARK 924 INTRA-LIGAND FREE ENERGY PREDICTED BY IDOCK:   -0.15 KCAL/MOL
REMARK 927      BINDING AFFINITY PREDICTED BY RF-SCORE:    0.00 PKD
ROOT
HETATM    1  C   UNL     1     -10.884  18.115  67.242  1.00  0.00    -0.241 C  
HETATM    2  C   UNL     1      -9.574  18.438  67.960  1.00  0.00    -0.298 C  
HETATM    3  C   UNL     1      -9.629  19.830  68.581  1.00  0.00    -0.410 C  
ENDROOT
BRANCH   2   4
HETATM    4  N   UNL     1      -9.334  17.430  68.992  1.00  0.00    -0.166 NA 
HETATM    5  H   UNL     1      -8.602  17.602  69.682  1.00  0.00     0.000 HD 
BRANCH   4   6
HETATM    6  C   UNL     1     -10.063  16.246  69.072  1.00  0.00    -0.259 A  
HETATM    7  C   UNL     1     -10.997  15.982  70.072  1.00  0.00    -0.365 A  
HETATM    8  C   UNL     1     -11.580  14.718  70.216  1.00  0.00    -0.333 A  
HETATM    9  C   UNL     1     -11.240  13.666  69.362  1.00  0.00    -0.196 A  
HETATM   10  C   UNL     1      -9.745  15.189  68.203  1.00  0.00    -0.217 A  
HETATM   11  C   UNL     1     -10.336  13.920  68.332  1.00  0.00    -0.249 A  
BRANCH   9  12
HETATM   12  N   UNL     1     -11.781  12.399  69.644  1.00  0.00    -0.369 NA 
HETATM   13  H   UNL     1     -12.642  12.421  70.192  1.00  0.00     0.000 HD 
BRANCH  12  14
HETATM   14  C   UNL     1     -11.344  11.107  69.305  1.00  0.00    -0.281 A  
HETATM   15  C   UNL     1     -11.189  10.772  67.952  1.00  0.00    -0.386 A  
HETATM   16  C   UNL     1     -10.675   9.530  67.572  1.00  0.00    -0.311 A  
HETATM   17  C   UNL     1     -10.300   8.608  68.545  1.00  0.00    -0.228 A  
HETATM   18  C   UNL     1     -10.460   8.922  69.894  1.00  0.00    -0.223 A  
HETATM   19  C   UNL     1     -10.989  10.161  70.272  1.00  0.00    -0.380 A  
ENDBRANCH  12  14
ENDBRANCH   9  12
ENDBRANCH   4   6
ENDBRANCH   2   4
TORSDOF 4
ENDMDL
MODEL      125
REMARK 921   NORMALIZED FREE ENERGY PREDICTED BY IDOCK:   -3.62 KCAL/MOL
REMARK 922        TOTAL FREE ENERGY PREDICTED BY IDOCK:   -5.02 KCAL/MOL
REMARK 923 INTER-LIGAND FREE ENERGY PREDICTED BY IDOCK:   -4.50 KCAL/MOL
REMARK 924 INTRA-LIGAND FREE ENERGY PREDICTED BY IDOCK:   -0.52 KCAL/MOL
REMARK 927      BINDING AFFINITY PREDICTED BY RF-SCORE:    0.00 PKD
ROOT
HETATM    1  C   UNL     1      -9.034  14.862  68.257  1.00  0.00    -0.177 C  
HETATM    2  C   UNL     1      -9.737  14.916  66.901  1.00  0.00    -0.240 C  
HETATM    3  C   UNL     1      -9.345  16.178  66.141  1.00  0.00    -0.372 C  
ENDROOT
BRANCH   2   4
HETATM    4  N   UNL     1      -9.379  13.726  66.131  1.00  0.00    -0.487 NA 
HETATM    5  H   UNL     1      -8.764  13.834  65.324  1.00  0.00     0.000 HD 
BRANCH   4   6
HETATM    6  C   UNL     1      -9.844  12.453  66.451  1.00  0.00    -0.240 A  
HETATM    7  C   UNL     1     -11.054  12.215  67.101  1.00  0.00    -0.345 A  
HETATM    8  C   UNL     1     -11.403  10.939  67.557  1.00  0.00    -0.309 A  
HETATM    9  C   UNL     1     -10.544   9.851  67.383  1.00  0.00    -0.277 A  
HETATM   10  C   UNL     1      -8.997  11.349  66.260  1.00  0.00    -0.205 A  
HETATM   11  C   UNL     1      -9.346  10.061  66.702  1.00  0.00    -0.202 A  
BRANCH   9  12
HETATM   12  N   UNL     1     -10.915   8.629  67.971  1.00  0.00    -0.474 NA 
HETATM   13  H   UNL     1     -11.836   8.637  68.411  1.00  0.00     0.000 HD 
BRANCH  12  14
HETATM   14  C   UNL     1     -10.241   7.399  68.060  1.00  0.00    -0.191 A  
HETATM   15  C   UNL     1      -9.136   7.286  68.916  1.00  0.00    -0.132 A  
HETATM   16  C   UNL     1      -8.491   6.061  69.101  1.00  0.00    -0.114 A  
HETATM   17  C   UNL     1      -8.951   4.928  68.437  1.00  0.00    -0.129 A  
HETATM   18  C   UNL     1     -10.041   5.027  67.573  1.00  0.00    -0.201 A  
HETATM   19  C   UNL     1     -10.676   6.258  67.378  1.00  0.00    -0.409 A  
ENDBRANCH  12  14
ENDBRANCH   9  12
ENDBRANCH   4   6
ENDBRANCH   2   4
TORSDOF 4
ENDMDL
MODEL      126
REMARK 921   NORMALIZED FREE ENERGY PREDICTED BY IDOCK:   -3.60 KCAL/MOL
REMARK 922        TOTAL FREE ENERGY PREDICTED BY IDOCK:   -4.99 KCAL/MOL
REMARK 923 INTER-LIGAND FREE ENERGY PREDICTED BY IDOCK:   -4.65 KCAL/MOL
REMARK 924 INTRA-LIGAND FREE ENERGY PREDICTED BY IDOCK:   -0.34 KCAL/MOL
REMARK 927      BINDING AFFINITY PREDICTED BY RF-SCORE:    0.00 PKD
ROOT
HETATM    1  C   UNL     1     -10.622  12.402  63.605  1.00  0.00    -0.481 C  
HETATM    2  C   UNL     1     -11.042  11.673  64.881  1.00  0.00    -0.253 C  
HETATM    3  C   UNL     1     -10.138  10.472  65.139  1.00  0.00    -0.383 C  
ENDROOT
BRANCH   2   4
HETATM    4  N   UNL     1     -10.982  12.605  66.005  1.00  0.00    -0.275 NA 
HETATM    5  H   UNL     1     -11.769  12.639  66.655  1.00  0.00     0.000 HD 
BRANCH   4   6
HETATM    6  C   UNL     1      -9.897  13.449  66.227  1.00  0.00    -0.290 A  
HETATM    7  C   UNL     1      -8.793  13.098  67.004  1.00  0.00    -0.212 A  
HETATM    8  C   UNL     1      -7.808  14.032  67.342  1.00  0.00    -0.188 A  
HETATM    9  C   UNL     1      -7.896  15.360  66.917  1.00  0.00    -0.161 A  
HETATM   10  C   UNL     1      -9.965  14.780  65.784  1.00  0.00    -0.375 A  
HETATM   11  C   UNL     1      -8.972  15.721  66.108  1.00  0.00    -0.372 A  
BRANCH   9  12
HETATM   12  N   UNL     1      -6.929  16.261  67.395  1.00  0.00    -0.156 NA 
HETATM   13  H   UNL     1      -6.051  15.825  67.680  1.00  0.00     0.000 HD 
BRANCH  12  14
HETATM   14  C   UNL     1      -6.958  17.658  67.549  1.00  0.00    -0.168 A  
HETATM   15  C   UNL     1      -7.917  18.232  68.397  1.00  0.00    -0.320 A  
HETATM   16  C   UNL     1      -7.926  19.606  68.647  1.00  0.00    -0.335 A  
HETATM   17  C   UNL     1      -6.967  20.424  68.059  1.00  0.00    -0.317 A  
HETATM   18  C   UNL     1      -6.014  19.871  67.205  1.00  0.00    -0.191 A  
HETATM   19  C   UNL     1      -6.016  18.496  66.943  1.00  0.00    -0.171 A  
ENDBRANCH  12  14
ENDBRANCH   9  12
ENDBRANCH   4   6
ENDBRANCH   2   4
TORSDOF 4
ENDMDL
MODEL      127
REMARK 921   NORMALIZED FREE ENERGY PREDICTED BY IDOCK:   -3.59 KCAL/MOL
REMARK 922        TOTAL FREE ENERGY PREDICTED BY IDOCK:   -4.98 KCAL/MOL
REMARK 923 INTER-LIGAND FREE ENERGY PREDICTED BY IDOCK:   -4.43 KCAL/MOL
REMARK 924 INTRA-LIGAND FREE ENERGY PREDICTED BY IDOCK:   -0.55 KCAL/MOL
REMARK 927      BINDING AFFINITY PREDICTED BY RF-SCORE:    0.00 PKD
ROOT
HETATM    1  C   UNL     1     -10.259   8.629  66.839  1.00  0.00    -0.367 C  
HETATM    2  C   UNL     1      -9.540   9.934  66.497  1.00  0.00    -0.190 C  
HETATM    3  C   UNL     1      -9.199   9.988  65.012  1.00  0.00    -0.277 C  
ENDROOT
BRANCH   2   4
HETATM    4  N   UNL     1     -10.396  11.061  66.863  1.00  0.00    -0.225 NA 
HETATM    5  H   UNL     1     -11.310  10.868  67.273  1.00  0.00     0.000 HD 
BRANCH   4   6
HETATM    6  C   UNL     1     -10.016  12.388  66.675  1.00  0.00    -0.225 A  
HETATM    7  C   UNL     1      -9.125  13.061  67.511  1.00  0.00    -0.191 A  
HETATM    8  C   UNL     1      -8.902  14.437  67.389  1.00  0.00    -0.211 A  
HETATM    9  C   UNL     1      -9.573  15.193  66.425  1.00  0.00    -0.284 A  
HETATM   10  C   UNL     1     -10.667  13.152  65.693  1.00  0.00    -0.294 A  
HETATM   11  C   UNL     1     -10.438  14.532  65.555  1.00  0.00    -0.373 A  
BRANCH   9  12
HETATM   12  N   UNL     1      -9.382  16.586  66.443  1.00  0.00    -0.268 NA 
HETATM   13  H   UNL     1     -10.189  17.125  66.126  1.00  0.00     0.000 HD 
BRANCH  12  14
HETATM   14  C   UNL     1      -8.277  17.367  66.822  1.00  0.00    -0.249 A  
HETATM   15  C   UNL     1      -8.217  17.879  68.127  1.00  0.00    -0.269 A  
HETATM   16  C   UNL     1      -7.098  18.587  68.572  1.00  0.00    -0.293 A  
HETATM   17  C   UNL     1      -6.017  18.782  67.718  1.00  0.00    -0.189 A  
HETATM   18  C   UNL     1      -6.066  18.289  66.415  1.00  0.00    -0.208 A  
HETATM   19  C   UNL     1      -7.194  17.594  65.966  1.00  0.00    -0.316 A  
ENDBRANCH  12  14
ENDBRANCH   9  12
ENDBRANCH   4   6
ENDBRANCH   2   4
TORSDOF 4
ENDMDL
MODEL      128
REMARK 921   NORMALIZED FREE ENERGY PREDICTED BY IDOCK:   -3.58 KCAL/MOL
REMARK 922        TOTAL FREE ENERGY PREDICTED BY IDOCK:   -4.96 KCAL/MOL
REMARK 923 INTER-LIGAND FREE ENERGY PREDICTED BY IDOCK:   -4.45 KCAL/MOL
REMARK 924 INTRA-LIGAND FREE ENERGY PREDICTED BY IDOCK:   -0.51 KCAL/MOL
REMARK 927      BINDING AFFINITY PREDICTED BY RF-SCORE:    0.00 PKD
ROOT
HETATM    1  C   UNL     1      -9.321  14.818  66.563  1.00  0.00    -0.316 C  
HETATM    2  C   UNL     1     -10.433  14.622  67.594  1.00  0.00    -0.243 C  
HETATM    3  C   UNL     1     -11.717  14.151  66.919  1.00  0.00    -0.437 C  
ENDROOT
BRANCH   2   4
HETATM    4  N   UNL     1      -9.994  13.645  68.589  1.00  0.00    -0.351 NA 
HETATM    5  H   UNL     1      -9.371  13.955  69.336  1.00  0.00     0.000 HD 
BRANCH   4   6
HETATM    6  C   UNL     1     -10.390  12.310  68.560  1.00  0.00    -0.223 A  
HETATM    7  C   UNL     1     -11.356  11.774  69.411  1.00  0.00    -0.337 A  
HETATM    8  C   UNL     1     -11.602  10.397  69.467  1.00  0.00    -0.288 A  
HETATM    9  C   UNL     1     -10.879   9.504  68.673  1.00  0.00    -0.139 A  
HETATM   10  C   UNL     1      -9.685  11.407  67.749  1.00  0.00    -0.184 A  
HETATM   11  C   UNL     1      -9.935  10.023  67.789  1.00  0.00    -0.203 A  
BRANCH   9  12
HETATM   12  N   UNL     1     -11.103   8.130  68.872  1.00  0.00    -0.403 NA 
HETATM   13  H   UNL     1     -11.837   7.917  69.549  1.00  0.00     0.000 HD 
BRANCH  12  14
HETATM   14  C   UNL     1     -10.494   6.998  68.303  1.00  0.00    -0.202 A  
HETATM   15  C   UNL     1     -11.060   6.422  67.155  1.00  0.00    -0.422 A  
HETATM   16  C   UNL     1     -10.440   5.351  66.507  1.00  0.00    -0.352 A  
HETATM   17  C   UNL     1      -9.238   4.848  66.995  1.00  0.00    -0.127 A  
HETATM   18  C   UNL     1      -8.669   5.402  68.141  1.00  0.00    -0.105 A  
HETATM   19  C   UNL     1      -9.300   6.465  68.797  1.00  0.00    -0.125 A  
ENDBRANCH  12  14
ENDBRANCH   9  12
ENDBRANCH   4   6
ENDBRANCH   2   4
TORSDOF 4
ENDMDL
MODEL      129
REMARK 921   NORMALIZED FREE ENERGY PREDICTED BY IDOCK:   -3.57 KCAL/MOL
REMARK 922        TOTAL FREE ENERGY PREDICTED BY IDOCK:   -4.95 KCAL/MOL
REMARK 923 INTER-LIGAND FREE ENERGY PREDICTED BY IDOCK:   -4.80 KCAL/MOL
REMARK 924 INTRA-LIGAND FREE ENERGY PREDICTED BY IDOCK:   -0.15 KCAL/MOL
REMARK 927      BINDING AFFINITY PREDICTED BY RF-SCORE:    0.00 PKD
ROOT
HETATM    1  C   UNL     1      -8.496   3.576  70.881  1.00  0.00    -0.102 C  
HETATM    2  C   UNL     1      -8.888   5.032  70.635  1.00  0.00    -0.126 C  
HETATM    3  C   UNL     1      -9.221   5.260  69.165  1.00  0.00    -0.153 C  
ENDROOT
BRANCH   2   4
HETATM    4  N   UNL     1     -10.039   5.365  71.474  1.00  0.00    -0.188 NA 
HETATM    5  H   UNL     1     -10.353   4.683  72.166  1.00  0.00     0.000 HD 
BRANCH   4   6
HETATM    6  C   UNL     1     -10.725   6.573  71.367  1.00  0.00    -0.238 A  
HETATM    7  C   UNL     1     -12.080   6.718  71.660  1.00  0.00    -0.404 A  
HETATM    8  C   UNL     1     -12.768   7.903  71.377  1.00  0.00    -0.312 A  
HETATM    9  C   UNL     1     -12.121   8.988  70.782  1.00  0.00    -0.125 A  
HETATM   10  C   UNL     1     -10.077   7.677  70.790  1.00  0.00    -0.189 A  
HETATM   11  C   UNL     1     -10.758   8.876  70.516  1.00  0.00    -0.271 A  
BRANCH   9  12
HETATM   12  N   UNL     1     -12.907  10.097  70.424  1.00  0.00    -0.566 NA 
HETATM   13  H   UNL     1     -13.704   9.873  69.825  1.00  0.00     0.000 HD 
BRANCH  12  14
HETATM   14  C   UNL     1     -12.790  11.460  70.744  1.00  0.00    -0.167 A  
HETATM   15  C   UNL     1     -13.441  11.953  71.885  1.00  0.00    -0.289 A  
HETATM   16  C   UNL     1     -13.281  13.280  72.289  1.00  0.00    -0.567 A  
HETATM   17  C   UNL     1     -12.457  14.132  71.560  1.00  0.00    -0.423 A  
HETATM   18  C   UNL     1     -11.812  13.661  70.418  1.00  0.00    -0.308 A  
HETATM   19  C   UNL     1     -11.986  12.335  70.006  1.00  0.00    -0.379 A  
ENDBRANCH  12  14
ENDBRANCH   9  12
ENDBRANCH   4   6
ENDBRANCH   2   4
TORSDOF 4
ENDMDL
MODEL      130
REMARK 921   NORMALIZED FREE ENERGY PREDICTED BY IDOCK:   -3.54 KCAL/MOL
REMARK 922        TOTAL FREE ENERGY PREDICTED BY IDOCK:   -4.91 KCAL/MOL
REMARK 923 INTER-LIGAND FREE ENERGY PREDICTED BY IDOCK:   -4.36 KCAL/MOL
REMARK 924 INTRA-LIGAND FREE ENERGY PREDICTED BY IDOCK:   -0.55 KCAL/MOL
REMARK 927      BINDING AFFINITY PREDICTED BY RF-SCORE:    0.00 PKD
ROOT
HETATM    1  C   UNL     1     -10.589  17.658  68.302  1.00  0.00    -0.342 C  
HETATM    2  C   UNL     1     -10.719  16.146  68.480  1.00  0.00    -0.300 C  
HETATM    3  C   UNL     1     -11.986  15.801  69.256  1.00  0.00    -0.305 C  
ENDROOT
BRANCH   2   4
HETATM    4  N   UNL     1     -10.741  15.510  67.164  1.00  0.00    -0.312 NA 
HETATM    5  H   UNL     1     -10.882  16.096  66.341  1.00  0.00     0.000 HD 
BRANCH   4   6
HETATM    6  C   UNL     1     -10.577  14.138  66.987  1.00  0.00    -0.276 A  
HETATM    7  C   UNL     1      -9.334  13.508  66.952  1.00  0.00    -0.255 A  
HETATM    8  C   UNL     1      -9.205  12.160  66.602  1.00  0.00    -0.206 A  
HETATM    9  C   UNL     1     -10.322  11.392  66.267  1.00  0.00    -0.243 A  
HETATM   10  C   UNL     1     -11.697  13.353  66.671  1.00  0.00    -0.428 A  
HETATM   11  C   UNL     1     -11.578  11.993  66.332  1.00  0.00    -0.381 A  
BRANCH   9  12
HETATM   12  N   UNL     1     -10.097  10.080  65.815  1.00  0.00    -0.271 NA 
HETATM   13  H   UNL     1     -10.658   9.370  66.287  1.00  0.00     0.000 HD 
BRANCH  12  14
HETATM   14  C   UNL     1      -9.236   9.573  64.827  1.00  0.00    -0.205 A  
HETATM   15  C   UNL     1      -9.168  10.218  63.583  1.00  0.00    -0.315 A  
HETATM   16  C   UNL     1      -8.264   9.800  62.603  1.00  0.00    -0.145 A  
HETATM   17  C   UNL     1      -7.405   8.737  62.862  1.00  0.00    -0.095 A  
HETATM   18  C   UNL     1      -7.468   8.078  64.089  1.00  0.00    -0.107 A  
HETATM   19  C   UNL     1      -8.385   8.488  65.062  1.00  0.00    -0.175 A  
ENDBRANCH  12  14
ENDBRANCH   9  12
ENDBRANCH   4   6
ENDBRANCH   2   4
TORSDOF 4
ENDMDL
MODEL      131
REMARK 921   NORMALIZED FREE ENERGY PREDICTED BY IDOCK:   -3.54 KCAL/MOL
REMARK 922        TOTAL FREE ENERGY PREDICTED BY IDOCK:   -4.91 KCAL/MOL
REMARK 923 INTER-LIGAND FREE ENERGY PREDICTED BY IDOCK:   -4.99 KCAL/MOL
REMARK 924 INTRA-LIGAND FREE ENERGY PREDICTED BY IDOCK:    0.08 KCAL/MOL
REMARK 927      BINDING AFFINITY PREDICTED BY RF-SCORE:    0.00 PKD
ROOT
HETATM    1  C   UNL     1      -8.002   7.255  69.947  1.00  0.00    -0.122 C  
HETATM    2  C   UNL     1      -8.553   8.470  70.691  1.00  0.00    -0.148 C  
HETATM    3  C   UNL     1      -7.887   9.751  70.200  1.00  0.00    -0.196 C  
ENDROOT
BRANCH   2   4
HETATM    4  N   UNL     1      -9.999   8.540  70.489  1.00  0.00    -0.184 NA 
HETATM    5  H   UNL     1     -10.589   7.832  70.929  1.00  0.00     0.000 HD 
BRANCH   4   6
HETATM    6  C   UNL     1     -10.605   9.530  69.720  1.00  0.00    -0.236 A  
HETATM    7  C   UNL     1     -10.441   9.644  68.340  1.00  0.00    -0.258 A  
HETATM    8  C   UNL     1     -10.926  10.749  67.632  1.00  0.00    -0.365 A  
HETATM    9  C   UNL     1     -11.591  11.788  68.286  1.00  0.00    -0.308 A  
HETATM   10  C   UNL     1     -11.296  10.568  70.366  1.00  0.00    -0.411 A  
HETATM   11  C   UNL     1     -11.798  11.676  69.660  1.00  0.00    -0.419 A  
BRANCH   9  12
HETATM   12  N   UNL     1     -11.944  12.916  67.524  1.00  0.00    -0.340 NA 
HETATM   13  H   UNL     1     -12.197  13.736  68.077  1.00  0.00     0.000 HD 
BRANCH  12  14
HETATM   14  C   UNL     1     -12.010  13.113  66.134  1.00  0.00    -0.422 A  
HETATM   15  C   UNL     1     -11.613  14.348  65.600  1.00  0.00    -0.347 A  
HETATM   16  C   UNL     1     -11.581  14.558  64.219  1.00  0.00    -0.253 A  
HETATM   17  C   UNL     1     -11.935  13.528  63.353  1.00  0.00    -0.314 A  
HETATM   18  C   UNL     1     -12.342  12.299  63.869  1.00  0.00    -0.606 A  
HETATM   19  C   UNL     1     -12.389  12.096  65.252  1.00  0.00    -0.065 A  
ENDBRANCH  12  14
ENDBRANCH   9  12
ENDBRANCH   4   6
ENDBRANCH   2   4
TORSDOF 4
ENDMDL
MODEL      132
REMARK 921   NORMALIZED FREE ENERGY PREDICTED BY IDOCK:   -3.52 KCAL/MOL
REMARK 922        TOTAL FREE ENERGY PREDICTED BY IDOCK:   -4.89 KCAL/MOL
REMARK 923 INTER-LIGAND FREE ENERGY PREDICTED BY IDOCK:   -4.62 KCAL/MOL
REMARK 924 INTRA-LIGAND FREE ENERGY PREDICTED BY IDOCK:   -0.27 KCAL/MOL
REMARK 927      BINDING AFFINITY PREDICTED BY RF-SCORE:    0.00 PKD
ROOT
HETATM    1  C   UNL     1     -11.952  13.216  63.739  1.00  0.00    -0.572 C  
HETATM    2  C   UNL     1     -11.298  11.860  63.999  1.00  0.00    -0.397 C  
HETATM    3  C   UNL     1     -10.189  11.593  62.986  1.00  0.00    -0.294 C  
ENDROOT
BRANCH   2   4
HETATM    4  N   UNL     1     -10.760  11.841  65.358  1.00  0.00    -0.275 NA 
HETATM    5  H   UNL     1     -10.506  12.728  65.795  1.00  0.00     0.000 HD 
BRANCH   4   6
HETATM    6  C   UNL     1     -10.582  10.664  66.081  1.00  0.00    -0.142 A  
HETATM    7  C   UNL     1     -10.949  10.518  67.418  1.00  0.00    -0.352 A  
HETATM    8  C   UNL     1     -10.597   9.381  68.155  1.00  0.00    -0.261 A  
HETATM    9  C   UNL     1      -9.855   8.349  67.577  1.00  0.00    -0.181 A  
HETATM   10  C   UNL     1      -9.856   9.611  65.502  1.00  0.00    -0.352 A  
HETATM   11  C   UNL     1      -9.511   8.459  66.231  1.00  0.00    -0.292 A  
BRANCH   9  12
HETATM   12  N   UNL     1      -9.443   7.297  68.414  1.00  0.00    -0.142 NA 
HETATM   13  H   UNL     1      -8.812   6.628  67.970  1.00  0.00     0.000 HD 
BRANCH  12  14
HETATM   14  C   UNL     1      -9.746   7.004  69.755  1.00  0.00    -0.168 A  
HETATM   15  C   UNL     1     -10.797   6.120  70.040  1.00  0.00    -0.408 A  
HETATM   16  C   UNL     1     -11.076   5.734  71.353  1.00  0.00    -0.273 A  
HETATM   17  C   UNL     1     -10.298   6.221  72.399  1.00  0.00    -0.215 A  
HETATM   18  C   UNL     1      -9.258   7.109  72.133  1.00  0.00    -0.144 A  
HETATM   19  C   UNL     1      -8.990   7.507  70.818  1.00  0.00    -0.149 A  
ENDBRANCH  12  14
ENDBRANCH   9  12
ENDBRANCH   4   6
ENDBRANCH   2   4
TORSDOF 4
ENDMDL
MODEL      133
REMARK 921   NORMALIZED FREE ENERGY PREDICTED BY IDOCK:   -3.47 KCAL/MOL
REMARK 922        TOTAL FREE ENERGY PREDICTED BY IDOCK:   -4.83 KCAL/MOL
REMARK 923 INTER-LIGAND FREE ENERGY PREDICTED BY IDOCK:   -4.50 KCAL/MOL
REMARK 924 INTRA-LIGAND FREE ENERGY PREDICTED BY IDOCK:   -0.33 KCAL/MOL
REMARK 927      BINDING AFFINITY PREDICTED BY RF-SCORE:    0.00 PKD
ROOT
HETATM    1  C   UNL     1      -7.956   7.782  62.814  1.00  0.00    -0.130 C  
HETATM    2  C   UNL     1      -7.838   9.177  63.426  1.00  0.00    -0.132 C  
HETATM    3  C   UNL     1      -9.045  10.032  63.056  1.00  0.00    -0.298 C  
ENDROOT
BRANCH   2   4
HETATM    4  N   UNL     1      -7.728   9.054  64.878  1.00  0.00    -0.107 NA 
HETATM    5  H   UNL     1      -6.896   9.425  65.339  1.00  0.00     0.000 HD 
BRANCH   4   6
HETATM    6  C   UNL     1      -8.711   8.453  65.660  1.00  0.00    -0.172 A  
HETATM    7  C   UNL     1      -9.755   9.155  66.261  1.00  0.00    -0.344 A  
HETATM    8  C   UNL     1     -10.620   8.543  67.175  1.00  0.00    -0.314 A  
HETATM    9  C   UNL     1     -10.465   7.200  67.526  1.00  0.00    -0.260 A  
HETATM   10  C   UNL     1      -8.578   7.097  66.001  1.00  0.00    -0.158 A  
HETATM   11  C   UNL     1      -9.451   6.471  66.907  1.00  0.00    -0.178 A  
BRANCH   9  12
HETATM   12  N   UNL     1     -11.300   6.691  68.536  1.00  0.00    -0.576 NA 
HETATM   13  H   UNL     1     -12.144   6.231  68.193  1.00  0.00     0.000 HD 
BRANCH  12  14
HETATM   14  C   UNL     1     -11.178   6.705  69.936  1.00  0.00    -0.364 A  
HETATM   15  C   UNL     1     -11.701   7.789  70.657  1.00  0.00    -0.191 A  
HETATM   16  C   UNL     1     -11.679   7.803  72.054  1.00  0.00    -0.349 A  
HETATM   17  C   UNL     1     -11.141   6.724  72.749  1.00  0.00    -0.292 A  
HETATM   18  C   UNL     1     -10.607   5.645  72.047  1.00  0.00    -0.283 A  
HETATM   19  C   UNL     1     -10.616   5.640  70.648  1.00  0.00    -0.347 A  
ENDBRANCH  12  14
ENDBRANCH   9  12
ENDBRANCH   4   6
ENDBRANCH   2   4
TORSDOF 4
ENDMDL
MODEL      134
REMARK 921   NORMALIZED FREE ENERGY PREDICTED BY IDOCK:   -3.46 KCAL/MOL
REMARK 922        TOTAL FREE ENERGY PREDICTED BY IDOCK:   -4.82 KCAL/MOL
REMARK 923 INTER-LIGAND FREE ENERGY PREDICTED BY IDOCK:   -4.57 KCAL/MOL
REMARK 924 INTRA-LIGAND FREE ENERGY PREDICTED BY IDOCK:   -0.25 KCAL/MOL
REMARK 927      BINDING AFFINITY PREDICTED BY RF-SCORE:    0.00 PKD
ROOT
HETATM    1  C   UNL     1      -9.680  11.236  63.027  1.00  0.00    -0.389 C  
HETATM    2  C   UNL     1     -10.747  12.270  63.386  1.00  0.00    -0.391 C  
HETATM    3  C   UNL     1     -12.122  11.617  63.473  1.00  0.00    -0.355 C  
ENDROOT
BRANCH   2   4
HETATM    4  N   UNL     1     -10.399  12.892  64.663  1.00  0.00    -0.416 NA 
HETATM    5  H   UNL     1     -10.210  13.895  64.682  1.00  0.00     0.000 HD 
BRANCH   4   6
HETATM    6  C   UNL     1     -10.313  12.173  65.852  1.00  0.00    -0.255 A  
HETATM    7  C   UNL     1      -9.133  11.598  66.322  1.00  0.00    -0.219 A  
HETATM    8  C   UNL     1      -9.124  10.742  67.429  1.00  0.00    -0.148 A  
HETATM    9  C   UNL     1     -10.305  10.425  68.104  1.00  0.00    -0.172 A  
HETATM   10  C   UNL     1     -11.491  11.868  66.552  1.00  0.00    -0.381 A  
HETATM   11  C   UNL     1     -11.489  11.020  67.673  1.00  0.00    -0.303 A  
BRANCH   9  12
HETATM   12  N   UNL     1     -10.230   9.468  69.132  1.00  0.00    -0.193 NA 
HETATM   13  H   UNL     1      -9.905   9.837  70.027  1.00  0.00     0.000 HD 
BRANCH  12  14
HETATM   14  C   UNL     1     -10.523   8.094  69.144  1.00  0.00    -0.206 A  
HETATM   15  C   UNL     1     -10.392   7.357  67.958  1.00  0.00    -0.247 A  
HETATM   16  C   UNL     1     -10.589   5.974  67.944  1.00  0.00    -0.337 A  
HETATM   17  C   UNL     1     -10.909   5.308  69.123  1.00  0.00     0.114 A  
HETATM   18  C   UNL     1     -11.055   6.028  70.307  1.00  0.00    -0.415 A  
HETATM   19  C   UNL     1     -10.872   7.415  70.316  1.00  0.00    -0.260 A  
ENDBRANCH  12  14
ENDBRANCH   9  12
ENDBRANCH   4   6
ENDBRANCH   2   4
TORSDOF 4
ENDMDL
MODEL      135
REMARK 921   NORMALIZED FREE ENERGY PREDICTED BY IDOCK:   -3.46 KCAL/MOL
REMARK 922        TOTAL FREE ENERGY PREDICTED BY IDOCK:   -4.82 KCAL/MOL
REMARK 923 INTER-LIGAND FREE ENERGY PREDICTED BY IDOCK:   -4.40 KCAL/MOL
REMARK 924 INTRA-LIGAND FREE ENERGY PREDICTED BY IDOCK:   -0.42 KCAL/MOL
REMARK 927      BINDING AFFINITY PREDICTED BY RF-SCORE:    0.00 PKD
ROOT
HETATM    1  C   UNL     1      -9.806  14.983  67.397  1.00  0.00    -0.224 C  
HETATM    2  C   UNL     1      -8.866  13.905  66.856  1.00  0.00    -0.193 C  
HETATM    3  C   UNL     1      -8.066  13.270  67.989  1.00  0.00    -0.157 C  
ENDROOT
BRANCH   2   4
HETATM    4  N   UNL     1      -9.654  12.890  66.159  1.00  0.00    -0.373 NA 
HETATM    5  H   UNL     1     -10.095  13.137  65.273  1.00  0.00     0.000 HD 
BRANCH   4   6
HETATM    6  C   UNL     1      -9.828  11.600  66.655  1.00  0.00    -0.200 A  
HETATM    7  C   UNL     1      -9.152  10.486  66.160  1.00  0.00    -0.184 A  
HETATM    8  C   UNL     1      -9.480   9.188  66.567  1.00  0.00    -0.266 A  
HETATM    9  C   UNL     1     -10.508   8.959  67.484  1.00  0.00    -0.269 A  
HETATM   10  C   UNL     1     -10.845  11.362  67.594  1.00  0.00    -0.286 A  
HETATM   11  C   UNL     1     -11.171  10.062  68.018  1.00  0.00    -0.190 A  
BRANCH   9  12
HETATM   12  N   UNL     1     -10.854   7.622  67.752  1.00  0.00    -0.487 NA 
HETATM   13  H   UNL     1     -11.328   7.148  66.983  1.00  0.00     0.000 HD 
BRANCH  12  14
HETATM   14  C   UNL     1     -10.661   6.825  68.893  1.00  0.00    -0.240 A  
HETATM   15  C   UNL     1     -11.367   7.130  70.067  1.00  0.00    -0.242 A  
HETATM   16  C   UNL     1     -11.272   6.314  71.197  1.00  0.00    -0.365 A  
HETATM   17  C   UNL     1     -10.477   5.173  71.162  1.00  0.00    -0.240 A  
HETATM   18  C   UNL     1      -9.760   4.862  70.008  1.00  0.00    -0.285 A  
HETATM   19  C   UNL     1      -9.845   5.690  68.882  1.00  0.00    -0.197 A  
ENDBRANCH  12  14
ENDBRANCH   9  12
ENDBRANCH   4   6
ENDBRANCH   2   4
TORSDOF 4
ENDMDL
MODEL      136
REMARK 921   NORMALIZED FREE ENERGY PREDICTED BY IDOCK:   -3.45 KCAL/MOL
REMARK 922        TOTAL FREE ENERGY PREDICTED BY IDOCK:   -4.81 KCAL/MOL
REMARK 923 INTER-LIGAND FREE ENERGY PREDICTED BY IDOCK:   -4.32 KCAL/MOL
REMARK 924 INTRA-LIGAND FREE ENERGY PREDICTED BY IDOCK:   -0.49 KCAL/MOL
REMARK 927      BINDING AFFINITY PREDICTED BY RF-SCORE:    0.00 PKD
ROOT
HETATM    1  C   UNL     1      -8.982   5.661  70.981  1.00  0.00    -0.151 C  
HETATM    2  C   UNL     1      -8.673   7.109  70.604  1.00  0.00    -0.148 C  
HETATM    3  C   UNL     1      -7.249   7.479  71.006  1.00  0.00    -0.066 C  
ENDROOT
BRANCH   2   4
HETATM    4  N   UNL     1      -8.853   7.276  69.163  1.00  0.00    -0.136 NA 
HETATM    5  H   UNL     1      -8.516   6.541  68.540  1.00  0.00     0.000 HD 
BRANCH   4   6
HETATM    6  C   UNL     1      -9.465   8.396  68.605  1.00  0.00    -0.147 A  
HETATM    7  C   UNL     1      -9.860   9.509  69.346  1.00  0.00    -0.194 A  
HETATM    8  C   UNL     1     -10.622  10.535  68.779  1.00  0.00    -0.233 A  
HETATM    9  C   UNL     1     -11.025  10.480  67.442  1.00  0.00    -0.288 A  
HETATM   10  C   UNL     1      -9.853   8.360  67.256  1.00  0.00    -0.264 A  
HETATM   11  C   UNL     1     -10.608   9.394  66.674  1.00  0.00    -0.170 A  
BRANCH   9  12
HETATM   12  N   UNL     1     -11.885  11.491  66.980  1.00  0.00    -0.530 NA 
HETATM   13  H   UNL     1     -12.859  11.202  66.882  1.00  0.00     0.000 HD 
BRANCH  12  14
HETATM   14  C   UNL     1     -11.641  12.830  66.629  1.00  0.00    -0.370 A  
HETATM   15  C   UNL     1     -11.327  13.754  67.637  1.00  0.00    -0.331 A  
HETATM   16  C   UNL     1     -10.992  15.074  67.324  1.00  0.00    -0.326 A  
HETATM   17  C   UNL     1     -10.956  15.483  65.995  1.00  0.00    -0.251 A  
HETATM   18  C   UNL     1     -11.277  14.580  64.983  1.00  0.00    -0.384 A  
HETATM   19  C   UNL     1     -11.627  13.263  65.299  1.00  0.00    -0.335 A  
ENDBRANCH  12  14
ENDBRANCH   9  12
ENDBRANCH   4   6
ENDBRANCH   2   4
TORSDOF 4
ENDMDL
MODEL      137
REMARK 921   NORMALIZED FREE ENERGY PREDICTED BY IDOCK:   -3.44 KCAL/MOL
REMARK 922        TOTAL FREE ENERGY PREDICTED BY IDOCK:   -4.80 KCAL/MOL
REMARK 923 INTER-LIGAND FREE ENERGY PREDICTED BY IDOCK:   -4.21 KCAL/MOL
REMARK 924 INTRA-LIGAND FREE ENERGY PREDICTED BY IDOCK:   -0.59 KCAL/MOL
REMARK 927      BINDING AFFINITY PREDICTED BY RF-SCORE:    0.00 PKD
ROOT
HETATM    1  C   UNL     1      -9.966   4.372  65.717  1.00  0.00    -0.251 C  
HETATM    2  C   UNL     1      -9.901   5.242  66.971  1.00  0.00    -0.167 C  
HETATM    3  C   UNL     1      -9.170   4.515  68.095  1.00  0.00    -0.170 C  
ENDROOT
BRANCH   2   4
HETATM    4  N   UNL     1      -9.218   6.494  66.649  1.00  0.00    -0.149 NA 
HETATM    5  H   UNL     1      -8.511   6.490  65.913  1.00  0.00     0.000 HD 
BRANCH   4   6
HETATM    6  C   UNL     1      -9.493   7.692  67.304  1.00  0.00    -0.148 A  
HETATM    7  C   UNL     1     -10.499   8.574  66.909  1.00  0.00    -0.345 A  
HETATM    8  C   UNL     1     -10.630   9.842  67.485  1.00  0.00    -0.335 A  
HETATM    9  C   UNL     1      -9.750  10.277  68.479  1.00  0.00    -0.161 A  
HETATM   10  C   UNL     1      -8.628   8.129  68.319  1.00  0.00    -0.130 A  
HETATM   11  C   UNL     1      -8.761   9.396  68.914  1.00  0.00    -0.132 A  
BRANCH   9  12
HETATM   12  N   UNL     1      -9.876  11.605  68.923  1.00  0.00    -0.397 NA 
HETATM   13  H   UNL     1      -9.646  11.742  69.908  1.00  0.00     0.000 HD 
BRANCH  12  14
HETATM   14  C   UNL     1     -10.264  12.776  68.251  1.00  0.00    -0.244 A  
HETATM   15  C   UNL     1      -9.351  13.405  67.392  1.00  0.00    -0.221 A  
HETATM   16  C   UNL     1      -9.722  14.521  66.638  1.00  0.00    -0.285 A  
HETATM   17  C   UNL     1     -11.020  15.016  66.726  1.00  0.00    -0.323 A  
HETATM   18  C   UNL     1     -11.936  14.410  67.584  1.00  0.00    -0.378 A  
HETATM   19  C   UNL     1     -11.557  13.302  68.350  1.00  0.00    -0.372 A  
ENDBRANCH  12  14
ENDBRANCH   9  12
ENDBRANCH   4   6
ENDBRANCH   2   4
TORSDOF 4
ENDMDL
MODEL      138
REMARK 921   NORMALIZED FREE ENERGY PREDICTED BY IDOCK:   -3.43 KCAL/MOL
REMARK 922        TOTAL FREE ENERGY PREDICTED BY IDOCK:   -4.78 KCAL/MOL
REMARK 923 INTER-LIGAND FREE ENERGY PREDICTED BY IDOCK:   -4.23 KCAL/MOL
REMARK 924 INTRA-LIGAND FREE ENERGY PREDICTED BY IDOCK:   -0.55 KCAL/MOL
REMARK 927      BINDING AFFINITY PREDICTED BY RF-SCORE:    0.00 PKD
ROOT
HETATM    1  C   UNL     1     -11.578  14.256  66.825  1.00  0.00    -0.407 C  
HETATM    2  C   UNL     1     -11.171  13.751  68.209  1.00  0.00    -0.273 C  
HETATM    3  C   UNL     1     -11.583  14.745  69.289  1.00  0.00    -0.331 C  
ENDROOT
BRANCH   2   4
HETATM    4  N   UNL     1     -11.799  12.452  68.447  1.00  0.00    -0.332 NA 
HETATM    5  H   UNL     1     -12.799  12.423  68.648  1.00  0.00     0.000 HD 
BRANCH   4   6
HETATM    6  C   UNL     1     -11.090  11.254  68.411  1.00  0.00    -0.240 A  
HETATM    7  C   UNL     1     -10.724  10.610  67.230  1.00  0.00    -0.338 A  
HETATM    8  C   UNL     1     -10.165   9.327  67.237  1.00  0.00    -0.315 A  
HETATM    9  C   UNL     1      -9.958   8.638  68.434  1.00  0.00    -0.184 A  
HETATM   10  C   UNL     1     -10.856  10.563  69.611  1.00  0.00    -0.320 A  
HETATM   11  C   UNL     1     -10.282   9.280  69.628  1.00  0.00    -0.219 A  
BRANCH   9  12
HETATM   12  N   UNL     1      -9.502   7.311  68.349  1.00  0.00    -0.142 NA 
HETATM   13  H   UNL     1      -9.065   6.961  69.203  1.00  0.00     0.000 HD 
BRANCH  12  14
HETATM   14  C   UNL     1      -9.541   6.381  67.296  1.00  0.00    -0.125 A  
HETATM   15  C   UNL     1      -8.337   5.948  66.722  1.00  0.00    -0.109 A  
HETATM   16  C   UNL     1      -8.325   4.961  65.733  1.00  0.00    -0.115 A  
HETATM   17  C   UNL     1      -9.520   4.386  65.313  1.00  0.00    -0.172 A  
HETATM   18  C   UNL     1     -10.726   4.814  65.866  1.00  0.00    -0.225 A  
HETATM   19  C   UNL     1     -10.737   5.813  66.845  1.00  0.00    -0.381 A  
ENDBRANCH  12  14
ENDBRANCH   9  12
ENDBRANCH   4   6
ENDBRANCH   2   4
TORSDOF 4
ENDMDL
MODEL      139
REMARK 921   NORMALIZED FREE ENERGY PREDICTED BY IDOCK:   -3.41 KCAL/MOL
REMARK 922        TOTAL FREE ENERGY PREDICTED BY IDOCK:   -4.76 KCAL/MOL
REMARK 923 INTER-LIGAND FREE ENERGY PREDICTED BY IDOCK:   -4.22 KCAL/MOL
REMARK 924 INTRA-LIGAND FREE ENERGY PREDICTED BY IDOCK:   -0.55 KCAL/MOL
REMARK 927      BINDING AFFINITY PREDICTED BY RF-SCORE:    0.00 PKD
ROOT
HETATM    1  C   UNL     1     -12.160   9.531  71.753  1.00  0.00    -0.459 C  
HETATM    2  C   UNL     1     -12.468  10.749  70.883  1.00  0.00    -0.402 C  
HETATM    3  C   UNL     1     -13.064  11.874  71.723  1.00  0.00    -0.465 C  
ENDROOT
BRANCH   2   4
HETATM    4  N   UNL     1     -11.237  11.197  70.235  1.00  0.00    -0.479 NA 
HETATM    5  H   UNL     1     -10.815  12.075  70.540  1.00  0.00     0.000 HD 
BRANCH   4   6
HETATM    6  C   UNL     1     -10.616  10.475  69.218  1.00  0.00    -0.236 A  
HETATM    7  C   UNL     1     -11.105  10.403  67.914  1.00  0.00    -0.363 A  
HETATM    8  C   UNL     1     -10.550   9.533  66.970  1.00  0.00    -0.271 A  
HETATM    9  C   UNL     1      -9.483   8.694  67.302  1.00  0.00    -0.156 A  
HETATM   10  C   UNL     1      -9.528   9.646  69.536  1.00  0.00    -0.211 A  
HETATM   11  C   UNL     1      -8.956   8.779  68.589  1.00  0.00    -0.138 A  
BRANCH   9  12
HETATM   12  N   UNL     1      -9.059   7.768  66.333  1.00  0.00    -0.168 NA 
HETATM   13  H   UNL     1      -8.722   8.189  65.466  1.00  0.00     0.000 HD 
BRANCH  12  14
HETATM   14  C   UNL     1      -9.017   6.363  66.347  1.00  0.00    -0.153 A  
HETATM   15  C   UNL     1      -7.796   5.713  66.115  1.00  0.00    -0.100 A  
HETATM   16  C   UNL     1      -7.691   4.323  66.206  1.00  0.00    -0.094 A  
HETATM   17  C   UNL     1      -8.808   3.565  66.542  1.00  0.00    -0.136 A  
HETATM   18  C   UNL     1     -10.031   4.194  66.765  1.00  0.00    -0.140 A  
HETATM   19  C   UNL     1     -10.137   5.585  66.658  1.00  0.00    -0.245 A  
ENDBRANCH  12  14
ENDBRANCH   9  12
ENDBRANCH   4   6
ENDBRANCH   2   4
TORSDOF 4
ENDMDL
MODEL      140
REMARK 921   NORMALIZED FREE ENERGY PREDICTED BY IDOCK:   -3.39 KCAL/MOL
REMARK 922        TOTAL FREE ENERGY PREDICTED BY IDOCK:   -4.74 KCAL/MOL
REMARK 923 INTER-LIGAND FREE ENERGY PREDICTED BY IDOCK:   -4.24 KCAL/MOL
REMARK 924 INTRA-LIGAND FREE ENERGY PREDICTED BY IDOCK:   -0.50 KCAL/MOL
REMARK 927      BINDING AFFINITY PREDICTED BY RF-SCORE:    0.00 PKD
ROOT
HETATM    1  C   UNL     1     -10.199   8.442  72.291  1.00  0.00    -0.396 C  
HETATM    2  C   UNL     1     -11.619   7.990  72.631  1.00  0.00    -0.387 C  
HETATM    3  C   UNL     1     -12.647   8.926  72.004  1.00  0.00    -0.460 C  
ENDROOT
BRANCH   2   4
HETATM    4  N   UNL     1     -11.813   6.624  72.148  1.00  0.00    -0.366 NA 
HETATM    5  H   UNL     1     -12.470   6.019  72.643  1.00  0.00     0.000 HD 
BRANCH   4   6
HETATM    6  C   UNL     1     -11.140   6.114  71.040  1.00  0.00    -0.297 A  
HETATM    7  C   UNL     1     -11.461   6.443  69.724  1.00  0.00    -0.468 A  
HETATM    8  C   UNL     1     -10.876   5.781  68.639  1.00  0.00    -0.270 A  
HETATM    9  C   UNL     1      -9.950   4.754  68.836  1.00  0.00    -0.126 A  
HETATM   10  C   UNL     1     -10.191   5.097  71.228  1.00  0.00    -0.292 A  
HETATM   11  C   UNL     1      -9.589   4.435  70.143  1.00  0.00    -0.263 A  
BRANCH   9  12
HETATM   12  N   UNL     1      -9.498   4.060  67.699  1.00  0.00    -0.181 NA 
HETATM   13  H   UNL     1      -9.538   3.044  67.783  1.00  0.00     0.000 HD 
BRANCH  12  14
HETATM   14  C   UNL     1      -8.999   4.520  66.469  1.00  0.00    -0.114 A  
HETATM   15  C   UNL     1      -9.538   4.009  65.279  1.00  0.00    -0.185 A  
HETATM   16  C   UNL     1      -9.133   4.500  64.035  1.00  0.00    -0.123 A  
HETATM   17  C   UNL     1      -8.190   5.520  63.967  1.00  0.00    -0.117 A  
HETATM   18  C   UNL     1      -7.636   6.031  65.140  1.00  0.00    -0.089 A  
HETATM   19  C   UNL     1      -8.031   5.526  66.384  1.00  0.00    -0.105 A  
ENDBRANCH  12  14
ENDBRANCH   9  12
ENDBRANCH   4   6
ENDBRANCH   2   4
TORSDOF 4
ENDMDL
MODEL      141
REMARK 921   NORMALIZED FREE ENERGY PREDICTED BY IDOCK:   -3.37 KCAL/MOL
REMARK 922        TOTAL FREE ENERGY PREDICTED BY IDOCK:   -4.71 KCAL/MOL
REMARK 923 INTER-LIGAND FREE ENERGY PREDICTED BY IDOCK:   -4.21 KCAL/MOL
REMARK 924 INTRA-LIGAND FREE ENERGY PREDICTED BY IDOCK:   -0.50 KCAL/MOL
REMARK 927      BINDING AFFINITY PREDICTED BY RF-SCORE:    0.00 PKD
ROOT
HETATM    1  C   UNL     1     -11.168   2.756  73.550  1.00  0.00    -0.300 C  
HETATM    2  C   UNL     1     -11.008   4.272  73.442  1.00  0.00    -0.278 C  
HETATM    3  C   UNL     1     -10.093   4.798  74.543  1.00  0.00    -0.267 C  
ENDROOT
BRANCH   2   4
HETATM    4  N   UNL     1     -10.462   4.601  72.126  1.00  0.00    -0.181 NA 
HETATM    5  H   UNL     1      -9.859   3.921  71.663  1.00  0.00     0.000 HD 
BRANCH   4   6
HETATM    6  C   UNL     1     -10.730   5.805  71.480  1.00  0.00    -0.258 A  
HETATM    7  C   UNL     1      -9.739   6.694  71.062  1.00  0.00    -0.185 A  
HETATM    8  C   UNL     1     -10.054   7.966  70.573  1.00  0.00    -0.192 A  
HETATM    9  C   UNL     1     -11.380   8.399  70.490  1.00  0.00    -0.216 A  
HETATM   10  C   UNL     1     -12.060   6.240  71.371  1.00  0.00    -0.136 A  
HETATM   11  C   UNL     1     -12.386   7.512  70.867  1.00  0.00    -0.198 A  
BRANCH   9  12
HETATM   12  N   UNL     1     -11.606   9.730  70.098  1.00  0.00    -0.385 NA 
HETATM   13  H   UNL     1     -12.177  10.269  70.750  1.00  0.00     0.000 HD 
BRANCH  12  14
HETATM   14  C   UNL     1     -11.183  10.450  68.968  1.00  0.00    -0.234 A  
HETATM   15  C   UNL     1     -11.128  11.850  69.030  1.00  0.00    -0.300 A  
HETATM   16  C   UNL     1     -10.632  12.599  67.960  1.00  0.00    -0.233 A  
HETATM   17  C   UNL     1     -10.174  11.954  66.815  1.00  0.00    -0.232 A  
HETATM   18  C   UNL     1     -10.233  10.564  66.734  1.00  0.00    -0.288 A  
HETATM   19  C   UNL     1     -10.745   9.816  67.800  1.00  0.00    -0.329 A  
ENDBRANCH  12  14
ENDBRANCH   9  12
ENDBRANCH   4   6
ENDBRANCH   2   4
TORSDOF 4
ENDMDL
MODEL      142
REMARK 921   NORMALIZED FREE ENERGY PREDICTED BY IDOCK:   -3.35 KCAL/MOL
REMARK 922        TOTAL FREE ENERGY PREDICTED BY IDOCK:   -4.69 KCAL/MOL
REMARK 923 INTER-LIGAND FREE ENERGY PREDICTED BY IDOCK:   -4.24 KCAL/MOL
REMARK 924 INTRA-LIGAND FREE ENERGY PREDICTED BY IDOCK:   -0.45 KCAL/MOL
REMARK 927      BINDING AFFINITY PREDICTED BY RF-SCORE:    0.00 PKD
ROOT
HETATM    1  C   UNL     1     -11.766  13.529  68.000  1.00  0.00    -0.394 C  
HETATM    2  C   UNL     1     -11.039  12.469  68.827  1.00  0.00    -0.270 C  
HETATM    3  C   UNL     1     -12.029  11.668  69.666  1.00  0.00    -0.390 C  
ENDROOT
BRANCH   2   4
HETATM    4  N   UNL     1     -10.303  11.584  67.927  1.00  0.00    -0.179 NA 
HETATM    5  H   UNL     1     -10.000  11.948  67.022  1.00  0.00     0.000 HD 
BRANCH   4   6
HETATM    6  C   UNL     1      -9.997  10.264  68.251  1.00  0.00    -0.147 A  
HETATM    7  C   UNL     1     -10.596   9.162  67.642  1.00  0.00    -0.307 A  
HETATM    8  C   UNL     1     -10.389   7.861  68.114  1.00  0.00    -0.249 A  
HETATM    9  C   UNL     1      -9.576   7.617  69.223  1.00  0.00    -0.159 A  
HETATM   10  C   UNL     1      -9.163  10.008  69.351  1.00  0.00    -0.229 A  
HETATM   11  C   UNL     1      -8.938   8.702  69.822  1.00  0.00    -0.145 A  
BRANCH   9  12
HETATM   12  N   UNL     1      -9.512   6.298  69.705  1.00  0.00    -0.151 NA 
HETATM   13  H   UNL     1      -9.039   5.644  69.081  1.00  0.00     0.000 HD 
BRANCH  12  14
HETATM   14  C   UNL     1      -9.985   5.721  70.896  1.00  0.00    -0.189 A  
HETATM   15  C   UNL     1     -11.094   6.292  71.538  1.00  0.00    -0.333 A  
HETATM   16  C   UNL     1     -11.651   5.701  72.675  1.00  0.00    -0.307 A  
HETATM   17  C   UNL     1     -11.109   4.522  73.179  1.00  0.00    -0.350 A  
HETATM   18  C   UNL     1     -10.000   3.949  72.559  1.00  0.00    -0.225 A  
HETATM   19  C   UNL     1      -9.435   4.551  71.429  1.00  0.00    -0.219 A  
ENDBRANCH  12  14
ENDBRANCH   9  12
ENDBRANCH   4   6
ENDBRANCH   2   4
TORSDOF 4
ENDMDL
MODEL      143
REMARK 921   NORMALIZED FREE ENERGY PREDICTED BY IDOCK:   -3.33 KCAL/MOL
REMARK 922        TOTAL FREE ENERGY PREDICTED BY IDOCK:   -4.66 KCAL/MOL
REMARK 923 INTER-LIGAND FREE ENERGY PREDICTED BY IDOCK:   -4.11 KCAL/MOL
REMARK 924 INTRA-LIGAND FREE ENERGY PREDICTED BY IDOCK:   -0.54 KCAL/MOL
REMARK 927      BINDING AFFINITY PREDICTED BY RF-SCORE:    0.00 PKD
ROOT
HETATM    1  C   UNL     1     -12.196  13.062  66.710  1.00  0.00    -0.261 C  
HETATM    2  C   UNL     1     -11.257  13.164  67.912  1.00  0.00    -0.270 C  
HETATM    3  C   UNL     1     -10.981  14.623  68.258  1.00  0.00    -0.261 C  
ENDROOT
BRANCH   2   4
HETATM    4  N   UNL     1     -11.863  12.477  69.051  1.00  0.00    -0.307 NA 
HETATM    5  H   UNL     1     -12.582  12.962  69.588  1.00  0.00     0.000 HD 
BRANCH   4   6
HETATM    6  C   UNL     1     -11.498  11.188  69.434  1.00  0.00    -0.298 A  
HETATM    7  C   UNL     1     -10.951  10.249  68.560  1.00  0.00    -0.294 A  
HETATM    8  C   UNL     1     -10.760   8.917  68.941  1.00  0.00    -0.132 A  
HETATM    9  C   UNL     1     -11.117   8.473  70.216  1.00  0.00    -0.214 A  
HETATM   10  C   UNL     1     -11.833  10.739  70.721  1.00  0.00    -0.443 A  
HETATM   11  C   UNL     1     -11.631   9.405  71.117  1.00  0.00    -0.415 A  
BRANCH   9  12
HETATM   12  N   UNL     1     -11.002   7.097  70.482  1.00  0.00    -0.253 NA 
HETATM   13  H   UNL     1     -11.843   6.672  70.873  1.00  0.00     0.000 HD 
BRANCH  12  14
HETATM   14  C   UNL     1      -9.932   6.204  70.304  1.00  0.00    -0.183 A  
HETATM   15  C   UNL     1     -10.162   4.982  69.655  1.00  0.00    -0.306 A  
HETATM   16  C   UNL     1      -9.111   4.104  69.381  1.00  0.00    -0.189 A  
HETATM   17  C   UNL     1      -7.811   4.443  69.743  1.00  0.00    -0.057 A  
HETATM   18  C   UNL     1      -7.568   5.648  70.399  1.00  0.00    -0.089 A  
HETATM   19  C   UNL     1      -8.624   6.520  70.687  1.00  0.00    -0.139 A  
ENDBRANCH  12  14
ENDBRANCH   9  12
ENDBRANCH   4   6
ENDBRANCH   2   4
TORSDOF 4
ENDMDL
MODEL      144
REMARK 921   NORMALIZED FREE ENERGY PREDICTED BY IDOCK:   -3.31 KCAL/MOL
REMARK 922        TOTAL FREE ENERGY PREDICTED BY IDOCK:   -4.64 KCAL/MOL
REMARK 923 INTER-LIGAND FREE ENERGY PREDICTED BY IDOCK:   -4.08 KCAL/MOL
REMARK 924 INTRA-LIGAND FREE ENERGY PREDICTED BY IDOCK:   -0.55 KCAL/MOL
REMARK 927      BINDING AFFINITY PREDICTED BY RF-SCORE:    0.00 PKD
ROOT
HETATM    1  C   UNL     1      -8.144  14.853  68.443  1.00  0.00    -0.137 C  
HETATM    2  C   UNL     1      -8.982  14.874  67.165  1.00  0.00    -0.214 C  
HETATM    3  C   UNL     1      -8.565  16.032  66.265  1.00  0.00    -0.363 C  
ENDROOT
BRANCH   2   4
HETATM    4  N   UNL     1      -8.816  13.601  66.464  1.00  0.00    -0.455 NA 
HETATM    5  H   UNL     1      -8.219  13.573  65.637  1.00  0.00     0.000 HD 
BRANCH   4   6
HETATM    6  C   UNL     1      -9.439  12.427  66.878  1.00  0.00    -0.219 A  
HETATM    7  C   UNL     1     -10.823  12.270  66.947  1.00  0.00    -0.290 A  
HETATM    8  C   UNL     1     -11.406  11.139  67.528  1.00  0.00    -0.351 A  
HETATM    9  C   UNL     1     -10.618  10.122  68.072  1.00  0.00    -0.231 A  
HETATM   10  C   UNL     1      -8.655  11.388  67.405  1.00  0.00    -0.142 A  
HETATM   11  C   UNL     1      -9.233  10.241  67.979  1.00  0.00    -0.138 A  
BRANCH   9  12
HETATM   12  N   UNL     1     -11.278   9.076  68.741  1.00  0.00    -0.384 NA 
HETATM   13  H   UNL     1     -12.289   9.058  68.601  1.00  0.00     0.000 HD 
BRANCH  12  14
HETATM   14  C   UNL     1     -10.791   8.050  69.569  1.00  0.00    -0.129 A  
HETATM   15  C   UNL     1     -10.096   6.977  68.990  1.00  0.00    -0.182 A  
HETATM   16  C   UNL     1      -9.520   5.982  69.783  1.00  0.00    -0.173 A  
HETATM   17  C   UNL     1      -9.624   6.053  71.169  1.00  0.00    -0.195 A  
HETATM   18  C   UNL     1     -10.321   7.106  71.758  1.00  0.00    -0.216 A  
HETATM   19  C   UNL     1     -10.911   8.094  70.961  1.00  0.00    -0.265 A  
ENDBRANCH  12  14
ENDBRANCH   9  12
ENDBRANCH   4   6
ENDBRANCH   2   4
TORSDOF 4
ENDMDL
MODEL      145
REMARK 921   NORMALIZED FREE ENERGY PREDICTED BY IDOCK:   -3.31 KCAL/MOL
REMARK 922        TOTAL FREE ENERGY PREDICTED BY IDOCK:   -4.63 KCAL/MOL
REMARK 923 INTER-LIGAND FREE ENERGY PREDICTED BY IDOCK:   -4.27 KCAL/MOL
REMARK 924 INTRA-LIGAND FREE ENERGY PREDICTED BY IDOCK:   -0.36 KCAL/MOL
REMARK 927      BINDING AFFINITY PREDICTED BY RF-SCORE:    0.00 PKD
ROOT
HETATM    1  C   UNL     1      -6.816  20.261  66.486  1.00  0.00    -0.274 C  
HETATM    2  C   UNL     1      -7.132  18.886  67.075  1.00  0.00    -0.207 C  
HETATM    3  C   UNL     1      -8.014  19.019  68.312  1.00  0.00    -0.350 C  
ENDROOT
BRANCH   2   4
HETATM    4  N   UNL     1      -7.799  18.073  66.060  1.00  0.00    -0.501 NA 
HETATM    5  H   UNL     1      -7.859  18.434  65.107  1.00  0.00     0.000 HD 
BRANCH   4   6
HETATM    6  C   UNL     1      -8.355  16.827  66.339  1.00  0.00    -0.309 A  
HETATM    7  C   UNL     1      -9.672  16.484  66.032  1.00  0.00    -0.331 A  
HETATM    8  C   UNL     1     -10.242  15.288  66.481  1.00  0.00    -0.282 A  
HETATM    9  C   UNL     1      -9.511  14.391  67.264  1.00  0.00    -0.215 A  
HETATM   10  C   UNL     1      -7.621  15.908  67.106  1.00  0.00    -0.255 A  
HETATM   11  C   UNL     1      -8.182  14.698  67.549  1.00  0.00    -0.203 A  
BRANCH   9  12
HETATM   12  N   UNL     1     -10.190  13.269  67.772  1.00  0.00    -0.224 NA 
HETATM   13  H   UNL     1     -10.956  13.494  68.408  1.00  0.00     0.000 HD 
BRANCH  12  14
HETATM   14  C   UNL     1      -9.999  11.894  67.559  1.00  0.00    -0.187 A  
HETATM   15  C   UNL     1     -11.114  11.080  67.307  1.00  0.00    -0.359 A  
HETATM   16  C   UNL     1     -10.963   9.725  67.005  1.00  0.00    -0.059 A  
HETATM   17  C   UNL     1      -9.690   9.167  66.938  1.00  0.00    -0.254 A  
HETATM   18  C   UNL     1      -8.573   9.960  67.197  1.00  0.00    -0.125 A  
HETATM   19  C   UNL     1      -8.727  11.313  67.516  1.00  0.00    -0.138 A  
ENDBRANCH  12  14
ENDBRANCH   9  12
ENDBRANCH   4   6
ENDBRANCH   2   4
TORSDOF 4
ENDMDL
MODEL      146
REMARK 921   NORMALIZED FREE ENERGY PREDICTED BY IDOCK:   -3.31 KCAL/MOL
REMARK 922        TOTAL FREE ENERGY PREDICTED BY IDOCK:   -4.63 KCAL/MOL
REMARK 923 INTER-LIGAND FREE ENERGY PREDICTED BY IDOCK:   -3.95 KCAL/MOL
REMARK 924 INTRA-LIGAND FREE ENERGY PREDICTED BY IDOCK:   -0.68 KCAL/MOL
REMARK 927      BINDING AFFINITY PREDICTED BY RF-SCORE:    0.00 PKD
ROOT
HETATM    1  C   UNL     1      -6.869   7.120  64.427  1.00  0.00    -0.047 C  
HETATM    2  C   UNL     1      -7.611   6.200  65.396  1.00  0.00    -0.087 C  
HETATM    3  C   UNL     1      -6.959   4.822  65.436  1.00  0.00    -0.062 C  
ENDROOT
BRANCH   2   4
HETATM    4  N   UNL     1      -7.604   6.804  66.727  1.00  0.00    -0.089 NA 
HETATM    5  H   UNL     1      -6.979   6.418  67.436  1.00  0.00     0.000 HD 
BRANCH   4   6
HETATM    6  C   UNL     1      -8.416   7.883  67.069  1.00  0.00    -0.124 A  
HETATM    7  C   UNL     1      -9.761   7.979  66.716  1.00  0.00    -0.305 A  
HETATM    8  C   UNL     1     -10.494   9.152  66.928  1.00  0.00    -0.287 A  
HETATM    9  C   UNL     1      -9.899  10.280  67.498  1.00  0.00    -0.173 A  
HETATM   10  C   UNL     1      -7.833   9.014  67.663  1.00  0.00    -0.101 A  
HETATM   11  C   UNL     1      -8.565  10.192  67.893  1.00  0.00    -0.118 A  
BRANCH   9  12
HETATM   12  N   UNL     1     -10.669  11.454  67.571  1.00  0.00    -0.209 NA 
HETATM   13  H   UNL     1     -11.015  11.673  68.506  1.00  0.00     0.000 HD 
BRANCH  12  14
HETATM   14  C   UNL     1     -11.047  12.379  66.583  1.00  0.00    -0.289 A  
HETATM   15  C   UNL     1     -10.295  12.461  65.401  1.00  0.00    -0.303 A  
HETATM   16  C   UNL     1     -10.685  13.304  64.357  1.00  0.00    -0.432 A  
HETATM   17  C   UNL     1     -11.841  14.069  64.479  1.00  0.00    -0.452 A  
HETATM   18  C   UNL     1     -12.592  14.007  65.651  1.00  0.00    -0.542 A  
HETATM   19  C   UNL     1     -12.191  13.174  66.702  1.00  0.00    -0.331 A  
ENDBRANCH  12  14
ENDBRANCH   9  12
ENDBRANCH   4   6
ENDBRANCH   2   4
TORSDOF 4
ENDMDL
MODEL      147
REMARK 921   NORMALIZED FREE ENERGY PREDICTED BY IDOCK:   -3.30 KCAL/MOL
REMARK 922        TOTAL FREE ENERGY PREDICTED BY IDOCK:   -4.62 KCAL/MOL
REMARK 923 INTER-LIGAND FREE ENERGY PREDICTED BY IDOCK:   -4.12 KCAL/MOL
REMARK 924 INTRA-LIGAND FREE ENERGY PREDICTED BY IDOCK:   -0.50 KCAL/MOL
REMARK 927      BINDING AFFINITY PREDICTED BY RF-SCORE:    0.00 PKD
ROOT
HETATM    1  C   UNL     1      -7.116   9.878  67.440  1.00  0.00    -0.085 C  
HETATM    2  C   UNL     1      -8.100  10.963  67.003  1.00  0.00    -0.131 C  
HETATM    3  C   UNL     1      -9.507  10.391  66.868  1.00  0.00    -0.196 C  
ENDROOT
BRANCH   2   4
HETATM    4  N   UNL     1      -8.084  12.046  67.984  1.00  0.00    -0.143 NA 
HETATM    5  H   UNL     1      -8.029  11.807  68.975  1.00  0.00     0.000 HD 
BRANCH   4   6
HETATM    6  C   UNL     1      -8.140  13.390  67.624  1.00  0.00    -0.175 A  
HETATM    7  C   UNL     1      -9.126  13.926  66.795  1.00  0.00    -0.238 A  
HETATM    8  C   UNL     1      -9.050  15.239  66.320  1.00  0.00    -0.337 A  
HETATM    9  C   UNL     1      -7.974  16.066  66.654  1.00  0.00    -0.256 A  
HETATM   10  C   UNL     1      -7.075  14.236  67.974  1.00  0.00    -0.145 A  
HETATM   11  C   UNL     1      -6.998  15.562  67.511  1.00  0.00    -0.223 A  
BRANCH   9  12
HETATM   12  N   UNL     1      -7.912  17.331  66.043  1.00  0.00    -0.513 NA 
HETATM   13  H   UNL     1      -8.272  17.355  65.088  1.00  0.00     0.000 HD 
BRANCH  12  14
HETATM   14  C   UNL     1      -7.443  18.568  66.516  1.00  0.00    -0.242 A  
HETATM   15  C   UNL     1      -6.611  19.342  65.694  1.00  0.00    -0.276 A  
HETATM   16  C   UNL     1      -6.192  20.615  66.088  1.00  0.00    -0.267 A  
HETATM   17  C   UNL     1      -6.611  21.135  67.309  1.00  0.00    -0.429 A  
HETATM   18  C   UNL     1      -7.428  20.374  68.142  1.00  0.00    -0.166 A  
HETATM   19  C   UNL     1      -7.834  19.092  67.752  1.00  0.00    -0.295 A  
ENDBRANCH  12  14
ENDBRANCH   9  12
ENDBRANCH   4   6
ENDBRANCH   2   4
TORSDOF 4
ENDMDL
MODEL      148
REMARK 921   NORMALIZED FREE ENERGY PREDICTED BY IDOCK:   -3.29 KCAL/MOL
REMARK 922        TOTAL FREE ENERGY PREDICTED BY IDOCK:   -4.61 KCAL/MOL
REMARK 923 INTER-LIGAND FREE ENERGY PREDICTED BY IDOCK:   -4.11 KCAL/MOL
REMARK 924 INTRA-LIGAND FREE ENERGY PREDICTED BY IDOCK:   -0.50 KCAL/MOL
REMARK 927      BINDING AFFINITY PREDICTED BY RF-SCORE:    0.00 PKD
ROOT
HETATM    1  C   UNL     1      -7.676   4.929  63.417  1.00  0.00    -0.072 C  
HETATM    2  C   UNL     1      -8.262   5.024  64.825  1.00  0.00    -0.130 C  
HETATM    3  C   UNL     1      -7.812   3.841  65.677  1.00  0.00    -0.093 C  
ENDROOT
BRANCH   2   4
HETATM    4  N   UNL     1      -7.835   6.281  65.436  1.00  0.00    -0.098 NA 
HETATM    5  H   UNL     1      -6.836   6.467  65.526  1.00  0.00     0.000 HD 
BRANCH   4   6
HETATM    6  C   UNL     1      -8.736   7.237  65.901  1.00  0.00    -0.131 A  
HETATM    7  C   UNL     1      -8.594   8.605  65.672  1.00  0.00    -0.191 A  
HETATM    8  C   UNL     1      -9.423   9.543  66.298  1.00  0.00    -0.267 A  
HETATM    9  C   UNL     1     -10.424   9.141  67.185  1.00  0.00    -0.255 A  
HETATM   10  C   UNL     1      -9.760   6.841  66.776  1.00  0.00    -0.222 A  
HETATM   11  C   UNL     1     -10.606   7.776  67.398  1.00  0.00    -0.345 A  
BRANCH   9  12
HETATM   12  N   UNL     1     -11.136  10.148  67.861  1.00  0.00    -0.432 NA 
HETATM   13  H   UNL     1     -11.682   9.815  68.657  1.00  0.00     0.000 HD 
BRANCH  12  14
HETATM   14  C   UNL     1     -11.229  11.531  67.634  1.00  0.00    -0.281 A  
HETATM   15  C   UNL     1     -10.691  12.417  68.580  1.00  0.00    -0.260 A  
HETATM   16  C   UNL     1     -10.684  13.795  68.354  1.00  0.00    -0.266 A  
HETATM   17  C   UNL     1     -11.206  14.306  67.170  1.00  0.00    -0.333 A  
HETATM   18  C   UNL     1     -11.755  13.440  66.225  1.00  0.00    -0.405 A  
HETATM   19  C   UNL     1     -11.776  12.061  66.461  1.00  0.00    -0.330 A  
ENDBRANCH  12  14
ENDBRANCH   9  12
ENDBRANCH   4   6
ENDBRANCH   2   4
TORSDOF 4
ENDMDL
MODEL      149
REMARK 921   NORMALIZED FREE ENERGY PREDICTED BY IDOCK:   -3.28 KCAL/MOL
REMARK 922        TOTAL FREE ENERGY PREDICTED BY IDOCK:   -4.59 KCAL/MOL
REMARK 923 INTER-LIGAND FREE ENERGY PREDICTED BY IDOCK:   -4.13 KCAL/MOL
REMARK 924 INTRA-LIGAND FREE ENERGY PREDICTED BY IDOCK:   -0.47 KCAL/MOL
REMARK 927      BINDING AFFINITY PREDICTED BY RF-SCORE:    0.00 PKD
ROOT
HETATM    1  C   UNL     1     -10.156   8.411  72.373  1.00  0.00    -0.386 C  
HETATM    2  C   UNL     1     -11.536   7.909  72.797  1.00  0.00    -0.368 C  
HETATM    3  C   UNL     1     -12.623   8.883  72.357  1.00  0.00    -0.423 C  
ENDROOT
BRANCH   2   4
HETATM    4  N   UNL     1     -11.766   6.590  72.207  1.00  0.00    -0.376 NA 
HETATM    5  H   UNL     1     -12.418   5.956  72.669  1.00  0.00     0.000 HD 
BRANCH   4   6
HETATM    6  C   UNL     1     -11.131   6.165  71.043  1.00  0.00    -0.297 A  
HETATM    7  C   UNL     1     -11.468   6.623  69.770  1.00  0.00    -0.388 A  
HETATM    8  C   UNL     1     -10.926   6.046  68.616  1.00  0.00    -0.361 A  
HETATM    9  C   UNL     1     -10.028   4.980  68.697  1.00  0.00    -0.144 A  
HETATM   10  C   UNL     1     -10.209   5.108  71.116  1.00  0.00    -0.291 A  
HETATM   11  C   UNL     1      -9.649   4.532  69.961  1.00  0.00    -0.267 A  
BRANCH   9  12
HETATM   12  N   UNL     1      -9.620   4.380  67.492  1.00  0.00    -0.169 NA 
HETATM   13  H   UNL     1      -9.820   3.382  67.430  1.00  0.00     0.000 HD 
BRANCH  12  14
HETATM   14  C   UNL     1      -8.984   4.915  66.358  1.00  0.00    -0.117 A  
HETATM   15  C   UNL     1      -7.987   5.887  66.528  1.00  0.00    -0.102 A  
HETATM   16  C   UNL     1      -7.270   6.382  65.436  1.00  0.00    -0.070 A  
HETATM   17  C   UNL     1      -7.534   5.900  64.158  1.00  0.00    -0.074 A  
HETATM   18  C   UNL     1      -8.529   4.942  63.971  1.00  0.00    -0.137 A  
HETATM   19  C   UNL     1      -9.257   4.459  65.064  1.00  0.00    -0.157 A  
ENDBRANCH  12  14
ENDBRANCH   9  12
ENDBRANCH   4   6
ENDBRANCH   2   4
TORSDOF 4
ENDMDL
MODEL      150
REMARK 921   NORMALIZED FREE ENERGY PREDICTED BY IDOCK:   -3.27 KCAL/MOL
REMARK 922        TOTAL FREE ENERGY PREDICTED BY IDOCK:   -4.59 KCAL/MOL
REMARK 923 INTER-LIGAND FREE ENERGY PREDICTED BY IDOCK:   -4.00 KCAL/MOL
REMARK 924 INTRA-LIGAND FREE ENERGY PREDICTED BY IDOCK:   -0.59 KCAL/MOL
REMARK 927      BINDING AFFINITY PREDICTED BY RF-SCORE:    0.00 PKD
ROOT
HETATM    1  C   UNL     1      -8.089   6.380  64.034  1.00  0.00    -0.043 C  
HETATM    2  C   UNL     1      -8.513   5.868  65.410  1.00  0.00    -0.153 C  
HETATM    3  C   UNL     1      -7.987   4.456  65.646  1.00  0.00    -0.095 C  
ENDROOT
BRANCH   2   4
HETATM    4  N   UNL     1      -8.004   6.777  66.436  1.00  0.00    -0.104 NA 
HETATM    5  H   UNL     1      -7.087   6.590  66.843  1.00  0.00     0.000 HD 
BRANCH   4   6
HETATM    6  C   UNL     1      -8.719   7.887  66.880  1.00  0.00    -0.131 A  
HETATM    7  C   UNL     1     -10.111   7.962  66.870  1.00  0.00    -0.362 A  
HETATM    8  C   UNL     1     -10.783   9.154  67.162  1.00  0.00    -0.213 A  
HETATM    9  C   UNL     1     -10.081  10.321  67.470  1.00  0.00    -0.198 A  
HETATM   10  C   UNL     1      -8.021   9.059  67.214  1.00  0.00    -0.099 A  
HETATM   11  C   UNL     1      -8.689  10.257  67.522  1.00  0.00    -0.125 A  
BRANCH   9  12
HETATM   12  N   UNL     1     -10.824  11.503  67.637  1.00  0.00    -0.213 NA 
HETATM   13  H   UNL     1     -11.016  12.005  66.769  1.00  0.00     0.000 HD 
BRANCH  12  14
HETATM   14  C   UNL     1     -11.349  12.115  68.788  1.00  0.00    -0.288 A  
HETATM   15  C   UNL     1     -11.398  13.515  68.855  1.00  0.00    -0.332 A  
HETATM   16  C   UNL     1     -11.991  14.163  69.942  1.00  0.00    -0.398 A  
HETATM   17  C   UNL     1     -12.553  13.415  70.972  1.00  0.00    -0.425 A  
HETATM   18  C   UNL     1     -12.502  12.023  70.925  1.00  0.00    -0.384 A  
HETATM   19  C   UNL     1     -11.894  11.376  69.843  1.00  0.00    -0.435 A  
ENDBRANCH  12  14
ENDBRANCH   9  12
ENDBRANCH   4   6
ENDBRANCH   2   4
TORSDOF 4
ENDMDL
MODEL      151
REMARK 921   NORMALIZED FREE ENERGY PREDICTED BY IDOCK:   -3.25 KCAL/MOL
REMARK 922        TOTAL FREE ENERGY PREDICTED BY IDOCK:   -4.56 KCAL/MOL
REMARK 923 INTER-LIGAND FREE ENERGY PREDICTED BY IDOCK:   -4.07 KCAL/MOL
REMARK 924 INTRA-LIGAND FREE ENERGY PREDICTED BY IDOCK:   -0.50 KCAL/MOL
REMARK 927      BINDING AFFINITY PREDICTED BY RF-SCORE:    0.00 PKD
ROOT
HETATM    1  C   UNL     1     -10.441   8.625  72.109  1.00  0.00    -0.411 C  
HETATM    2  C   UNL     1     -11.844   8.851  71.549  1.00  0.00    -0.332 C  
HETATM    3  C   UNL     1     -11.951  10.229  70.903  1.00  0.00    -0.473 C  
ENDROOT
BRANCH   2   4
HETATM    4  N   UNL     1     -12.142   7.807  70.570  1.00  0.00    -0.492 NA 
HETATM    5  H   UNL     1     -13.112   7.516  70.446  1.00  0.00     0.000 HD 
BRANCH   4   6
HETATM    6  C   UNL     1     -11.157   7.192  69.801  1.00  0.00    -0.210 A  
HETATM    7  C   UNL     1     -10.522   7.810  68.724  1.00  0.00    -0.201 A  
HETATM    8  C   UNL     1      -9.665   7.103  67.874  1.00  0.00    -0.156 A  
HETATM    9  C   UNL     1      -9.418   5.743  68.069  1.00  0.00    -0.110 A  
HETATM   10  C   UNL     1     -10.884   5.830  70.003  1.00  0.00    -0.403 A  
HETATM   11  C   UNL     1     -10.013   5.116  69.162  1.00  0.00    -0.273 A  
BRANCH   9  12
HETATM   12  N   UNL     1      -8.639   5.079  67.105  1.00  0.00    -0.106 NA 
HETATM   13  H   UNL     1      -7.634   5.115  67.278  1.00  0.00     0.000 HD 
BRANCH  12  14
HETATM   14  C   UNL     1      -9.001   4.374  65.944  1.00  0.00    -0.124 A  
HETATM   15  C   UNL     1      -8.103   3.442  65.403  1.00  0.00    -0.090 A  
HETATM   16  C   UNL     1      -8.456   2.658  64.302  1.00  0.00    -0.086 A  
HETATM   17  C   UNL     1      -9.719   2.789  63.734  1.00  0.00    -0.134 A  
HETATM   18  C   UNL     1     -10.618   3.719  64.253  1.00  0.00    -0.241 A  
HETATM   19  C   UNL     1     -10.257   4.515  65.346  1.00  0.00    -0.224 A  
ENDBRANCH  12  14
ENDBRANCH   9  12
ENDBRANCH   4   6
ENDBRANCH   2   4
TORSDOF 4
ENDMDL
MODEL      152
REMARK 921   NORMALIZED FREE ENERGY PREDICTED BY IDOCK:   -3.21 KCAL/MOL
REMARK 922        TOTAL FREE ENERGY PREDICTED BY IDOCK:   -4.51 KCAL/MOL
REMARK 923 INTER-LIGAND FREE ENERGY PREDICTED BY IDOCK:   -3.94 KCAL/MOL
REMARK 924 INTRA-LIGAND FREE ENERGY PREDICTED BY IDOCK:   -0.58 KCAL/MOL
REMARK 927      BINDING AFFINITY PREDICTED BY RF-SCORE:    0.00 PKD
ROOT
HETATM    1  C   UNL     1      -8.540  10.540  64.274  1.00  0.00    -0.156 C  
HETATM    2  C   UNL     1      -8.933   9.335  65.127  1.00  0.00    -0.209 C  
HETATM    3  C   UNL     1      -8.178   8.088  64.678  1.00  0.00    -0.109 C  
ENDROOT
BRANCH   2   4
HETATM    4  N   UNL     1      -8.643   9.627  66.530  1.00  0.00    -0.126 NA 
HETATM    5  H   UNL     1      -8.118   8.941  67.073  1.00  0.00     0.000 HD 
BRANCH   4   6
HETATM    6  C   UNL     1      -9.054  10.802  67.154  1.00  0.00    -0.144 A  
HETATM    7  C   UNL     1     -10.390  11.179  67.286  1.00  0.00    -0.243 A  
HETATM    8  C   UNL     1     -10.752  12.443  67.765  1.00  0.00    -0.247 A  
HETATM    9  C   UNL     1      -9.783  13.382  68.125  1.00  0.00    -0.226 A  
HETATM   10  C   UNL     1      -8.087  11.744  67.541  1.00  0.00    -0.152 A  
HETATM   11  C   UNL     1      -8.442  13.011  68.036  1.00  0.00    -0.181 A  
BRANCH   9  12
HETATM   12  N   UNL     1     -10.225  14.667  68.485  1.00  0.00    -0.233 NA 
HETATM   13  H   UNL     1     -10.568  14.740  69.444  1.00  0.00     0.000 HD 
BRANCH  12  14
HETATM   14  C   UNL     1     -10.278  15.868  67.758  1.00  0.00    -0.260 A  
HETATM   15  C   UNL     1     -10.369  15.817  66.359  1.00  0.00    -0.306 A  
HETATM   16  C   UNL     1     -10.511  16.983  65.604  1.00  0.00    -0.229 A  
HETATM   17  C   UNL     1     -10.575  18.218  66.241  1.00  0.00    -0.320 A  
HETATM   18  C   UNL     1     -10.475  18.287  67.630  1.00  0.00    -0.431 A  
HETATM   19  C   UNL     1     -10.317  17.119  68.383  1.00  0.00    -0.362 A  
ENDBRANCH  12  14
ENDBRANCH   9  12
ENDBRANCH   4   6
ENDBRANCH   2   4
TORSDOF 4
ENDMDL
MODEL      153
REMARK 921   NORMALIZED FREE ENERGY PREDICTED BY IDOCK:   -3.20 KCAL/MOL
REMARK 922        TOTAL FREE ENERGY PREDICTED BY IDOCK:   -4.50 KCAL/MOL
REMARK 923 INTER-LIGAND FREE ENERGY PREDICTED BY IDOCK:   -3.93 KCAL/MOL
REMARK 924 INTRA-LIGAND FREE ENERGY PREDICTED BY IDOCK:   -0.57 KCAL/MOL
REMARK 927      BINDING AFFINITY PREDICTED BY RF-SCORE:    0.00 PKD
ROOT
HETATM    1  C   UNL     1     -12.264  14.464  67.155  1.00  0.00    -0.257 C  
HETATM    2  C   UNL     1     -11.714  14.337  68.575  1.00  0.00    -0.341 C  
HETATM    3  C   UNL     1     -11.891  15.644  69.341  1.00  0.00    -0.391 C  
ENDROOT
BRANCH   2   4
HETATM    4  N   UNL     1     -12.408  13.248  69.261  1.00  0.00    -0.124 NA 
HETATM    5  H   UNL     1     -13.379  13.388  69.541  1.00  0.00     0.000 HD 
BRANCH   4   6
HETATM    6  C   UNL     1     -11.799  12.029  69.549  1.00  0.00    -0.326 A  
HETATM    7  C   UNL     1     -12.277  11.134  70.505  1.00  0.00    -0.475 A  
HETATM    8  C   UNL     1     -11.544  10.005  70.884  1.00  0.00    -0.463 A  
HETATM    9  C   UNL     1     -10.295   9.733  70.320  1.00  0.00    -0.291 A  
HETATM   10  C   UNL     1     -10.554  11.735  68.969  1.00  0.00    -0.172 A  
HETATM   11  C   UNL     1      -9.817  10.594  69.334  1.00  0.00    -0.164 A  
BRANCH   9  12
HETATM   12  N   UNL     1      -9.571   8.644  70.837  1.00  0.00    -0.187 NA 
HETATM   13  H   UNL     1      -8.791   8.342  70.252  1.00  0.00     0.000 HD 
BRANCH  12  14
HETATM   14  C   UNL     1      -9.732   7.899  72.017  1.00  0.00    -0.187 A  
HETATM   15  C   UNL     1     -10.173   6.570  71.932  1.00  0.00    -0.214 A  
HETATM   16  C   UNL     1     -10.264   5.766  73.071  1.00  0.00    -0.209 A  
HETATM   17  C   UNL     1      -9.903   6.281  74.312  1.00  0.00    -0.297 A  
HETATM   18  C   UNL     1      -9.475   7.603  74.416  1.00  0.00     0.312 A  
HETATM   19  C   UNL     1      -9.399   8.411  73.276  1.00  0.00    -0.145 A  
ENDBRANCH  12  14
ENDBRANCH   9  12
ENDBRANCH   4   6
ENDBRANCH   2   4
TORSDOF 4
ENDMDL
MODEL      154
REMARK 921   NORMALIZED FREE ENERGY PREDICTED BY IDOCK:   -3.16 KCAL/MOL
REMARK 922        TOTAL FREE ENERGY PREDICTED BY IDOCK:   -4.45 KCAL/MOL
REMARK 923 INTER-LIGAND FREE ENERGY PREDICTED BY IDOCK:   -4.00 KCAL/MOL
REMARK 924 INTRA-LIGAND FREE ENERGY PREDICTED BY IDOCK:   -0.45 KCAL/MOL
REMARK 927      BINDING AFFINITY PREDICTED BY RF-SCORE:    0.00 PKD
ROOT
HETATM    1  C   UNL     1     -10.406  13.087  68.397  1.00  0.00    -0.257 C  
HETATM    2  C   UNL     1     -11.615  12.683  67.554  1.00  0.00    -0.359 C  
HETATM    3  C   UNL     1     -11.196  12.385  66.119  1.00  0.00    -0.364 C  
ENDROOT
BRANCH   2   4
HETATM    4  N   UNL     1     -12.244  11.507  68.155  1.00  0.00    -0.499 NA 
HETATM    5  H   UNL     1     -13.261  11.432  68.130  1.00  0.00     0.000 HD 
BRANCH   4   6
HETATM    6  C   UNL     1     -11.512  10.487  68.758  1.00  0.00    -0.224 A  
HETATM    7  C   UNL     1     -10.784   9.535  68.046  1.00  0.00    -0.266 A  
HETATM    8  C   UNL     1     -10.205   8.430  68.680  1.00  0.00    -0.220 A  
HETATM    9  C   UNL     1     -10.343   8.234  70.056  1.00  0.00    -0.212 A  
HETATM   10  C   UNL     1     -11.625  10.295  70.145  1.00  0.00    -0.376 A  
HETATM   11  C   UNL     1     -11.035   9.194  70.791  1.00  0.00    -0.332 A  
BRANCH   9  12
HETATM   12  N   UNL     1      -9.833   7.041  70.597  1.00  0.00    -0.183 NA 
HETATM   13  H   UNL     1     -10.103   6.199  70.087  1.00  0.00     0.000 HD 
BRANCH  12  14
HETATM   14  C   UNL     1      -9.017   6.803  71.716  1.00  0.00    -0.139 A  
HETATM   15  C   UNL     1      -9.611   6.671  72.979  1.00  0.00    -0.162 A  
HETATM   16  C   UNL     1      -8.848   6.349  74.104  1.00  0.00    -0.155 A  
HETATM   17  C   UNL     1      -7.478   6.144  73.976  1.00  0.00    -0.087 A  
HETATM   18  C   UNL     1      -6.870   6.283  72.729  1.00  0.00    -0.074 A  
HETATM   19  C   UNL     1      -7.634   6.621  71.607  1.00  0.00    -0.093 A  
ENDBRANCH  12  14
ENDBRANCH   9  12
ENDBRANCH   4   6
ENDBRANCH   2   4
TORSDOF 4
ENDMDL
MODEL      155
REMARK 921   NORMALIZED FREE ENERGY PREDICTED BY IDOCK:   -3.15 KCAL/MOL
REMARK 922        TOTAL FREE ENERGY PREDICTED BY IDOCK:   -4.44 KCAL/MOL
REMARK 923 INTER-LIGAND FREE ENERGY PREDICTED BY IDOCK:   -3.84 KCAL/MOL
REMARK 924 INTRA-LIGAND FREE ENERGY PREDICTED BY IDOCK:   -0.60 KCAL/MOL
REMARK 927      BINDING AFFINITY PREDICTED BY RF-SCORE:    0.00 PKD
ROOT
HETATM    1  C   UNL     1      -9.886   8.505  72.300  1.00  0.00    -0.383 C  
HETATM    2  C   UNL     1     -10.976   8.524  71.229  1.00  0.00    -0.256 C  
HETATM    3  C   UNL     1     -11.847   9.768  71.369  1.00  0.00    -0.488 C  
ENDROOT
BRANCH   2   4
HETATM    4  N   UNL     1     -10.349   8.489  69.909  1.00  0.00    -0.205 NA 
HETATM    5  H   UNL     1      -9.771   9.279  69.621  1.00  0.00     0.000 HD 
BRANCH   4   6
HETATM    6  C   UNL     1     -10.508   7.422  69.028  1.00  0.00    -0.210 A  
HETATM    7  C   UNL     1     -10.264   6.093  69.374  1.00  0.00    -0.248 A  
HETATM    8  C   UNL     1     -10.269   5.073  68.416  1.00  0.00    -0.143 A  
HETATM    9  C   UNL     1     -10.513   5.350  67.069  1.00  0.00    -0.257 A  
HETATM   10  C   UNL     1     -10.776   7.688  67.675  1.00  0.00    -0.246 A  
HETATM   11  C   UNL     1     -10.797   6.667  66.709  1.00  0.00    -0.322 A  
BRANCH   9  12
HETATM   12  N   UNL     1     -10.386   4.291  66.154  1.00  0.00    -0.430 NA 
HETATM   13  H   UNL     1     -11.124   3.588  66.219  1.00  0.00     0.000 HD 
BRANCH  12  14
HETATM   14  C   UNL     1      -9.422   4.028  65.166  1.00  0.00    -0.172 A  
HETATM   15  C   UNL     1      -9.845   3.705  63.868  1.00  0.00    -0.174 A  
HETATM   16  C   UNL     1      -8.922   3.522  62.835  1.00  0.00    -0.094 A  
HETATM   17  C   UNL     1      -7.562   3.671  63.086  1.00  0.00    -0.055 A  
HETATM   18  C   UNL     1      -7.125   3.982  64.373  1.00  0.00    -0.054 A  
HETATM   19  C   UNL     1      -8.050   4.149  65.410  1.00  0.00    -0.101 A  
ENDBRANCH  12  14
ENDBRANCH   9  12
ENDBRANCH   4   6
ENDBRANCH   2   4
TORSDOF 4
ENDMDL
MODEL      156
REMARK 921   NORMALIZED FREE ENERGY PREDICTED BY IDOCK:   -3.12 KCAL/MOL
REMARK 922        TOTAL FREE ENERGY PREDICTED BY IDOCK:   -4.39 KCAL/MOL
REMARK 923 INTER-LIGAND FREE ENERGY PREDICTED BY IDOCK:   -4.12 KCAL/MOL
REMARK 924 INTRA-LIGAND FREE ENERGY PREDICTED BY IDOCK:   -0.28 KCAL/MOL
REMARK 927      BINDING AFFINITY PREDICTED BY RF-SCORE:    0.00 PKD
ROOT
HETATM    1  C   UNL     1      -7.994   3.625  65.792  1.00  0.00    -0.093 C  
HETATM    2  C   UNL     1      -9.321   3.249  66.451  1.00  0.00    -0.124 C  
HETATM    3  C   UNL     1      -9.135   3.024  67.948  1.00  0.00    -0.225 C  
ENDROOT
BRANCH   2   4
HETATM    4  N   UNL     1     -10.291   4.317  66.215  1.00  0.00    -0.404 NA 
HETATM    5  H   UNL     1     -11.053   4.148  65.557  1.00  0.00     0.000 HD 
BRANCH   4   6
HETATM    6  C   UNL     1     -10.218   5.555  66.849  1.00  0.00    -0.233 A  
HETATM    7  C   UNL     1      -9.340   6.568  66.465  1.00  0.00    -0.188 A  
HETATM    8  C   UNL     1      -9.178   7.727  67.231  1.00  0.00    -0.162 A  
HETATM    9  C   UNL     1      -9.888   7.911  68.419  1.00  0.00    -0.173 A  
HETATM   10  C   UNL     1     -10.946   5.759  68.032  1.00  0.00    -0.145 A  
HETATM   11  C   UNL     1     -10.798   6.927  68.801  1.00  0.00    -0.238 A  
BRANCH   9  12
HETATM   12  N   UNL     1      -9.582   9.047  69.190  1.00  0.00    -0.159 NA 
HETATM   13  H   UNL     1      -8.655   9.029  69.616  1.00  0.00     0.000 HD 
BRANCH  12  14
HETATM   14  C   UNL     1     -10.329  10.202  69.476  1.00  0.00    -0.240 A  
HETATM   15  C   UNL     1     -10.185  11.330  68.654  1.00  0.00    -0.214 A  
HETATM   16  C   UNL     1     -10.971  12.469  68.850  1.00  0.00    -0.272 A  
HETATM   17  C   UNL     1     -11.920  12.489  69.867  1.00  0.00    -0.371 A  
HETATM   18  C   UNL     1     -12.067  11.381  70.699  1.00  0.00    -0.469 A  
HETATM   19  C   UNL     1     -11.269  10.247  70.511  1.00  0.00    -0.408 A  
ENDBRANCH  12  14
ENDBRANCH   9  12
ENDBRANCH   4   6
ENDBRANCH   2   4
TORSDOF 4
ENDMDL
MODEL      157
REMARK 921   NORMALIZED FREE ENERGY PREDICTED BY IDOCK:   -3.09 KCAL/MOL
REMARK 922        TOTAL FREE ENERGY PREDICTED BY IDOCK:   -4.37 KCAL/MOL
REMARK 923 INTER-LIGAND FREE ENERGY PREDICTED BY IDOCK:   -3.87 KCAL/MOL
REMARK 924 INTRA-LIGAND FREE ENERGY PREDICTED BY IDOCK:   -0.50 KCAL/MOL
REMARK 927      BINDING AFFINITY PREDICTED BY RF-SCORE:    0.00 PKD
ROOT
HETATM    1  C   UNL     1     -10.628  11.345  66.597  1.00  0.00    -0.302 C  
HETATM    2  C   UNL     1     -10.761   9.833  66.771  1.00  0.00    -0.073 C  
HETATM    3  C   UNL     1      -9.596   9.109  66.103  1.00  0.00    -0.333 C  
ENDROOT
BRANCH   2   4
HETATM    4  N   UNL     1     -10.804   9.517  68.198  1.00  0.00    -0.430 NA 
HETATM    5  H   UNL     1     -11.215  10.199  68.836  1.00  0.00     0.000 HD 
BRANCH   4   6
HETATM    6  C   UNL     1     -10.308   8.326  68.722  1.00  0.00    -0.205 A  
HETATM    7  C   UNL     1     -11.031   7.134  68.746  1.00  0.00    -0.094 A  
HETATM    8  C   UNL     1     -10.565   6.008  69.433  1.00  0.00    -0.365 A  
HETATM    9  C   UNL     1      -9.354   6.038  70.129  1.00  0.00    -0.154 A  
HETATM   10  C   UNL     1      -9.081   8.340  69.404  1.00  0.00    -0.154 A  
HETATM   11  C   UNL     1      -8.599   7.208  70.085  1.00  0.00    -0.140 A  
BRANCH   9  12
HETATM   12  N   UNL     1      -9.013   4.905  70.889  1.00  0.00    -0.129 NA 
HETATM   13  H   UNL     1      -8.048   4.594  70.770  1.00  0.00     0.000 HD 
BRANCH  12  14
HETATM   14  C   UNL     1      -9.766   4.125  71.782  1.00  0.00    -0.175 A  
HETATM   15  C   UNL     1      -9.752   2.728  71.650  1.00  0.00    -0.226 A  
HETATM   16  C   UNL     1     -10.416   1.911  72.568  1.00  0.00    -0.222 A  
HETATM   17  C   UNL     1     -11.096   2.482  73.639  1.00  0.00    -0.318 A  
HETATM   18  C   UNL     1     -11.130   3.869  73.778  1.00  0.00    -0.291 A  
HETATM   19  C   UNL     1     -10.477   4.686  72.848  1.00  0.00    -0.254 A  
ENDBRANCH  12  14
ENDBRANCH   9  12
ENDBRANCH   4   6
ENDBRANCH   2   4
TORSDOF 4
ENDMDL
MODEL      158
REMARK 921   NORMALIZED FREE ENERGY PREDICTED BY IDOCK:   -3.07 KCAL/MOL
REMARK 922        TOTAL FREE ENERGY PREDICTED BY IDOCK:   -4.34 KCAL/MOL
REMARK 923 INTER-LIGAND FREE ENERGY PREDICTED BY IDOCK:   -3.86 KCAL/MOL
REMARK 924 INTRA-LIGAND FREE ENERGY PREDICTED BY IDOCK:   -0.49 KCAL/MOL
REMARK 927      BINDING AFFINITY PREDICTED BY RF-SCORE:    0.00 PKD
ROOT
HETATM    1  C   UNL     1      -6.837   9.364  67.339  1.00  0.00    -0.080 C  
HETATM    2  C   UNL     1      -7.526  10.727  67.415  1.00  0.00    -0.098 C  
HETATM    3  C   UNL     1      -8.716  10.677  68.366  1.00  0.00    -0.141 C  
ENDROOT
BRANCH   2   4
HETATM    4  N   UNL     1      -6.559  11.727  67.863  1.00  0.00    -0.064 NA 
HETATM    5  H   UNL     1      -5.586  11.444  67.990  1.00  0.00     0.000 HD 
BRANCH   4   6
HETATM    6  C   UNL     1      -6.909  13.049  68.126  1.00  0.00    -0.104 A  
HETATM    7  C   UNL     1      -6.565  13.720  69.299  1.00  0.00    -0.113 A  
HETATM    8  C   UNL     1      -7.080  14.986  69.598  1.00  0.00    -0.193 A  
HETATM    9  C   UNL     1      -7.969  15.626  68.730  1.00  0.00    -0.172 A  
HETATM   10  C   UNL     1      -7.784  13.710  67.249  1.00  0.00    -0.091 A  
HETATM   11  C   UNL     1      -8.295  14.988  67.535  1.00  0.00    -0.192 A  
BRANCH   9  12
HETATM   12  N   UNL     1      -8.531  16.842  69.157  1.00  0.00    -0.153 NA 
HETATM   13  H   UNL     1      -8.731  16.885  70.157  1.00  0.00     0.000 HD 
BRANCH  12  14
HETATM   14  C   UNL     1      -8.866  18.008  68.448  1.00  0.00    -0.292 A  
HETATM   15  C   UNL     1     -10.172  18.512  68.541  1.00  0.00    -0.389 A  
HETATM   16  C   UNL     1     -10.525  19.715  67.924  1.00  0.00    -0.556 A  
HETATM   17  C   UNL     1      -9.570  20.436  67.214  1.00  0.00    -0.592 A  
HETATM   18  C   UNL     1      -8.271  19.943  67.103  1.00  0.00    -0.351 A  
HETATM   19  C   UNL     1      -7.924  18.730  67.709  1.00  0.00    -0.275 A  
ENDBRANCH  12  14
ENDBRANCH   9  12
ENDBRANCH   4   6
ENDBRANCH   2   4
TORSDOF 4
ENDMDL
MODEL      159
REMARK 921   NORMALIZED FREE ENERGY PREDICTED BY IDOCK:   -3.04 KCAL/MOL
REMARK 922        TOTAL FREE ENERGY PREDICTED BY IDOCK:   -4.31 KCAL/MOL
REMARK 923 INTER-LIGAND FREE ENERGY PREDICTED BY IDOCK:   -3.98 KCAL/MOL
REMARK 924 INTRA-LIGAND FREE ENERGY PREDICTED BY IDOCK:   -0.32 KCAL/MOL
REMARK 927      BINDING AFFINITY PREDICTED BY RF-SCORE:    0.00 PKD
ROOT
HETATM    1  C   UNL     1      -8.030  10.627  65.764  1.00  0.00    -0.152 C  
HETATM    2  C   UNL     1      -9.512  10.553  66.129  1.00  0.00    -0.180 C  
HETATM    3  C   UNL     1      -9.966   9.102  66.248  1.00  0.00    -0.352 C  
ENDROOT
BRANCH   2   4
HETATM    4  N   UNL     1      -9.729  11.258  67.392  1.00  0.00    -0.173 NA 
HETATM    5  H   UNL     1     -10.066  12.221  67.362  1.00  0.00     0.000 HD 
BRANCH   4   6
HETATM    6  C   UNL     1      -9.494  10.670  68.632  1.00  0.00    -0.176 A  
HETATM    7  C   UNL     1      -8.221  10.377  69.119  1.00  0.00    -0.157 A  
HETATM    8  C   UNL     1      -8.036   9.634  70.289  1.00  0.00    -0.198 A  
HETATM    9  C   UNL     1      -9.126   9.149  71.015  1.00  0.00    -0.237 A  
HETATM   10  C   UNL     1     -10.585  10.199  69.381  1.00  0.00    -0.261 A  
HETATM   11  C   UNL     1     -10.408   9.463  70.566  1.00  0.00    -0.341 A  
BRANCH   9  12
HETATM   12  N   UNL     1      -8.856   8.313  72.113  1.00  0.00    -0.182 NA 
HETATM   13  H   UNL     1      -7.999   8.544  72.617  1.00  0.00     0.000 HD 
BRANCH  12  14
HETATM   14  C   UNL     1      -9.559   7.216  72.639  1.00  0.00    -0.148 A  
HETATM   15  C   UNL     1      -9.978   6.194  71.774  1.00  0.00    -0.197 A  
HETATM   16  C   UNL     1     -10.602   5.045  72.266  1.00  0.00    -0.269 A  
HETATM   17  C   UNL     1     -10.806   4.899  73.634  1.00  0.00    -0.374 A  
HETATM   18  C   UNL     1     -10.406   5.910  74.506  1.00  0.00    -0.238 A  
HETATM   19  C   UNL     1      -9.794   7.067  74.010  1.00  0.00    -0.345 A  
ENDBRANCH  12  14
ENDBRANCH   9  12
ENDBRANCH   4   6
ENDBRANCH   2   4
TORSDOF 4
ENDMDL
MODEL      160
REMARK 921   NORMALIZED FREE ENERGY PREDICTED BY IDOCK:   -3.02 KCAL/MOL
REMARK 922        TOTAL FREE ENERGY PREDICTED BY IDOCK:   -4.27 KCAL/MOL
REMARK 923 INTER-LIGAND FREE ENERGY PREDICTED BY IDOCK:   -3.85 KCAL/MOL
REMARK 924 INTRA-LIGAND FREE ENERGY PREDICTED BY IDOCK:   -0.43 KCAL/MOL
REMARK 927      BINDING AFFINITY PREDICTED BY RF-SCORE:    0.00 PKD
ROOT
HETATM    1  C   UNL     1      -7.130  14.974  69.917  1.00  0.00    -0.121 C  
HETATM    2  C   UNL     1      -5.836  14.181  70.097  1.00  0.00    -0.141 C  
HETATM    3  C   UNL     1      -5.131  14.585  71.387  1.00  0.00    -0.142 C  
ENDROOT
BRANCH   2   4
HETATM    4  N   UNL     1      -6.150  12.753  70.115  1.00  0.00    -0.293 NA 
HETATM    5  H   UNL     1      -5.813  12.189  70.896  1.00  0.00     0.000 HD 
BRANCH   4   6
HETATM    6  C   UNL     1      -6.888  12.132  69.111  1.00  0.00    -0.078 A  
HETATM    7  C   UNL     1      -6.895  12.557  67.783  1.00  0.00    -0.120 A  
HETATM    8  C   UNL     1      -7.778  12.014  66.844  1.00  0.00    -0.078 A  
HETATM    9  C   UNL     1      -8.696  11.025  67.205  1.00  0.00    -0.135 A  
HETATM   10  C   UNL     1      -7.797  11.120  69.459  1.00  0.00     0.160 A  
HETATM   11  C   UNL     1      -8.679  10.560  68.518  1.00  0.00    -0.140 A  
BRANCH   9  12
HETATM   12  N   UNL     1      -9.626  10.616  66.233  1.00  0.00    -0.179 NA 
HETATM   13  H   UNL     1      -9.676   9.605  66.098  1.00  0.00     0.000 HD 
BRANCH  12  14
HETATM   14  C   UNL     1     -10.500  11.352  65.415  1.00  0.00    -0.280 A  
HETATM   15  C   UNL     1     -11.520  12.108  66.011  1.00  0.00    -0.427 A  
HETATM   16  C   UNL     1     -12.355  12.923  65.243  1.00  0.00    -0.544 A  
HETATM   17  C   UNL     1     -12.172  13.000  63.866  1.00  0.00    -0.511 A  
HETATM   18  C   UNL     1     -11.170  12.246  63.257  1.00  0.00    -0.399 A  
HETATM   19  C   UNL     1     -10.345  11.419  64.026  1.00  0.00    -0.418 A  
ENDBRANCH  12  14
ENDBRANCH   9  12
ENDBRANCH   4   6
ENDBRANCH   2   4
TORSDOF 4
ENDMDL
MODEL      161
REMARK 921   NORMALIZED FREE ENERGY PREDICTED BY IDOCK:   -3.01 KCAL/MOL
REMARK 922        TOTAL FREE ENERGY PREDICTED BY IDOCK:   -4.27 KCAL/MOL
REMARK 923 INTER-LIGAND FREE ENERGY PREDICTED BY IDOCK:   -4.28 KCAL/MOL
REMARK 924 INTRA-LIGAND FREE ENERGY PREDICTED BY IDOCK:    0.01 KCAL/MOL
REMARK 927      BINDING AFFINITY PREDICTED BY RF-SCORE:    0.00 PKD
ROOT
HETATM    1  C   UNL     1      -5.687  17.470  66.610  1.00  0.00    -0.225 C  
HETATM    2  C   UNL     1      -5.986  18.765  65.856  1.00  0.00    -0.180 C  
HETATM    3  C   UNL     1      -5.677  18.608  64.371  1.00  0.00    -0.137 C  
ENDROOT
BRANCH   2   4
HETATM    4  N   UNL     1      -7.392  19.116  66.048  1.00  0.00    -0.270 NA 
HETATM    5  H   UNL     1      -7.714  20.032  65.735  1.00  0.00     0.000 HD 
BRANCH   4   6
HETATM    6  C   UNL     1      -8.309  18.252  66.641  1.00  0.00    -0.264 A  
HETATM    7  C   UNL     1      -8.827  18.438  67.923  1.00  0.00    -0.293 A  
HETATM    8  C   UNL     1      -9.611  17.461  68.546  1.00  0.00    -0.298 A  
HETATM    9  C   UNL     1      -9.900  16.253  67.907  1.00  0.00    -0.237 A  
HETATM   10  C   UNL     1      -8.625  17.045  65.997  1.00  0.00    -0.164 A  
HETATM   11  C   UNL     1      -9.424  16.064  66.611  1.00  0.00    -0.259 A  
BRANCH   9  12
HETATM   12  N   UNL     1     -10.594  15.278  68.644  1.00  0.00    -0.230 NA 
HETATM   13  H   UNL     1     -10.481  14.325  68.294  1.00  0.00     0.000 HD 
BRANCH  12  14
HETATM   14  C   UNL     1     -11.417  15.382  69.778  1.00  0.00    -0.324 A  
HETATM   15  C   UNL     1     -12.793  15.142  69.649  1.00  0.00     0.144 A  
HETATM   16  C   UNL     1     -13.634  15.150  70.765  1.00  0.00    -0.299 A  
HETATM   17  C   UNL     1     -13.105  15.388  72.029  1.00  0.00    -0.501 A  
HETATM   18  C   UNL     1     -11.741  15.641  72.173  1.00  0.00    -0.576 A  
HETATM   19  C   UNL     1     -10.904  15.648  71.052  1.00  0.00    -0.168 A  
ENDBRANCH  12  14
ENDBRANCH   9  12
ENDBRANCH   4   6
ENDBRANCH   2   4
TORSDOF 4
ENDMDL
MODEL      162
REMARK 921   NORMALIZED FREE ENERGY PREDICTED BY IDOCK:   -3.01 KCAL/MOL
REMARK 922        TOTAL FREE ENERGY PREDICTED BY IDOCK:   -4.26 KCAL/MOL
REMARK 923 INTER-LIGAND FREE ENERGY PREDICTED BY IDOCK:   -3.82 KCAL/MOL
REMARK 924 INTRA-LIGAND FREE ENERGY PREDICTED BY IDOCK:   -0.43 KCAL/MOL
REMARK 927      BINDING AFFINITY PREDICTED BY RF-SCORE:    0.00 PKD
ROOT
HETATM    1  C   UNL     1     -10.778  15.048  65.814  1.00  0.00    -0.351 C  
HETATM    2  C   UNL     1      -9.432  14.511  66.301  1.00  0.00    -0.283 C  
HETATM    3  C   UNL     1      -9.199  14.885  67.761  1.00  0.00    -0.186 C  
ENDROOT
BRANCH   2   4
HETATM    4  N   UNL     1      -9.411  13.058  66.139  1.00  0.00    -0.430 NA 
HETATM    5  H   UNL     1      -9.468  12.671  65.197  1.00  0.00     0.000 HD 
BRANCH   4   6
HETATM    6  C   UNL     1      -9.317  12.181  67.217  1.00  0.00    -0.183 A  
HETATM    7  C   UNL     1      -8.106  11.728  67.740  1.00  0.00    -0.143 A  
HETATM    8  C   UNL     1      -8.057  10.719  68.708  1.00  0.00    -0.143 A  
HETATM    9  C   UNL     1      -9.225  10.119  69.184  1.00  0.00    -0.197 A  
HETATM   10  C   UNL     1     -10.488  11.589  67.719  1.00  0.00    -0.216 A  
HETATM   11  C   UNL     1     -10.447  10.584  68.702  1.00  0.00    -0.211 A  
BRANCH   9  12
HETATM   12  N   UNL     1      -9.085   9.035  70.068  1.00  0.00    -0.163 NA 
HETATM   13  H   UNL     1      -8.465   9.214  70.859  1.00  0.00     0.000 HD 
BRANCH  12  14
HETATM   14  C   UNL     1      -9.648   7.747  70.054  1.00  0.00    -0.161 A  
HETATM   15  C   UNL     1      -9.114   6.777  69.193  1.00  0.00    -0.138 A  
HETATM   16  C   UNL     1      -9.586   5.462  69.209  1.00  0.00    -0.198 A  
HETATM   17  C   UNL     1     -10.594   5.098  70.096  1.00  0.00    -0.225 A  
HETATM   18  C   UNL     1     -11.143   6.054  70.950  1.00  0.00    -0.352 A  
HETATM   19  C   UNL     1     -10.680   7.374  70.922  1.00  0.00    -0.248 A  
ENDBRANCH  12  14
ENDBRANCH   9  12
ENDBRANCH   4   6
ENDBRANCH   2   4
TORSDOF 4
ENDMDL
MODEL      163
REMARK 921   NORMALIZED FREE ENERGY PREDICTED BY IDOCK:   -2.97 KCAL/MOL
REMARK 922        TOTAL FREE ENERGY PREDICTED BY IDOCK:   -4.22 KCAL/MOL
REMARK 923 INTER-LIGAND FREE ENERGY PREDICTED BY IDOCK:   -3.78 KCAL/MOL
REMARK 924 INTRA-LIGAND FREE ENERGY PREDICTED BY IDOCK:   -0.43 KCAL/MOL
REMARK 927      BINDING AFFINITY PREDICTED BY RF-SCORE:    0.00 PKD
ROOT
HETATM    1  C   UNL     1     -12.284  15.420  71.778  1.00  0.00    -0.450 C  
HETATM    2  C   UNL     1     -12.386  14.718  70.423  1.00  0.00    -0.344 C  
HETATM    3  C   UNL     1     -12.206  15.716  69.285  1.00  0.00    -0.167 C  
ENDROOT
BRANCH   2   4
HETATM    4  N   UNL     1     -11.367  13.673  70.349  1.00  0.00    -0.471 NA 
HETATM    5  H   UNL     1     -10.872  13.411  71.203  1.00  0.00     0.000 HD 
BRANCH   4   6
HETATM    6  C   UNL     1     -11.042  13.020  69.163  1.00  0.00    -0.192 A  
HETATM    7  C   UNL     1     -11.723  11.899  68.688  1.00  0.00    -0.380 A  
HETATM    8  C   UNL     1     -11.260  11.173  67.586  1.00  0.00    -0.364 A  
HETATM    9  C   UNL     1     -10.089  11.541  66.920  1.00  0.00    -0.212 A  
HETATM   10  C   UNL     1      -9.879  13.397  68.472  1.00  0.00    -0.178 A  
HETATM   11  C   UNL     1      -9.415  12.680  67.355  1.00  0.00    -0.189 A  
BRANCH   9  12
HETATM   12  N   UNL     1      -9.629  10.693  65.897  1.00  0.00    -0.195 NA 
HETATM   13  H   UNL     1     -10.063  10.857  64.987  1.00  0.00     0.000 HD 
BRANCH  12  14
HETATM   14  C   UNL     1      -8.676   9.660  65.905  1.00  0.00    -0.144 A  
HETATM   15  C   UNL     1      -7.375   9.934  66.350  1.00  0.00    -0.101 A  
HETATM   16  C   UNL     1      -6.421   8.919  66.457  1.00  0.00    -0.063 A  
HETATM   17  C   UNL     1      -6.763   7.611  66.129  1.00  0.00    -0.053 A  
HETATM   18  C   UNL     1      -8.049   7.324  65.673  1.00  0.00    -0.133 A  
HETATM   19  C   UNL     1      -8.997   8.345  65.552  1.00  0.00    -0.149 A  
ENDBRANCH  12  14
ENDBRANCH   9  12
ENDBRANCH   4   6
ENDBRANCH   2   4
TORSDOF 4
ENDMDL
MODEL      164
REMARK 921   NORMALIZED FREE ENERGY PREDICTED BY IDOCK:   -2.96 KCAL/MOL
REMARK 922        TOTAL FREE ENERGY PREDICTED BY IDOCK:   -4.20 KCAL/MOL
REMARK 923 INTER-LIGAND FREE ENERGY PREDICTED BY IDOCK:   -3.92 KCAL/MOL
REMARK 924 INTRA-LIGAND FREE ENERGY PREDICTED BY IDOCK:   -0.28 KCAL/MOL
REMARK 927      BINDING AFFINITY PREDICTED BY RF-SCORE:    0.00 PKD
ROOT
HETATM    1  C   UNL     1      -8.780  17.659  66.576  1.00  0.00    -0.289 C  
HETATM    2  C   UNL     1      -9.271  18.264  67.891  1.00  0.00    -0.276 C  
HETATM    3  C   UNL     1     -10.538  19.084  67.667  1.00  0.00    -0.526 C  
ENDROOT
BRANCH   2   4
HETATM    4  N   UNL     1      -9.525  17.187  68.846  1.00  0.00    -0.248 NA 
HETATM    5  H   UNL     1      -9.607  17.422  69.836  1.00  0.00     0.000 HD 
BRANCH   4   6
HETATM    6  C   UNL     1      -9.661  15.856  68.462  1.00  0.00    -0.205 A  
HETATM    7  C   UNL     1     -10.891  15.211  68.334  1.00  0.00    -0.255 A  
HETATM    8  C   UNL     1     -10.976  13.832  68.113  1.00  0.00    -0.265 A  
HETATM    9  C   UNL     1      -9.827  13.044  68.020  1.00  0.00    -0.224 A  
HETATM   10  C   UNL     1      -8.510  15.060  68.343  1.00  0.00    -0.153 A  
HETATM   11  C   UNL     1      -8.588  13.675  68.108  1.00  0.00    -0.176 A  
BRANCH   9  12
HETATM   12  N   UNL     1      -9.999  11.653  67.915  1.00  0.00    -0.178 NA 
HETATM   13  H   UNL     1     -10.206  11.324  66.971  1.00  0.00     0.000 HD 
BRANCH  12  14
HETATM   14  C   UNL     1      -9.937  10.634  68.881  1.00  0.00    -0.204 A  
HETATM   15  C   UNL     1      -8.759  10.468  69.624  1.00  0.00     0.029 A  
HETATM   16  C   UNL     1      -8.684   9.526  70.653  1.00  0.00    -0.189 A  
HETATM   17  C   UNL     1      -9.793   8.744  70.959  1.00  0.00    -0.293 A  
HETATM   18  C   UNL     1     -10.968   8.889  70.222  1.00  0.00    -0.266 A  
HETATM   19  C   UNL     1     -11.036   9.822  69.182  1.00  0.00    -0.205 A  
ENDBRANCH  12  14
ENDBRANCH   9  12
ENDBRANCH   4   6
ENDBRANCH   2   4
TORSDOF 4
ENDMDL
MODEL      165
REMARK 921   NORMALIZED FREE ENERGY PREDICTED BY IDOCK:   -2.93 KCAL/MOL
REMARK 922        TOTAL FREE ENERGY PREDICTED BY IDOCK:   -4.16 KCAL/MOL
REMARK 923 INTER-LIGAND FREE ENERGY PREDICTED BY IDOCK:   -3.74 KCAL/MOL
REMARK 924 INTRA-LIGAND FREE ENERGY PREDICTED BY IDOCK:   -0.42 KCAL/MOL
REMARK 927      BINDING AFFINITY PREDICTED BY RF-SCORE:    0.00 PKD
ROOT
HETATM    1  C   UNL     1      -9.341  10.337  63.540  1.00  0.00    -0.341 C  
HETATM    2  C   UNL     1      -8.295   9.632  64.402  1.00  0.00    -0.168 C  
HETATM    3  C   UNL     1      -8.032  10.418  65.682  1.00  0.00    -0.153 C  
ENDROOT
BRANCH   2   4
HETATM    4  N   UNL     1      -8.767   8.286  64.720  1.00  0.00    -0.404 NA 
HETATM    5  H   UNL     1      -9.008   7.658  63.952  1.00  0.00     0.000 HD 
BRANCH   4   6
HETATM    6  C   UNL     1      -8.902   7.824  66.027  1.00  0.00    -0.157 A  
HETATM    7  C   UNL     1      -7.955   7.021  66.663  1.00  0.00    -0.108 A  
HETATM    8  C   UNL     1      -8.206   6.439  67.910  1.00  0.00    -0.115 A  
HETATM    9  C   UNL     1      -9.424   6.636  68.565  1.00  0.00    -0.123 A  
HETATM   10  C   UNL     1     -10.114   8.035  66.704  1.00  0.00    -0.329 A  
HETATM   11  C   UNL     1     -10.368   7.465  67.964  1.00  0.00    -0.247 A  
BRANCH   9  12
HETATM   12  N   UNL     1      -9.643   5.924  69.758  1.00  0.00    -0.150 NA 
HETATM   13  H   UNL     1      -9.760   4.917  69.631  1.00  0.00     0.000 HD 
BRANCH  12  14
HETATM   14  C   UNL     1      -9.728   6.353  71.093  1.00  0.00    -0.175 A  
HETATM   15  C   UNL     1      -8.550   6.499  71.841  1.00  0.00    -0.129 A  
HETATM   16  C   UNL     1      -8.582   7.006  73.142  1.00  0.00    -0.142 A  
HETATM   17  C   UNL     1      -9.795   7.383  73.710  1.00  0.00    -0.331 A  
HETATM   18  C   UNL     1     -10.976   7.233  72.984  1.00  0.00    -0.388 A  
HETATM   19  C   UNL     1     -10.943   6.711  71.686  1.00  0.00    -0.280 A  
ENDBRANCH  12  14
ENDBRANCH   9  12
ENDBRANCH   4   6
ENDBRANCH   2   4
TORSDOF 4
ENDMDL
MODEL      166
REMARK 921   NORMALIZED FREE ENERGY PREDICTED BY IDOCK:   -2.87 KCAL/MOL
REMARK 922        TOTAL FREE ENERGY PREDICTED BY IDOCK:   -4.09 KCAL/MOL
REMARK 923 INTER-LIGAND FREE ENERGY PREDICTED BY IDOCK:   -3.75 KCAL/MOL
REMARK 924 INTRA-LIGAND FREE ENERGY PREDICTED BY IDOCK:   -0.35 KCAL/MOL
REMARK 927      BINDING AFFINITY PREDICTED BY RF-SCORE:    0.00 PKD
ROOT
HETATM    1  C   UNL     1     -10.468   7.494  73.241  1.00  0.00    -0.426 C  
HETATM    2  C   UNL     1     -10.067   6.029  73.409  1.00  0.00    -0.198 C  
HETATM    3  C   UNL     1     -11.296   5.127  73.374  1.00  0.00    -0.297 C  
ENDROOT
BRANCH   2   4
HETATM    4  N   UNL     1      -9.137   5.663  72.343  1.00  0.00    -0.141 NA 
HETATM    5  H   UNL     1      -8.601   4.799  72.437  1.00  0.00     0.000 HD 
BRANCH   4   6
HETATM    6  C   UNL     1      -8.950   6.444  71.205  1.00  0.00    -0.146 A  
HETATM    7  C   UNL     1      -8.049   7.506  71.138  1.00  0.00    -0.100 A  
HETATM    8  C   UNL     1      -8.015   8.370  70.038  1.00  0.00    -0.109 A  
HETATM    9  C   UNL     1      -8.891   8.205  68.964  1.00  0.00    -0.144 A  
HETATM   10  C   UNL     1      -9.811   6.271  70.110  1.00  0.00    -0.201 A  
HETATM   11  C   UNL     1      -9.774   7.126  68.995  1.00  0.00    -0.150 A  
BRANCH   9  12
HETATM   12  N   UNL     1      -8.873   9.182  67.953  1.00  0.00    -0.128 NA 
HETATM   13  H   UNL     1      -8.128   9.062  67.265  1.00  0.00     0.000 HD 
BRANCH  12  14
HETATM   14  C   UNL     1      -9.700  10.295  67.722  1.00  0.00    -0.156 A  
HETATM   15  C   UNL     1     -10.102  10.587  66.411  1.00  0.00    -0.285 A  
HETATM   16  C   UNL     1     -10.992  11.631  66.147  1.00  0.00    -0.339 A  
HETATM   17  C   UNL     1     -11.501  12.390  67.196  1.00  0.00    -0.423 A  
HETATM   18  C   UNL     1     -11.102  12.120  68.504  1.00  0.00    -0.295 A  
HETATM   19  C   UNL     1     -10.198  11.084  68.764  1.00  0.00    -0.211 A  
ENDBRANCH  12  14
ENDBRANCH   9  12
ENDBRANCH   4   6
ENDBRANCH   2   4
TORSDOF 4
ENDMDL
MODEL      167
REMARK 921   NORMALIZED FREE ENERGY PREDICTED BY IDOCK:   -2.87 KCAL/MOL
REMARK 922        TOTAL FREE ENERGY PREDICTED BY IDOCK:   -4.09 KCAL/MOL
REMARK 923 INTER-LIGAND FREE ENERGY PREDICTED BY IDOCK:   -3.88 KCAL/MOL
REMARK 924 INTRA-LIGAND FREE ENERGY PREDICTED BY IDOCK:   -0.22 KCAL/MOL
REMARK 927      BINDING AFFINITY PREDICTED BY RF-SCORE:    0.00 PKD
ROOT
HETATM    1  C   UNL     1      -7.820   2.949  66.188  1.00  0.00    -0.081 C  
HETATM    2  C   UNL     1      -9.258   2.784  66.677  1.00  0.00    -0.094 C  
HETATM    3  C   UNL     1      -9.338   2.970  68.188  1.00  0.00    -0.254 C  
ENDROOT
BRANCH   2   4
HETATM    4  N   UNL     1     -10.108   3.761  65.999  1.00  0.00    -0.420 NA 
HETATM    5  H   UNL     1     -10.843   3.421  65.377  1.00  0.00     0.000 HD 
BRANCH   4   6
HETATM    6  C   UNL     1      -9.957   5.135  66.166  1.00  0.00    -0.194 A  
HETATM    7  C   UNL     1      -9.009   5.896  65.483  1.00  0.00    -0.062 A  
HETATM    8  C   UNL     1      -8.776   7.237  65.804  1.00  0.00    -0.129 A  
HETATM    9  C   UNL     1      -9.482   7.866  66.831  1.00  0.00    -0.191 A  
HETATM   10  C   UNL     1     -10.680   5.783  67.181  1.00  0.00    -0.358 A  
HETATM   11  C   UNL     1     -10.461   7.134  67.501  1.00  0.00    -0.331 A  
BRANCH   9  12
HETATM   12  N   UNL     1      -9.108   9.179  67.169  1.00  0.00    -0.125 NA 
HETATM   13  H   UNL     1      -8.242   9.244  67.707  1.00  0.00     0.000 HD 
BRANCH  12  14
HETATM   14  C   UNL     1      -9.714  10.417  66.897  1.00  0.00    -0.181 A  
HETATM   15  C   UNL     1      -9.118  11.280  65.965  1.00  0.00    -0.221 A  
HETATM   16  C   UNL     1      -9.732  12.481  65.601  1.00  0.00    -0.169 A  
HETATM   17  C   UNL     1     -10.959  12.828  66.156  1.00  0.00    -0.310 A  
HETATM   18  C   UNL     1     -11.559  11.987  67.092  1.00  0.00    -0.387 A  
HETATM   19  C   UNL     1     -10.935  10.792  67.468  1.00  0.00    -0.372 A  
ENDBRANCH  12  14
ENDBRANCH   9  12
ENDBRANCH   4   6
ENDBRANCH   2   4
TORSDOF 4
ENDMDL
MODEL      168
REMARK 921   NORMALIZED FREE ENERGY PREDICTED BY IDOCK:   -2.85 KCAL/MOL
REMARK 922        TOTAL FREE ENERGY PREDICTED BY IDOCK:   -4.07 KCAL/MOL
REMARK 923 INTER-LIGAND FREE ENERGY PREDICTED BY IDOCK:   -3.58 KCAL/MOL
REMARK 924 INTRA-LIGAND FREE ENERGY PREDICTED BY IDOCK:   -0.49 KCAL/MOL
REMARK 927      BINDING AFFINITY PREDICTED BY RF-SCORE:    0.00 PKD
ROOT
HETATM    1  C   UNL     1      -8.076   5.863  65.679  1.00  0.00    -0.124 C  
HETATM    2  C   UNL     1      -8.029   7.054  66.636  1.00  0.00    -0.108 C  
HETATM    3  C   UNL     1      -6.977   6.835  67.718  1.00  0.00    -0.083 C  
ENDROOT
BRANCH   2   4
HETATM    4  N   UNL     1      -7.731   8.266  65.875  1.00  0.00    -0.084 NA 
HETATM    5  H   UNL     1      -7.040   8.215  65.126  1.00  0.00     0.000 HD 
BRANCH   4   6
HETATM    6  C   UNL     1      -8.349   9.488  66.132  1.00  0.00    -0.115 A  
HETATM    7  C   UNL     1      -9.176  10.140  65.218  1.00  0.00    -0.257 A  
HETATM    8  C   UNL     1      -9.638  11.441  65.445  1.00  0.00    -0.255 A  
HETATM    9  C   UNL     1      -9.281  12.141  66.600  1.00  0.00    -0.206 A  
HETATM   10  C   UNL     1      -8.015  10.190  67.301  1.00  0.00    -0.110 A  
HETATM   11  C   UNL     1      -8.486  11.492  67.544  1.00  0.00    -0.143 A  
BRANCH   9  12
HETATM   12  N   UNL     1      -9.690  13.482  66.700  1.00  0.00    -0.272 NA 
HETATM   13  H   UNL     1      -9.361  14.080  65.940  1.00  0.00     0.000 HD 
BRANCH  12  14
HETATM   14  C   UNL     1     -10.471  14.146  67.661  1.00  0.00    -0.245 A  
HETATM   15  C   UNL     1     -10.356  15.538  67.793  1.00  0.00    -0.263 A  
HETATM   16  C   UNL     1     -11.176  16.247  68.674  1.00  0.00    -0.354 A  
HETATM   17  C   UNL     1     -12.131  15.573  69.428  1.00  0.00    -0.302 A  
HETATM   18  C   UNL     1     -12.250  14.188  69.317  1.00  0.00    -0.308 A  
HETATM   19  C   UNL     1     -11.417  13.477  68.445  1.00  0.00    -0.346 A  
ENDBRANCH  12  14
ENDBRANCH   9  12
ENDBRANCH   4   6
ENDBRANCH   2   4
TORSDOF 4
ENDMDL
MODEL      169
REMARK 921   NORMALIZED FREE ENERGY PREDICTED BY IDOCK:   -2.81 KCAL/MOL
REMARK 922        TOTAL FREE ENERGY PREDICTED BY IDOCK:   -4.02 KCAL/MOL
REMARK 923 INTER-LIGAND FREE ENERGY PREDICTED BY IDOCK:   -3.46 KCAL/MOL
REMARK 924 INTRA-LIGAND FREE ENERGY PREDICTED BY IDOCK:   -0.56 KCAL/MOL
REMARK 927      BINDING AFFINITY PREDICTED BY RF-SCORE:    0.00 PKD
ROOT
HETATM    1  C   UNL     1     -11.886  13.741  68.492  1.00  0.00    -0.406 C  
HETATM    2  C   UNL     1     -11.098  12.441  68.653  1.00  0.00    -0.257 C  
HETATM    3  C   UNL     1     -12.035  11.277  68.956  1.00  0.00    -0.393 C  
ENDROOT
BRANCH   2   4
HETATM    4  N   UNL     1     -10.347  12.182  67.426  1.00  0.00    -0.204 NA 
HETATM    5  H   UNL     1     -10.292  12.919  66.722  1.00  0.00     0.000 HD 
BRANCH   4   6
HETATM    6  C   UNL     1      -9.703  10.972  67.177  1.00  0.00    -0.174 A  
HETATM    7  C   UNL     1     -10.109  10.071  66.193  1.00  0.00    -0.317 A  
HETATM    8  C   UNL     1      -9.544   8.795  66.090  1.00  0.00    -0.323 A  
HETATM    9  C   UNL     1      -8.552   8.372  66.977  1.00  0.00    -0.122 A  
HETATM   10  C   UNL     1      -8.689  10.547  68.050  1.00  0.00    -0.128 A  
HETATM   11  C   UNL     1      -8.106   9.272  67.944  1.00  0.00    -0.104 A  
BRANCH   9  12
HETATM   12  N   UNL     1      -8.120   7.038  66.881  1.00  0.00    -0.115 NA 
HETATM   13  H   UNL     1      -7.361   6.889  66.214  1.00  0.00     0.000 HD 
BRANCH  12  14
HETATM   14  C   UNL     1      -8.548   5.873  67.540  1.00  0.00    -0.102 A  
HETATM   15  C   UNL     1      -8.988   4.780  66.779  1.00  0.00    -0.111 A  
HETATM   16  C   UNL     1      -9.340   3.573  67.389  1.00  0.00    -0.246 A  
HETATM   17  C   UNL     1      -9.245   3.441  68.771  1.00  0.00    -0.229 A  
HETATM   18  C   UNL     1      -8.821   4.522  69.542  1.00  0.00    -0.129 A  
HETATM   19  C   UNL     1      -8.484   5.735  68.930  1.00  0.00    -0.104 A  
ENDBRANCH  12  14
ENDBRANCH   9  12
ENDBRANCH   4   6
ENDBRANCH   2   4
TORSDOF 4
ENDMDL
MODEL      170
REMARK 921   NORMALIZED FREE ENERGY PREDICTED BY IDOCK:   -2.73 KCAL/MOL
REMARK 922        TOTAL FREE ENERGY PREDICTED BY IDOCK:   -3.91 KCAL/MOL
REMARK 923 INTER-LIGAND FREE ENERGY PREDICTED BY IDOCK:   -3.74 KCAL/MOL
REMARK 924 INTRA-LIGAND FREE ENERGY PREDICTED BY IDOCK:   -0.17 KCAL/MOL
REMARK 927      BINDING AFFINITY PREDICTED BY RF-SCORE:    0.00 PKD
ROOT
HETATM    1  C   UNL     1      -9.772  10.831  63.640  1.00  0.00    -0.376 C  
HETATM    2  C   UNL     1      -8.546   9.926  63.524  1.00  0.00    -0.199 C  
HETATM    3  C   UNL     1      -7.273  10.756  63.408  1.00  0.00     0.283 C  
ENDROOT
BRANCH   2   4
HETATM    4  N   UNL     1      -8.482   9.056  64.697  1.00  0.00    -0.173 NA 
HETATM    5  H   UNL     1      -7.977   8.172  64.623  1.00  0.00     0.000 HD 
BRANCH   4   6
HETATM    6  C   UNL     1      -9.080   9.384  65.912  1.00  0.00    -0.195 A  
HETATM    7  C   UNL     1     -10.246   8.783  66.384  1.00  0.00    -0.256 A  
HETATM    8  C   UNL     1     -10.907   9.258  67.521  1.00  0.00    -0.182 A  
HETATM    9  C   UNL     1     -10.425  10.363  68.226  1.00  0.00    -0.191 A  
HETATM   10  C   UNL     1      -8.589  10.480  66.640  1.00  0.00    -0.133 A  
HETATM   11  C   UNL     1      -9.240  10.955  67.792  1.00  0.00    -0.155 A  
BRANCH   9  12
HETATM   12  N   UNL     1     -11.209  10.850  69.288  1.00  0.00    -0.242 NA 
HETATM   13  H   UNL     1     -11.511  10.135  69.950  1.00  0.00     0.000 HD 
BRANCH  12  14
HETATM   14  C   UNL     1     -11.650  12.148  69.597  1.00  0.00    -0.291 A  
HETATM   15  C   UNL     1     -12.043  12.442  70.911  1.00  0.00    -0.150 A  
HETATM   16  C   UNL     1     -12.405  13.739  71.281  1.00  0.00    -0.394 A  
HETATM   17  C   UNL     1     -12.368  14.764  70.342  1.00  0.00    -0.402 A  
HETATM   18  C   UNL     1     -11.991  14.486  69.029  1.00  0.00    -0.334 A  
HETATM   19  C   UNL     1     -11.643  13.183  68.656  1.00  0.00    -0.356 A  
ENDBRANCH  12  14
ENDBRANCH   9  12
ENDBRANCH   4   6
ENDBRANCH   2   4
TORSDOF 4
ENDMDL
MODEL      171
REMARK 921   NORMALIZED FREE ENERGY PREDICTED BY IDOCK:   -2.70 KCAL/MOL
REMARK 922        TOTAL FREE ENERGY PREDICTED BY IDOCK:   -3.88 KCAL/MOL
REMARK 923 INTER-LIGAND FREE ENERGY PREDICTED BY IDOCK:   -3.39 KCAL/MOL
REMARK 924 INTRA-LIGAND FREE ENERGY PREDICTED BY IDOCK:   -0.49 KCAL/MOL
REMARK 927      BINDING AFFINITY PREDICTED BY RF-SCORE:    0.00 PKD
ROOT
HETATM    1  C   UNL     1      -8.119  12.978  67.970  1.00  0.00    -0.157 C  
HETATM    2  C   UNL     1      -9.287  12.013  68.169  1.00  0.00    -0.199 C  
HETATM    3  C   UNL     1     -10.256  12.091  66.994  1.00  0.00    -0.224 C  
ENDROOT
BRANCH   2   4
HETATM    4  N   UNL     1      -8.767  10.654  68.310  1.00  0.00    -0.129 NA 
HETATM    5  H   UNL     1      -7.891  10.517  68.815  1.00  0.00     0.000 HD 
BRANCH   4   6
HETATM    6  C   UNL     1      -9.416   9.541  67.782  1.00  0.00    -0.131 A  
HETATM    7  C   UNL     1     -10.454   8.874  68.431  1.00  0.00    -0.230 A  
HETATM    8  C   UNL     1     -10.962   7.663  67.949  1.00  0.00     0.011 A  
HETATM    9  C   UNL     1     -10.440   7.069  66.798  1.00  0.00    -0.227 A  
HETATM   10  C   UNL     1      -8.913   8.949  66.612  1.00  0.00    -0.165 A  
HETATM   11  C   UNL     1      -9.427   7.738  66.114  1.00  0.00    -0.135 A  
BRANCH   9  12
HETATM   12  N   UNL     1     -10.924   5.797  66.446  1.00  0.00    -0.740 NA 
HETATM   13  H   UNL     1     -11.940   5.709  66.478  1.00  0.00     0.000 HD 
BRANCH  12  14
HETATM   14  C   UNL     1     -10.254   4.623  66.058  1.00  0.00    -0.277 A  
HETATM   15  C   UNL     1     -10.445   4.125  64.760  1.00  0.00    -0.194 A  
HETATM   16  C   UNL     1      -9.734   3.013  64.305  1.00  0.00    -0.154 A  
HETATM   17  C   UNL     1      -8.812   2.389  65.140  1.00  0.00    -0.120 A  
HETATM   18  C   UNL     1      -8.620   2.865  66.436  1.00  0.00    -0.116 A  
HETATM   19  C   UNL     1      -9.345   3.970  66.896  1.00  0.00    -0.200 A  
ENDBRANCH  12  14
ENDBRANCH   9  12
ENDBRANCH   4   6
ENDBRANCH   2   4
TORSDOF 4
ENDMDL
MODEL      172
REMARK 921   NORMALIZED FREE ENERGY PREDICTED BY IDOCK:   -2.68 KCAL/MOL
REMARK 922        TOTAL FREE ENERGY PREDICTED BY IDOCK:   -3.86 KCAL/MOL
REMARK 923 INTER-LIGAND FREE ENERGY PREDICTED BY IDOCK:   -3.37 KCAL/MOL
REMARK 924 INTRA-LIGAND FREE ENERGY PREDICTED BY IDOCK:   -0.49 KCAL/MOL
REMARK 927      BINDING AFFINITY PREDICTED BY RF-SCORE:    0.00 PKD
ROOT
HETATM    1  C   UNL     1     -11.346  12.160  66.824  1.00  0.00    -0.398 C  
HETATM    2  C   UNL     1     -10.890  13.206  67.840  1.00  0.00    -0.242 C  
HETATM    3  C   UNL     1     -11.974  13.452  68.884  1.00  0.00    -0.362 C  
ENDROOT
BRANCH   2   4
HETATM    4  N   UNL     1      -9.661  12.744  68.482  1.00  0.00    -0.379 NA 
HETATM    5  H   UNL     1      -9.046  13.434  68.914  1.00  0.00     0.000 HD 
BRANCH   4   6
HETATM    6  C   UNL     1      -9.295  11.401  68.530  1.00  0.00    -0.180 A  
HETATM    7  C   UNL     1      -9.790  10.499  69.470  1.00  0.00    -0.170 A  
HETATM    8  C   UNL     1      -9.270   9.206  69.592  1.00  0.00    -0.172 A  
HETATM    9  C   UNL     1      -8.225   8.770  68.775  1.00  0.00    -0.116 A  
HETATM   10  C   UNL     1      -8.260  10.946  67.697  1.00  0.00    -0.116 A  
HETATM   11  C   UNL     1      -7.741   9.644  67.803  1.00  0.00    -0.094 A  
BRANCH   9  12
HETATM   12  N   UNL     1      -7.681   7.500  69.037  1.00  0.00    -0.115 NA 
HETATM   13  H   UNL     1      -6.667   7.447  68.932  1.00  0.00     0.000 HD 
BRANCH  12  14
HETATM   14  C   UNL     1      -8.287   6.291  69.418  1.00  0.00    -0.121 A  
HETATM   15  C   UNL     1      -8.274   5.916  70.769  1.00  0.00    -0.124 A  
HETATM   16  C   UNL     1      -8.939   4.767  71.204  1.00  0.00    -0.167 A  
HETATM   17  C   UNL     1      -9.637   3.983  70.292  1.00  0.00    -0.271 A  
HETATM   18  C   UNL     1      -9.650   4.336  68.943  1.00  0.00    -0.227 A  
HETATM   19  C   UNL     1      -8.970   5.478  68.507  1.00  0.00    -0.114 A  
ENDBRANCH  12  14
ENDBRANCH   9  12
ENDBRANCH   4   6
ENDBRANCH   2   4
TORSDOF 4
ENDMDL
MODEL      173
REMARK 921   NORMALIZED FREE ENERGY PREDICTED BY IDOCK:   -2.66 KCAL/MOL
REMARK 922        TOTAL FREE ENERGY PREDICTED BY IDOCK:   -3.83 KCAL/MOL
REMARK 923 INTER-LIGAND FREE ENERGY PREDICTED BY IDOCK:   -3.35 KCAL/MOL
REMARK 924 INTRA-LIGAND FREE ENERGY PREDICTED BY IDOCK:   -0.48 KCAL/MOL
REMARK 927      BINDING AFFINITY PREDICTED BY RF-SCORE:    0.00 PKD
ROOT
HETATM    1  C   UNL     1      -6.852  18.191  66.706  1.00  0.00    -0.223 C  
HETATM    2  C   UNL     1      -7.549  18.274  68.064  1.00  0.00    -0.250 C  
HETATM    3  C   UNL     1      -7.634  19.720  68.539  1.00  0.00    -0.338 C  
ENDROOT
BRANCH   2   4
HETATM    4  N   UNL     1      -8.887  17.697  67.950  1.00  0.00    -0.241 NA 
HETATM    5  H   UNL     1      -9.688  18.328  67.892  1.00  0.00     0.000 HD 
BRANCH   4   6
HETATM    6  C   UNL     1      -9.115  16.323  67.917  1.00  0.00    -0.196 A  
HETATM    7  C   UNL     1      -8.359  15.399  68.636  1.00  0.00    -0.168 A  
HETATM    8  C   UNL     1      -8.508  14.021  68.444  1.00  0.00    -0.166 A  
HETATM    9  C   UNL     1      -9.421  13.518  67.514  1.00  0.00    -0.222 A  
HETATM   10  C   UNL     1     -10.047  15.808  67.002  1.00  0.00    -0.261 A  
HETATM   11  C   UNL     1     -10.213  14.425  66.813  1.00  0.00    -0.270 A  
BRANCH   9  12
HETATM   12  N   UNL     1      -9.429  12.129  67.297  1.00  0.00    -0.181 NA 
HETATM   13  H   UNL     1     -10.251  11.650  67.666  1.00  0.00     0.000 HD 
BRANCH  12  14
HETATM   14  C   UNL     1      -8.504  11.284  66.661  1.00  0.00    -0.168 A  
HETATM   15  C   UNL     1      -8.972  10.292  65.786  1.00  0.00    -0.185 A  
HETATM   16  C   UNL     1      -8.085   9.488  65.067  1.00  0.00    -0.125 A  
HETATM   17  C   UNL     1      -6.713   9.674  65.206  1.00  0.00    -0.088 A  
HETATM   18  C   UNL     1      -6.231  10.647  66.080  1.00  0.00    -0.134 A  
HETATM   19  C   UNL     1      -7.122  11.441  66.811  1.00  0.00    -0.132 A  
ENDBRANCH  12  14
ENDBRANCH   9  12
ENDBRANCH   4   6
ENDBRANCH   2   4
TORSDOF 4
ENDMDL
MODEL      174
REMARK 921   NORMALIZED FREE ENERGY PREDICTED BY IDOCK:   -2.65 KCAL/MOL
REMARK 922        TOTAL FREE ENERGY PREDICTED BY IDOCK:   -3.82 KCAL/MOL
REMARK 923 INTER-LIGAND FREE ENERGY PREDICTED BY IDOCK:   -3.98 KCAL/MOL
REMARK 924 INTRA-LIGAND FREE ENERGY PREDICTED BY IDOCK:    0.16 KCAL/MOL
REMARK 927      BINDING AFFINITY PREDICTED BY RF-SCORE:    0.00 PKD
ROOT
HETATM    1  C   UNL     1      -7.476   2.529  65.304  1.00  0.00    -0.074 C  
HETATM    2  C   UNL     1      -8.892   2.088  65.673  1.00  0.00    -0.121 C  
HETATM    3  C   UNL     1      -8.968   1.695  67.144  1.00  0.00    -0.142 C  
ENDROOT
BRANCH   2   4
HETATM    4  N   UNL     1      -9.822   3.180  65.389  1.00  0.00    -0.384 NA 
HETATM    5  H   UNL     1     -10.488   3.069  64.624  1.00  0.00     0.000 HD 
BRANCH   4   6
HETATM    6  C   UNL     1      -9.835   4.366  66.120  1.00  0.00    -0.231 A  
HETATM    7  C   UNL     1      -8.796   4.767  66.959  1.00  0.00    -0.107 A  
HETATM    8  C   UNL     1      -8.922   5.875  67.803  1.00  0.00    -0.111 A  
HETATM    9  C   UNL     1     -10.102   6.621  67.844  1.00  0.00    -0.150 A  
HETATM   10  C   UNL     1     -11.010   5.136  66.149  1.00  0.00    -0.042 A  
HETATM   11  C   UNL     1     -11.139   6.259  66.985  1.00  0.00    -0.379 A  
BRANCH   9  12
HETATM   12  N   UNL     1     -10.191   7.647  68.801  1.00  0.00    -0.196 NA 
HETATM   13  H   UNL     1      -9.924   8.569  68.456  1.00  0.00     0.000 HD 
BRANCH  12  14
HETATM   14  C   UNL     1     -10.584   7.625  70.150  1.00  0.00    -0.236 A  
HETATM   15  C   UNL     1      -9.913   8.444  71.071  1.00  0.00    -0.235 A  
HETATM   16  C   UNL     1     -10.327   8.519  72.403  1.00  0.00    -0.372 A  
HETATM   17  C   UNL     1     -11.427   7.782  72.830  1.00  0.00    -0.415 A  
HETATM   18  C   UNL     1     -12.097   6.954  71.930  1.00  0.00    -0.370 A  
HETATM   19  C   UNL     1     -11.671   6.868  70.600  1.00  0.00    -0.417 A  
ENDBRANCH  12  14
ENDBRANCH   9  12
ENDBRANCH   4   6
ENDBRANCH   2   4
TORSDOF 4
ENDMDL
MODEL      175
REMARK 921   NORMALIZED FREE ENERGY PREDICTED BY IDOCK:   -2.64 KCAL/MOL
REMARK 922        TOTAL FREE ENERGY PREDICTED BY IDOCK:   -3.80 KCAL/MOL
REMARK 923 INTER-LIGAND FREE ENERGY PREDICTED BY IDOCK:   -3.37 KCAL/MOL
REMARK 924 INTRA-LIGAND FREE ENERGY PREDICTED BY IDOCK:   -0.43 KCAL/MOL
REMARK 927      BINDING AFFINITY PREDICTED BY RF-SCORE:    0.00 PKD
ROOT
HETATM    1  C   UNL     1     -11.045   8.996  72.202  1.00  0.00    -0.271 C  
HETATM    2  C   UNL     1     -12.378   8.900  71.462  1.00  0.00    -0.324 C  
HETATM    3  C   UNL     1     -12.680  10.201  70.726  1.00  0.00    -0.397 C  
ENDROOT
BRANCH   2   4
HETATM    4  N   UNL     1     -12.323   7.784  70.519  1.00  0.00    -0.471 NA 
HETATM    5  H   UNL     1     -13.199   7.406  70.157  1.00  0.00     0.000 HD 
BRANCH   4   6
HETATM    6  C   UNL     1     -11.124   7.215  70.096  1.00  0.00    -0.272 A  
HETATM    7  C   UNL     1     -10.367   7.712  69.035  1.00  0.00    -0.220 A  
HETATM    8  C   UNL     1      -9.263   7.015  68.533  1.00  0.00    -0.137 A  
HETATM    9  C   UNL     1      -8.880   5.785  69.073  1.00  0.00    -0.111 A  
HETATM   10  C   UNL     1     -10.718   5.990  70.648  1.00  0.00    -0.341 A  
HETATM   11  C   UNL     1      -9.601   5.289  70.158  1.00  0.00    -0.241 A  
BRANCH   9  12
HETATM   12  N   UNL     1      -7.834   5.093  68.438  1.00  0.00    -0.086 NA 
HETATM   13  H   UNL     1      -6.918   5.533  68.535  1.00  0.00     0.000 HD 
BRANCH  12  14
HETATM   14  C   UNL     1      -7.827   3.902  67.692  1.00  0.00    -0.082 A  
HETATM   15  C   UNL     1      -9.043   3.374  67.235  1.00  0.00    -0.200 A  
HETATM   16  C   UNL     1      -9.076   2.241  66.419  1.00  0.00    -0.073 A  
HETATM   17  C   UNL     1      -7.886   1.627  66.039  1.00  0.00    -0.068 A  
HETATM   18  C   UNL     1      -6.670   2.132  66.494  1.00  0.00    -0.039 A  
HETATM   19  C   UNL     1      -6.641   3.258  67.325  1.00  0.00    -0.038 A  
ENDBRANCH  12  14
ENDBRANCH   9  12
ENDBRANCH   4   6
ENDBRANCH   2   4
TORSDOF 4
ENDMDL
MODEL      176
REMARK 921   NORMALIZED FREE ENERGY PREDICTED BY IDOCK:   -2.63 KCAL/MOL
REMARK 922        TOTAL FREE ENERGY PREDICTED BY IDOCK:   -3.80 KCAL/MOL
REMARK 923 INTER-LIGAND FREE ENERGY PREDICTED BY IDOCK:   -3.28 KCAL/MOL
REMARK 924 INTRA-LIGAND FREE ENERGY PREDICTED BY IDOCK:   -0.52 KCAL/MOL
REMARK 927      BINDING AFFINITY PREDICTED BY RF-SCORE:    0.00 PKD
ROOT
HETATM    1  C   UNL     1     -12.006  13.668  68.440  1.00  0.00    -0.391 C  
HETATM    2  C   UNL     1     -11.174  12.488  68.942  1.00  0.00    -0.281 C  
HETATM    3  C   UNL     1     -12.076  11.330  69.355  1.00  0.00    -0.384 C  
ENDROOT
BRANCH   2   4
HETATM    4  N   UNL     1     -10.256  12.066  67.886  1.00  0.00    -0.191 NA 
HETATM    5  H   UNL     1      -9.894  12.771  67.243  1.00  0.00     0.000 HD 
BRANCH   4   6
HETATM    6  C   UNL     1      -9.856  10.742  67.721  1.00  0.00    -0.166 A  
HETATM    7  C   UNL     1      -8.898  10.121  68.520  1.00  0.00    -0.127 A  
HETATM    8  C   UNL     1      -8.401   8.849  68.215  1.00  0.00    -0.125 A  
HETATM    9  C   UNL     1      -8.843   8.154  67.088  1.00  0.00    -0.131 A  
HETATM   10  C   UNL     1     -10.313  10.026  66.603  1.00  0.00    -0.281 A  
HETATM   11  C   UNL     1      -9.829   8.742  66.297  1.00  0.00    -0.342 A  
BRANCH   9  12
HETATM   12  N   UNL     1      -8.212   6.934  66.786  1.00  0.00    -0.112 NA 
HETATM   13  H   UNL     1      -7.264   6.848  67.156  1.00  0.00     0.000 HD 
BRANCH  12  14
HETATM   14  C   UNL     1      -8.655   5.813  66.065  1.00  0.00    -0.139 A  
HETATM   15  C   UNL     1      -9.478   4.872  66.701  1.00  0.00    -0.153 A  
HETATM   16  C   UNL     1     -10.012   3.789  65.998  1.00  0.00    -0.008 A  
HETATM   17  C   UNL     1      -9.735   3.639  64.642  1.00  0.00    -0.179 A  
HETATM   18  C   UNL     1      -8.909   4.559  63.998  1.00  0.00    -0.144 A  
HETATM   19  C   UNL     1      -8.363   5.634  64.708  1.00  0.00    -0.128 A  
ENDBRANCH  12  14
ENDBRANCH   9  12
ENDBRANCH   4   6
ENDBRANCH   2   4
TORSDOF 4
ENDMDL
MODEL      177
REMARK 921   NORMALIZED FREE ENERGY PREDICTED BY IDOCK:   -2.63 KCAL/MOL
REMARK 922        TOTAL FREE ENERGY PREDICTED BY IDOCK:   -3.79 KCAL/MOL
REMARK 923 INTER-LIGAND FREE ENERGY PREDICTED BY IDOCK:   -3.50 KCAL/MOL
REMARK 924 INTRA-LIGAND FREE ENERGY PREDICTED BY IDOCK:   -0.29 KCAL/MOL
REMARK 927      BINDING AFFINITY PREDICTED BY RF-SCORE:    0.00 PKD
ROOT
HETATM    1  C   UNL     1     -11.106  10.658  67.967  1.00  0.00    -0.361 C  
HETATM    2  C   UNL     1     -11.165  11.230  69.383  1.00  0.00    -0.280 C  
HETATM    3  C   UNL     1     -12.589  11.179  69.927  1.00  0.00    -0.171 C  
ENDROOT
BRANCH   2   4
HETATM    4  N   UNL     1     -10.264  10.467  70.245  1.00  0.00    -0.400 NA 
HETATM    5  H   UNL     1      -9.664  10.974  70.896  1.00  0.00     0.000 HD 
BRANCH   4   6
HETATM    6  C   UNL     1     -10.190   9.076  70.213  1.00  0.00    -0.201 A  
HETATM    7  C   UNL     1      -9.204   8.372  69.524  1.00  0.00    -0.154 A  
HETATM    8  C   UNL     1      -9.264   6.982  69.376  1.00  0.00    -0.147 A  
HETATM    9  C   UNL     1     -10.324   6.245  69.908  1.00  0.00    -0.196 A  
HETATM   10  C   UNL     1     -11.240   8.325  70.766  1.00  0.00    -0.284 A  
HETATM   11  C   UNL     1     -11.300   6.926  70.633  1.00  0.00    -0.366 A  
BRANCH   9  12
HETATM   12  N   UNL     1     -10.372   4.870  69.616  1.00  0.00    -0.202 NA 
HETATM   13  H   UNL     1     -11.078   4.611  68.926  1.00  0.00     0.000 HD 
BRANCH  12  14
HETATM   14  C   UNL     1      -9.619   3.790  70.107  1.00  0.00    -0.188 A  
HETATM   15  C   UNL     1      -8.613   3.236  69.301  1.00  0.00    -0.110 A  
HETATM   16  C   UNL     1      -7.784   2.219  69.781  1.00  0.00    -0.046 A  
HETATM   17  C   UNL     1      -7.944   1.751  71.081  1.00  0.00    -0.045 A  
HETATM   18  C   UNL     1      -8.946   2.283  71.891  1.00  0.00    -0.124 A  
HETATM   19  C   UNL     1      -9.785   3.291  71.403  1.00  0.00    -0.226 A  
ENDBRANCH  12  14
ENDBRANCH   9  12
ENDBRANCH   4   6
ENDBRANCH   2   4
TORSDOF 4
ENDMDL
MODEL      178
REMARK 921   NORMALIZED FREE ENERGY PREDICTED BY IDOCK:   -2.59 KCAL/MOL
REMARK 922        TOTAL FREE ENERGY PREDICTED BY IDOCK:   -3.75 KCAL/MOL
REMARK 923 INTER-LIGAND FREE ENERGY PREDICTED BY IDOCK:   -3.42 KCAL/MOL
REMARK 924 INTRA-LIGAND FREE ENERGY PREDICTED BY IDOCK:   -0.34 KCAL/MOL
REMARK 927      BINDING AFFINITY PREDICTED BY RF-SCORE:    0.00 PKD
ROOT
HETATM    1  C   UNL     1     -10.955   6.980  73.409  1.00  0.00    -0.249 C  
HETATM    2  C   UNL     1     -10.459   5.538  73.517  1.00  0.00    -0.253 C  
HETATM    3  C   UNL     1     -11.621   4.558  73.401  1.00  0.00    -0.240 C  
ENDROOT
BRANCH   2   4
HETATM    4  N   UNL     1      -9.478   5.290  72.463  1.00  0.00    -0.145 NA 
HETATM    5  H   UNL     1      -8.715   4.637  72.648  1.00  0.00     0.000 HD 
BRANCH   4   6
HETATM    6  C   UNL     1      -9.540   5.908  71.216  1.00  0.00    -0.168 A  
HETATM    7  C   UNL     1      -8.845   7.075  70.898  1.00  0.00    -0.148 A  
HETATM    8  C   UNL     1      -9.067   7.755  69.696  1.00  0.00    -0.146 A  
HETATM    9  C   UNL     1     -10.003   7.293  68.768  1.00  0.00    -0.166 A  
HETATM   10  C   UNL     1     -10.461   5.437  70.266  1.00  0.00    -0.355 A  
HETATM   11  C   UNL     1     -10.680   6.108  69.050  1.00  0.00    -0.377 A  
BRANCH   9  12
HETATM   12  N   UNL     1     -10.251   8.096  67.640  1.00  0.00    -0.217 NA 
HETATM   13  H   UNL     1     -11.041   8.734  67.744  1.00  0.00     0.000 HD 
BRANCH  12  14
HETATM   14  C   UNL     1      -9.604   8.173  66.395  1.00  0.00    -0.216 A  
HETATM   15  C   UNL     1      -9.481   9.421  65.766  1.00  0.00    -0.325 A  
HETATM   16  C   UNL     1      -8.770   9.558  64.571  1.00  0.00    -0.232 A  
HETATM   17  C   UNL     1      -8.162   8.446  63.995  1.00  0.00    -0.115 A  
HETATM   18  C   UNL     1      -8.284   7.198  64.603  1.00  0.00    -0.027 A  
HETATM   19  C   UNL     1      -9.010   7.060  65.791  1.00  0.00    -0.037 A  
ENDBRANCH  12  14
ENDBRANCH   9  12
ENDBRANCH   4   6
ENDBRANCH   2   4
TORSDOF 4
ENDMDL
MODEL      179
REMARK 921   NORMALIZED FREE ENERGY PREDICTED BY IDOCK:   -2.41 KCAL/MOL
REMARK 922        TOTAL FREE ENERGY PREDICTED BY IDOCK:   -3.52 KCAL/MOL
REMARK 923 INTER-LIGAND FREE ENERGY PREDICTED BY IDOCK:   -3.05 KCAL/MOL
REMARK 924 INTRA-LIGAND FREE ENERGY PREDICTED BY IDOCK:   -0.47 KCAL/MOL
REMARK 927      BINDING AFFINITY PREDICTED BY RF-SCORE:    0.00 PKD
ROOT
HETATM    1  C   UNL     1      -8.920  14.647  66.841  1.00  0.00    -0.275 C  
HETATM    2  C   UNL     1     -10.179  14.132  67.538  1.00  0.00    -0.241 C  
HETATM    3  C   UNL     1     -11.087  13.412  66.546  1.00  0.00    -0.312 C  
ENDROOT
BRANCH   2   4
HETATM    4  N   UNL     1      -9.791  13.228  68.619  1.00  0.00    -0.392 NA 
HETATM    5  H   UNL     1      -9.427  13.630  69.484  1.00  0.00     0.000 HD 
BRANCH   4   6
HETATM    6  C   UNL     1      -9.896  11.843  68.519  1.00  0.00    -0.183 A  
HETATM    7  C   UNL     1     -10.938  11.106  69.081  1.00  0.00    -0.295 A  
HETATM    8  C   UNL     1     -10.917   9.707  69.104  1.00  0.00    -0.177 A  
HETATM    9  C   UNL     1      -9.843   8.993  68.569  1.00  0.00    -0.169 A  
HETATM   10  C   UNL     1      -8.832  11.117  67.962  1.00  0.00    -0.142 A  
HETATM   11  C   UNL     1      -8.810   9.711  67.969  1.00  0.00    -0.119 A  
BRANCH   9  12
HETATM   12  N   UNL     1      -9.842   7.597  68.736  1.00  0.00    -0.160 NA 
HETATM   13  H   UNL     1     -10.699   7.136  68.427  1.00  0.00     0.000 HD 
BRANCH  12  14
HETATM   14  C   UNL     1      -8.870   6.724  69.253  1.00  0.00    -0.137 A  
HETATM   15  C   UNL     1      -7.897   6.198  68.391  1.00  0.00    -0.104 A  
HETATM   16  C   UNL     1      -6.861   5.396  68.879  1.00  0.00    -0.055 A  
HETATM   17  C   UNL     1      -6.780   5.120  70.240  1.00  0.00    -0.040 A  
HETATM   18  C   UNL     1      -7.747   5.627  71.108  1.00  0.00    -0.104 A  
HETATM   19  C   UNL     1      -8.792   6.416  70.615  1.00  0.00    -0.144 A  
ENDBRANCH  12  14
ENDBRANCH   9  12
ENDBRANCH   4   6
ENDBRANCH   2   4
TORSDOF 4
ENDMDL
MODEL      180
REMARK 921   NORMALIZED FREE ENERGY PREDICTED BY IDOCK:   -2.41 KCAL/MOL
REMARK 922        TOTAL FREE ENERGY PREDICTED BY IDOCK:   -3.52 KCAL/MOL
REMARK 923 INTER-LIGAND FREE ENERGY PREDICTED BY IDOCK:   -3.33 KCAL/MOL
REMARK 924 INTRA-LIGAND FREE ENERGY PREDICTED BY IDOCK:   -0.19 KCAL/MOL
REMARK 927      BINDING AFFINITY PREDICTED BY RF-SCORE:    0.00 PKD
ROOT
HETATM    1  C   UNL     1     -10.448  11.183  65.398  1.00  0.00    -0.321 C  
HETATM    2  C   UNL     1      -9.495  10.035  65.728  1.00  0.00    -0.214 C  
HETATM    3  C   UNL     1      -8.533  10.436  66.842  1.00  0.00    -0.124 C  
ENDROOT
BRANCH   2   4
HETATM    4  N   UNL     1     -10.276   8.865  66.128  1.00  0.00    -0.369 NA 
HETATM    5  H   UNL     1     -10.830   8.382  65.420  1.00  0.00     0.000 HD 
BRANCH   4   6
HETATM    6  C   UNL     1     -10.297   8.384  67.435  1.00  0.00    -0.285 A  
HETATM    7  C   UNL     1     -10.680   9.153  68.534  1.00  0.00    -0.160 A  
HETATM    8  C   UNL     1     -10.524   8.688  69.844  1.00  0.00    -0.221 A  
HETATM    9  C   UNL     1      -9.969   7.432  70.102  1.00  0.00    -0.184 A  
HETATM   10  C   UNL     1      -9.762   7.114  67.703  1.00  0.00    -0.172 A  
HETATM   11  C   UNL     1      -9.614   6.634  69.016  1.00  0.00    -0.133 A  
BRANCH   9  12
HETATM   12  N   UNL     1      -9.738   7.087  71.445  1.00  0.00    -0.170 NA 
HETATM   13  H   UNL     1      -9.690   7.883  72.082  1.00  0.00     0.000 HD 
BRANCH  12  14
HETATM   14  C   UNL     1      -9.562   5.839  72.066  1.00  0.00    -0.150 A  
HETATM   15  C   UNL     1     -10.691   5.074  72.396  1.00  0.00    -0.262 A  
HETATM   16  C   UNL     1     -10.559   3.792  72.934  1.00  0.00    -0.229 A  
HETATM   17  C   UNL     1      -9.293   3.252  73.139  1.00  0.00    -0.118 A  
HETATM   18  C   UNL     1      -8.162   4.004  72.826  1.00  0.00    -0.095 A  
HETATM   19  C   UNL     1      -8.295   5.294  72.302  1.00  0.00    -0.122 A  
ENDBRANCH  12  14
ENDBRANCH   9  12
ENDBRANCH   4   6
ENDBRANCH   2   4
TORSDOF 4
ENDMDL
MODEL      181
REMARK 921   NORMALIZED FREE ENERGY PREDICTED BY IDOCK:   -2.37 KCAL/MOL
REMARK 922        TOTAL FREE ENERGY PREDICTED BY IDOCK:   -3.47 KCAL/MOL
REMARK 923 INTER-LIGAND FREE ENERGY PREDICTED BY IDOCK:   -2.96 KCAL/MOL
REMARK 924 INTRA-LIGAND FREE ENERGY PREDICTED BY IDOCK:   -0.51 KCAL/MOL
REMARK 927      BINDING AFFINITY PREDICTED BY RF-SCORE:    0.00 PKD
ROOT
HETATM    1  C   UNL     1      -7.371   5.648  62.928  1.00  0.00    -0.054 C  
HETATM    2  C   UNL     1      -8.486   4.909  63.666  1.00  0.00    -0.132 C  
HETATM    3  C   UNL     1      -8.724   3.536  63.047  1.00  0.00    -0.093 C  
ENDROOT
BRANCH   2   4
HETATM    4  N   UNL     1      -8.120   4.776  65.075  1.00  0.00    -0.100 NA 
HETATM    5  H   UNL     1      -7.568   3.967  65.362  1.00  0.00     0.000 HD 
BRANCH   4   6
HETATM    6  C   UNL     1      -8.493   5.706  66.042  1.00  0.00    -0.132 A  
HETATM    7  C   UNL     1      -7.617   6.221  66.996  1.00  0.00    -0.095 A  
HETATM    8  C   UNL     1      -8.069   7.019  68.052  1.00  0.00    -0.119 A  
HETATM    9  C   UNL     1      -9.424   7.326  68.195  1.00  0.00    -0.133 A  
HETATM   10  C   UNL     1      -9.851   6.039  66.180  1.00  0.00    -0.032 A  
HETATM   11  C   UNL     1     -10.311   6.852  67.231  1.00  0.00    -0.320 A  
BRANCH   9  12
HETATM   12  N   UNL     1      -9.812   8.034  69.346  1.00  0.00    -0.178 NA 
HETATM   13  H   UNL     1     -10.044   9.014  69.178  1.00  0.00     0.000 HD 
BRANCH  12  14
HETATM   14  C   UNL     1      -9.938   7.631  70.686  1.00  0.00    -0.183 A  
HETATM   15  C   UNL     1     -10.622   8.460  71.588  1.00  0.00    -0.327 A  
HETATM   16  C   UNL     1     -10.845   8.059  72.907  1.00  0.00    -0.399 A  
HETATM   17  C   UNL     1     -10.395   6.816  73.339  1.00  0.00    -0.319 A  
HETATM   18  C   UNL     1      -9.703   5.985  72.459  1.00  0.00    -0.169 A  
HETATM   19  C   UNL     1      -9.467   6.396  71.142  1.00  0.00    -0.177 A  
ENDBRANCH  12  14
ENDBRANCH   9  12
ENDBRANCH   4   6
ENDBRANCH   2   4
TORSDOF 4
ENDMDL
MODEL      182
REMARK 921   NORMALIZED FREE ENERGY PREDICTED BY IDOCK:   -2.34 KCAL/MOL
REMARK 922        TOTAL FREE ENERGY PREDICTED BY IDOCK:   -3.44 KCAL/MOL
REMARK 923 INTER-LIGAND FREE ENERGY PREDICTED BY IDOCK:   -2.94 KCAL/MOL
REMARK 924 INTRA-LIGAND FREE ENERGY PREDICTED BY IDOCK:   -0.50 KCAL/MOL
REMARK 927      BINDING AFFINITY PREDICTED BY RF-SCORE:    0.00 PKD
ROOT
HETATM    1  C   UNL     1      -7.471  14.764  69.440  1.00  0.00    -0.147 C  
HETATM    2  C   UNL     1      -6.254  13.859  69.634  1.00  0.00    -0.124 C  
HETATM    3  C   UNL     1      -5.457  14.284  70.863  1.00  0.00    -0.165 C  
ENDROOT
BRANCH   2   4
HETATM    4  N   UNL     1      -6.705  12.476  69.774  1.00  0.00    -0.354 NA 
HETATM    5  H   UNL     1      -6.611  12.021  70.683  1.00  0.00     0.000 HD 
BRANCH   4   6
HETATM    6  C   UNL     1      -7.257  11.753  68.719  1.00  0.00    -0.113 A  
HETATM    7  C   UNL     1      -8.626  11.540  68.564  1.00  0.00    -0.140 A  
HETATM    8  C   UNL     1      -9.127  10.668  67.591  1.00  0.00    -0.145 A  
HETATM    9  C   UNL     1      -8.268   9.969  66.739  1.00  0.00    -0.121 A  
HETATM   10  C   UNL     1      -6.403  11.065  67.843  1.00  0.00    -0.057 A  
HETATM   11  C   UNL     1      -6.898  10.197  66.854  1.00  0.00    -0.084 A  
BRANCH   9  12
HETATM   12  N   UNL     1      -8.842   9.026  65.868  1.00  0.00    -0.164 NA 
HETATM   13  H   UNL     1      -9.083   9.395  64.948  1.00  0.00     0.000 HD 
BRANCH  12  14
HETATM   14  C   UNL     1      -9.142   7.664  66.042  1.00  0.00    -0.105 A  
HETATM   15  C   UNL     1     -10.271   7.303  66.794  1.00  0.00    -0.305 A  
HETATM   16  C   UNL     1     -10.655   5.966  66.920  1.00  0.00    -0.384 A  
HETATM   17  C   UNL     1      -9.919   4.971  66.284  1.00  0.00    -0.247 A  
HETATM   18  C   UNL     1      -8.788   5.312  65.543  1.00  0.00    -0.153 A  
HETATM   19  C   UNL     1      -8.396   6.651  65.431  1.00  0.00    -0.130 A  
ENDBRANCH  12  14
ENDBRANCH   9  12
ENDBRANCH   4   6
ENDBRANCH   2   4
TORSDOF 4
ENDMDL
MODEL      183
REMARK 921   NORMALIZED FREE ENERGY PREDICTED BY IDOCK:   -2.30 KCAL/MOL
REMARK 922        TOTAL FREE ENERGY PREDICTED BY IDOCK:   -3.39 KCAL/MOL
REMARK 923 INTER-LIGAND FREE ENERGY PREDICTED BY IDOCK:   -3.07 KCAL/MOL
REMARK 924 INTRA-LIGAND FREE ENERGY PREDICTED BY IDOCK:   -0.32 KCAL/MOL
REMARK 927      BINDING AFFINITY PREDICTED BY RF-SCORE:    0.00 PKD
ROOT
HETATM    1  C   UNL     1      -8.823   9.696  63.182  1.00  0.00    -0.254 C  
HETATM    2  C   UNL     1      -8.259   9.242  64.528  1.00  0.00    -0.151 C  
HETATM    3  C   UNL     1      -8.317  10.375  65.546  1.00  0.00    -0.168 C  
ENDROOT
BRANCH   2   4
HETATM    4  N   UNL     1      -9.025   8.092  65.003  1.00  0.00    -0.371 NA 
HETATM    5  H   UNL     1      -9.797   7.748  64.430  1.00  0.00     0.000 HD 
BRANCH   4   6
HETATM    6  C   UNL     1      -8.746   7.445  66.205  1.00  0.00    -0.156 A  
HETATM    7  C   UNL     1      -9.727   6.899  67.032  1.00  0.00    -0.210 A  
HETATM    8  C   UNL     1      -9.422   6.412  68.308  1.00  0.00    -0.121 A  
HETATM    9  C   UNL     1      -8.118   6.462  68.806  1.00  0.00    -0.114 A  
HETATM   10  C   UNL     1      -7.434   7.470  66.704  1.00  0.00    -0.092 A  
HETATM   11  C   UNL     1      -7.117   6.971  67.980  1.00  0.00    -0.086 A  
BRANCH   9  12
HETATM   12  N   UNL     1      -7.915   6.062  70.138  1.00  0.00    -0.104 NA 
HETATM   13  H   UNL     1      -6.945   6.115  70.451  1.00  0.00     0.000 HD 
BRANCH  12  14
HETATM   14  C   UNL     1      -8.813   5.601  71.116  1.00  0.00    -0.135 A  
HETATM   15  C   UNL     1      -9.662   6.519  71.752  1.00  0.00    -0.168 A  
HETATM   16  C   UNL     1     -10.629   6.093  72.666  1.00  0.00    -0.246 A  
HETATM   17  C   UNL     1     -10.766   4.737  72.948  1.00  0.00    -0.297 A  
HETATM   18  C   UNL     1      -9.923   3.813  72.333  1.00  0.00    -0.232 A  
HETATM   19  C   UNL     1      -8.945   4.244  71.429  1.00  0.00    -0.163 A  
ENDBRANCH  12  14
ENDBRANCH   9  12
ENDBRANCH   4   6
ENDBRANCH   2   4
TORSDOF 4
ENDMDL
MODEL      184
REMARK 921   NORMALIZED FREE ENERGY PREDICTED BY IDOCK:   -2.28 KCAL/MOL
REMARK 922        TOTAL FREE ENERGY PREDICTED BY IDOCK:   -3.37 KCAL/MOL
REMARK 923 INTER-LIGAND FREE ENERGY PREDICTED BY IDOCK:   -3.16 KCAL/MOL
REMARK 924 INTRA-LIGAND FREE ENERGY PREDICTED BY IDOCK:   -0.21 KCAL/MOL
REMARK 927      BINDING AFFINITY PREDICTED BY RF-SCORE:    0.00 PKD
ROOT
HETATM    1  C   UNL     1      -9.783  15.040  67.397  1.00  0.00    -0.216 C  
HETATM    2  C   UNL     1      -8.664  14.118  66.913  1.00  0.00    -0.166 C  
HETATM    3  C   UNL     1      -7.879  13.556  68.094  1.00  0.00    -0.144 C  
ENDROOT
BRANCH   2   4
HETATM    4  N   UNL     1      -9.247  13.031  66.128  1.00  0.00    -0.458 NA 
HETATM    5  H   UNL     1      -9.652  13.249  65.217  1.00  0.00     0.000 HD 
BRANCH   4   6
HETATM    6  C   UNL     1      -9.274  11.711  66.571  1.00  0.00    -0.198 A  
HETATM    7  C   UNL     1      -8.376  10.735  66.142  1.00  0.00    -0.166 A  
HETATM    8  C   UNL     1      -8.541   9.387  66.478  1.00  0.00    -0.142 A  
HETATM    9  C   UNL     1      -9.623   8.966  67.255  1.00  0.00    -0.164 A  
HETATM   10  C   UNL     1     -10.345  11.282  67.372  1.00  0.00    -0.233 A  
HETATM   11  C   UNL     1     -10.511   9.931  67.726  1.00  0.00    -0.292 A  
BRANCH   9  12
HETATM   12  N   UNL     1      -9.783   7.583  67.452  1.00  0.00    -0.150 NA 
HETATM   13  H   UNL     1     -10.100   7.324  68.387  1.00  0.00     0.000 HD 
BRANCH  12  14
HETATM   14  C   UNL     1      -9.583   6.493  66.587  1.00  0.00    -0.160 A  
HETATM   15  C   UNL     1      -8.277   6.164  66.193  1.00  0.00    -0.119 A  
HETATM   16  C   UNL     1      -8.026   5.038  65.405  1.00  0.00    -0.108 A  
HETATM   17  C   UNL     1      -9.079   4.219  65.010  1.00  0.00    -0.146 A  
HETATM   18  C   UNL     1     -10.383   4.539  65.383  1.00  0.00    -0.224 A  
HETATM   19  C   UNL     1     -10.635   5.676  66.159  1.00  0.00    -0.072 A  
ENDBRANCH  12  14
ENDBRANCH   9  12
ENDBRANCH   4   6
ENDBRANCH   2   4
TORSDOF 4
ENDMDL
MODEL      185
REMARK 921   NORMALIZED FREE ENERGY PREDICTED BY IDOCK:   -2.22 KCAL/MOL
REMARK 922        TOTAL FREE ENERGY PREDICTED BY IDOCK:   -3.28 KCAL/MOL
REMARK 923 INTER-LIGAND FREE ENERGY PREDICTED BY IDOCK:   -2.76 KCAL/MOL
REMARK 924 INTRA-LIGAND FREE ENERGY PREDICTED BY IDOCK:   -0.53 KCAL/MOL
REMARK 927      BINDING AFFINITY PREDICTED BY RF-SCORE:    0.00 PKD
ROOT
HETATM    1  C   UNL     1     -10.121   2.718  73.231  1.00  0.00    -0.195 C  
HETATM    2  C   UNL     1      -9.784   4.189  72.992  1.00  0.00    -0.129 C  
HETATM    3  C   UNL     1      -8.992   4.758  74.164  1.00  0.00    -0.112 C  
ENDROOT
BRANCH   2   4
HETATM    4  N   UNL     1      -9.016   4.308  71.754  1.00  0.00    -0.117 NA 
HETATM    5  H   UNL     1      -8.340   3.578  71.526  1.00  0.00     0.000 HD 
BRANCH   4   6
HETATM    6  C   UNL     1      -9.166   5.377  70.873  1.00  0.00    -0.150 A  
HETATM    7  C   UNL     1      -8.392   6.535  70.926  1.00  0.00    -0.126 A  
HETATM    8  C   UNL     1      -8.687   7.652  70.137  1.00  0.00    -0.141 A  
HETATM    9  C   UNL     1      -9.780   7.650  69.267  1.00  0.00    -0.164 A  
HETATM   10  C   UNL     1     -10.248   5.376  69.978  1.00  0.00    -0.349 A  
HETATM   11  C   UNL     1     -10.544   6.489  69.171  1.00  0.00    -0.286 A  
BRANCH   9  12
HETATM   12  N   UNL     1     -10.078   8.850  68.596  1.00  0.00    -0.183 NA 
HETATM   13  H   UNL     1     -11.056   9.135  68.660  1.00  0.00     0.000 HD 
BRANCH  12  14
HETATM   14  C   UNL     1      -9.267   9.725  67.854  1.00  0.00    -0.124 A  
HETATM   15  C   UNL     1      -8.590  10.758  68.518  1.00  0.00    -0.148 A  
HETATM   16  C   UNL     1      -7.706  11.596  67.834  1.00  0.00    -0.126 A  
HETATM   17  C   UNL     1      -7.481  11.404  66.475  1.00  0.00    -0.068 A  
HETATM   18  C   UNL     1      -8.155  10.389  65.797  1.00  0.00    -0.155 A  
HETATM   19  C   UNL     1      -9.052   9.560  66.482  1.00  0.00    -0.185 A  
ENDBRANCH  12  14
ENDBRANCH   9  12
ENDBRANCH   4   6
ENDBRANCH   2   4
TORSDOF 4
ENDMDL
MODEL      186
REMARK 921   NORMALIZED FREE ENERGY PREDICTED BY IDOCK:   -2.09 KCAL/MOL
REMARK 922        TOTAL FREE ENERGY PREDICTED BY IDOCK:   -3.12 KCAL/MOL
REMARK 923 INTER-LIGAND FREE ENERGY PREDICTED BY IDOCK:   -2.64 KCAL/MOL
REMARK 924 INTRA-LIGAND FREE ENERGY PREDICTED BY IDOCK:   -0.48 KCAL/MOL
REMARK 927      BINDING AFFINITY PREDICTED BY RF-SCORE:    0.00 PKD
ROOT
HETATM    1  C   UNL     1      -6.085  13.162  69.812  1.00  0.00    -0.126 C  
HETATM    2  C   UNL     1      -7.308  13.272  68.902  1.00  0.00    -0.023 C  
HETATM    3  C   UNL     1      -6.884  13.379  67.441  1.00  0.00    -0.081 C  
ENDROOT
BRANCH   2   4
HETATM    4  N   UNL     1      -8.157  12.099  69.100  1.00  0.00    -0.318 NA 
HETATM    5  H   UNL     1      -8.667  12.007  69.979  1.00  0.00     0.000 HD 
BRANCH   4   6
HETATM    6  C   UNL     1      -8.299  11.100  68.139  1.00  0.00    -0.136 A  
HETATM    7  C   UNL     1      -9.446  10.934  67.364  1.00  0.00    -0.170 A  
HETATM    8  C   UNL     1      -9.615   9.820  66.535  1.00  0.00    -0.249 A  
HETATM    9  C   UNL     1      -8.639   8.824  66.457  1.00  0.00    -0.118 A  
HETATM   10  C   UNL     1      -7.312  10.107  68.036  1.00  0.00    -0.086 A  
HETATM   11  C   UNL     1      -7.469   8.991  67.195  1.00  0.00    -0.087 A  
BRANCH   9  12
HETATM   12  N   UNL     1      -8.934   7.681  65.692  1.00  0.00    -0.376 NA 
HETATM   13  H   UNL     1      -8.964   7.845  64.685  1.00  0.00     0.000 HD 
BRANCH  12  14
HETATM   14  C   UNL     1      -9.196   6.354  66.070  1.00  0.00    -0.059 A  
HETATM   15  C   UNL     1      -8.774   5.309  65.234  1.00  0.00    -0.151 A  
HETATM   16  C   UNL     1      -8.936   3.974  65.612  1.00  0.00    -0.131 A  
HETATM   17  C   UNL     1      -9.514   3.666  66.840  1.00  0.00    -0.213 A  
HETATM   18  C   UNL     1      -9.949   4.693  67.677  1.00  0.00    -0.161 A  
HETATM   19  C   UNL     1      -9.800   6.029  67.290  1.00  0.00    -0.155 A  
ENDBRANCH  12  14
ENDBRANCH   9  12
ENDBRANCH   4   6
ENDBRANCH   2   4
TORSDOF 4
ENDMDL
MODEL      187
REMARK 921   NORMALIZED FREE ENERGY PREDICTED BY IDOCK:   -1.68 KCAL/MOL
REMARK 922        TOTAL FREE ENERGY PREDICTED BY IDOCK:   -2.62 KCAL/MOL
REMARK 923 INTER-LIGAND FREE ENERGY PREDICTED BY IDOCK:   -2.15 KCAL/MOL
REMARK 924 INTRA-LIGAND FREE ENERGY PREDICTED BY IDOCK:   -0.47 KCAL/MOL
REMARK 927      BINDING AFFINITY PREDICTED BY RF-SCORE:    0.00 PKD
ROOT
HETATM    1  C   UNL     1      -7.146  15.259  68.708  1.00  0.00    -0.117 C  
HETATM    2  C   UNL     1      -6.051  14.604  69.550  1.00  0.00    -0.113 C  
HETATM    3  C   UNL     1      -5.517  15.580  70.593  1.00  0.00    -0.128 C  
ENDROOT
BRANCH   2   4
HETATM    4  N   UNL     1      -6.597  13.414  70.200  1.00  0.00    -0.371 NA 
HETATM    5  H   UNL     1      -7.050  13.517  71.109  1.00  0.00     0.000 HD 
BRANCH   4   6
HETATM    6  C   UNL     1      -6.525  12.144  69.631  1.00  0.00    -0.082 A  
HETATM    7  C   UNL     1      -7.339  11.722  68.581  1.00  0.00    -0.115 A  
HETATM    8  C   UNL     1      -7.353  10.390  68.154  1.00  0.00    -0.088 A  
HETATM    9  C   UNL     1      -6.552   9.426  68.772  1.00  0.00    -0.052 A  
HETATM   10  C   UNL     1      -5.705  11.174  70.231  1.00  0.00    -0.128 A  
HETATM   11  C   UNL     1      -5.703   9.836  69.799  1.00  0.00    -0.037 A  
BRANCH   9  12
HETATM   12  N   UNL     1      -6.710   8.090  68.363  1.00  0.00    -0.065 NA 
HETATM   13  H   UNL     1      -5.868   7.669  67.969  1.00  0.00     0.000 HD 
BRANCH  12  14
HETATM   14  C   UNL     1      -7.823   7.233  68.401  1.00  0.00    -0.122 A  
HETATM   15  C   UNL     1      -8.684   7.182  67.294  1.00  0.00    -0.120 A  
HETATM   16  C   UNL     1      -9.751   6.282  67.254  1.00  0.00    -0.150 A  
HETATM   17  C   UNL     1      -9.965   5.412  68.318  1.00  0.00    -0.212 A  
HETATM   18  C   UNL     1      -9.125   5.458  69.430  1.00  0.00    -0.135 A  
HETATM   19  C   UNL     1      -8.066   6.371  69.475  1.00  0.00    -0.118 A  
ENDBRANCH  12  14
ENDBRANCH   9  12
ENDBRANCH   4   6
ENDBRANCH   2   4
TORSDOF 4
ENDMDL
MODEL      188
REMARK 921   NORMALIZED FREE ENERGY PREDICTED BY IDOCK:   -1.55 KCAL/MOL
REMARK 922        TOTAL FREE ENERGY PREDICTED BY IDOCK:   -2.47 KCAL/MOL
REMARK 923 INTER-LIGAND FREE ENERGY PREDICTED BY IDOCK:   -1.87 KCAL/MOL
REMARK 924 INTRA-LIGAND FREE ENERGY PREDICTED BY IDOCK:   -0.60 KCAL/MOL
REMARK 927      BINDING AFFINITY PREDICTED BY RF-SCORE:    0.00 PKD
ROOT
HETATM    1  C   UNL     1      -7.652  15.642  68.183  1.00  0.00    -0.124 C  
HETATM    2  C   UNL     1      -6.405  14.936  68.713  1.00  0.00    -0.082 C  
HETATM    3  C   UNL     1      -5.712  15.787  69.771  1.00  0.00    -0.136 C  
ENDROOT
BRANCH   2   4
HETATM    4  N   UNL     1      -6.790  13.642  69.274  1.00  0.00    -0.207 NA 
HETATM    5  H   UNL     1      -6.823  13.539  70.289  1.00  0.00     0.000 HD 
BRANCH   4   6
HETATM    6  C   UNL     1      -7.114  12.543  68.481  1.00  0.00    -0.107 A  
HETATM    7  C   UNL     1      -8.001  11.542  68.876  1.00  0.00    -0.057 A  
HETATM    8  C   UNL     1      -8.168  10.373  68.126  1.00  0.00    -0.116 A  
HETATM    9  C   UNL     1      -7.443  10.161  66.951  1.00  0.00    -0.096 A  
HETATM   10  C   UNL     1      -6.408  12.332  67.286  1.00  0.00    -0.150 A  
HETATM   11  C   UNL     1      -6.580  11.166  66.519  1.00  0.00    -0.124 A  
BRANCH   9  12
HETATM   12  N   UNL     1      -7.581   8.913  66.319  1.00  0.00    -0.094 NA 
HETATM   13  H   UNL     1      -7.894   8.161  66.935  1.00  0.00     0.000 HD 
BRANCH  12  14
HETATM   14  C   UNL     1      -7.364   8.517  64.988  1.00  0.00    -0.086 A  
HETATM   15  C   UNL     1      -6.327   7.617  64.703  1.00  0.00    -0.044 A  
HETATM   16  C   UNL     1      -6.131   7.131  63.408  1.00  0.00    -0.044 A  
HETATM   17  C   UNL     1      -6.980   7.532  62.381  1.00  0.00    -0.075 A  
HETATM   18  C   UNL     1      -8.008   8.435  62.646  1.00  0.00    -0.154 A  
HETATM   19  C   UNL     1      -8.193   8.933  63.940  1.00  0.00    -0.171 A  
ENDBRANCH  12  14
ENDBRANCH   9  12
ENDBRANCH   4   6
ENDBRANCH   2   4
TORSDOF 4
ENDMDL
MODEL      189
REMARK 921   NORMALIZED FREE ENERGY PREDICTED BY IDOCK:   12.14 KCAL/MOL
REMARK 922        TOTAL FREE ENERGY PREDICTED BY IDOCK:   14.43 KCAL/MOL
REMARK 923 INTER-LIGAND FREE ENERGY PREDICTED BY IDOCK:   13.86 KCAL/MOL
REMARK 924 INTRA-LIGAND FREE ENERGY PREDICTED BY IDOCK:    0.57 KCAL/MOL
REMARK 927      BINDING AFFINITY PREDICTED BY RF-SCORE:    0.00 PKD
ROOT
HETATM    1  C   UNL     1     -13.154   1.629  72.410  1.00  0.00     2.031 C  
HETATM    2  C   UNL     1     -12.789   3.100  72.208  1.00  0.00     4.776 C  
HETATM    3  C   UNL     1     -12.180   3.683  73.479  1.00  0.00     0.586 C  
ENDROOT
BRANCH   2   4
HETATM    4  N   UNL     1     -11.847   3.210  71.096  1.00  0.00     6.501 NA 
HETATM    5  H   UNL     1     -11.835   2.472  70.391  1.00  0.00     0.000 HD 
BRANCH   4   6
HETATM    6  C   UNL     1     -10.966   4.280  70.959  1.00  0.00     1.374 A  
HETATM    7  C   UNL     1      -9.843   4.252  70.133  1.00  0.00    -0.271 A  
HETATM    8  C   UNL     1      -8.892   5.278  70.153  1.00  0.00    -0.144 A  
HETATM    9  C   UNL     1      -9.029   6.371  71.013  1.00  0.00    -0.146 A  
HETATM   10  C   UNL     1     -11.108   5.393  71.802  1.00  0.00    -0.152 A  
HETATM   11  C   UNL     1     -10.164   6.435  71.819  1.00  0.00    -0.222 A  
BRANCH   9  12
HETATM   12  N   UNL     1      -7.974   7.299  71.057  1.00  0.00    -0.097 NA 
HETATM   13  H   UNL     1      -7.574   7.437  71.986  1.00  0.00     0.000 HD 
BRANCH  12  14
HETATM   14  C   UNL     1      -7.374   8.072  70.048  1.00  0.00    -0.062 A  
HETATM   15  C   UNL     1      -6.026   8.437  70.179  1.00  0.00    -0.027 A  
HETATM   16  C   UNL     1      -5.366   9.130  69.160  1.00  0.00    -0.036 A  
HETATM   17  C   UNL     1      -6.046   9.456  67.991  1.00  0.00    -0.052 A  
HETATM   18  C   UNL     1      -7.389   9.111  67.851  1.00  0.00    -0.084 A  
HETATM   19  C   UNL     1      -8.052   8.431  68.879  1.00  0.00    -0.114 A  
ENDBRANCH  12  14
ENDBRANCH   9  12
ENDBRANCH   4   6
ENDBRANCH   2   4
TORSDOF 4
ENDMDL
MODEL      190
REMARK 921   NORMALIZED FREE ENERGY PREDICTED BY IDOCK:   13.66 KCAL/MOL
REMARK 922        TOTAL FREE ENERGY PREDICTED BY IDOCK:   16.30 KCAL/MOL
REMARK 923 INTER-LIGAND FREE ENERGY PREDICTED BY IDOCK:   15.92 KCAL/MOL
REMARK 924 INTRA-LIGAND FREE ENERGY PREDICTED BY IDOCK:    0.38 KCAL/MOL
REMARK 927      BINDING AFFINITY PREDICTED BY RF-SCORE:    0.00 PKD
ROOT
HETATM    1  C   UNL     1      -9.395  11.025  72.348  1.00  0.00    14.109 C  
HETATM    2  C   UNL     1      -9.465  10.870  70.829  1.00  0.00     3.389 C  
HETATM    3  C   UNL     1      -8.215  10.175  70.300  1.00  0.00     0.160 C  
ENDROOT
BRANCH   2   4
HETATM    4  N   UNL     1     -10.660  10.103  70.482  1.00  0.00    -0.410 NA 
HETATM    5  H   UNL     1     -11.457  10.595  70.077  1.00  0.00     0.000 HD 
BRANCH   4   6
HETATM    6  C   UNL     1     -10.755   8.727  70.680  1.00  0.00    -0.225 A  
HETATM    7  C   UNL     1      -9.867   7.998  71.470  1.00  0.00    -0.217 A  
HETATM    8  C   UNL     1      -9.895   6.600  71.505  1.00  0.00    -0.182 A  
HETATM    9  C   UNL     1     -10.814   5.878  70.741  1.00  0.00    -0.283 A  
HETATM   10  C   UNL     1     -11.691   7.994  69.933  1.00  0.00     0.390 A  
HETATM   11  C   UNL     1     -11.735   6.589  69.973  1.00  0.00    -0.388 A  
BRANCH   9  12
HETATM   12  N   UNL     1     -10.701   4.476  70.741  1.00  0.00     0.338 NA 
HETATM   13  H   UNL     1     -11.200   4.014  69.980  1.00  0.00     0.000 HD 
BRANCH  12  14
HETATM   14  C   UNL     1     -10.023   3.600  71.605  1.00  0.00    -0.126 A  
HETATM   15  C   UNL     1      -9.115   2.676  71.066  1.00  0.00    -0.181 A  
HETATM   16  C   UNL     1      -8.355   1.847  71.895  1.00  0.00    -0.057 A  
HETATM   17  C   UNL     1      -8.487   1.939  73.277  1.00  0.00    -0.061 A  
HETATM   18  C   UNL     1      -9.393   2.843  73.827  1.00  0.00    -0.102 A  
HETATM   19  C   UNL     1     -10.164   3.662  72.995  1.00  0.00    -0.232 A  
ENDBRANCH  12  14
ENDBRANCH   9  12
ENDBRANCH   4   6
ENDBRANCH   2   4
TORSDOF 4
ENDMDL
MODEL      191
REMARK 921   NORMALIZED FREE ENERGY PREDICTED BY IDOCK:   33.69 KCAL/MOL
REMARK 922        TOTAL FREE ENERGY PREDICTED BY IDOCK:   41.01 KCAL/MOL
REMARK 923 INTER-LIGAND FREE ENERGY PREDICTED BY IDOCK:   40.55 KCAL/MOL
REMARK 924 INTRA-LIGAND FREE ENERGY PREDICTED BY IDOCK:    0.46 KCAL/MOL
REMARK 927      BINDING AFFINITY PREDICTED BY RF-SCORE:    0.00 PKD
ROOT
HETATM    1  C   UNL     1      -8.264  18.225  65.341  1.00  0.00     1.197 C  
HETATM    2  C   UNL     1      -7.569  17.721  64.077  1.00  0.00     9.708 C  
HETATM    3  C   UNL     1      -6.138  18.244  64.003  1.00  0.00     1.556 C  
ENDROOT
BRANCH   2   4
HETATM    4  N   UNL     1      -7.576  16.259  64.077  1.00  0.00    11.132 NA 
HETATM    5  H   UNL     1      -7.339  15.769  63.214  1.00  0.00     0.000 HD 
BRANCH   4   6
HETATM    6  C   UNL     1      -7.892  15.508  65.206  1.00  0.00     5.293 A  
HETATM    7  C   UNL     1      -7.228  15.631  66.426  1.00  0.00     0.965 A  
HETATM    8  C   UNL     1      -7.460  14.742  67.481  1.00  0.00    -0.221 A  
HETATM    9  C   UNL     1      -8.367  13.688  67.348  1.00  0.00    -0.192 A  
HETATM   10  C   UNL     1      -8.820  14.460  65.090  1.00  0.00     2.520 A  
HETATM   11  C   UNL     1      -9.069  13.571  66.150  1.00  0.00     0.102 A  
BRANCH   9  12
HETATM   12  N   UNL     1      -8.457  12.771  68.411  1.00  0.00    -0.269 NA 
HETATM   13  H   UNL     1      -9.237  12.116  68.336  1.00  0.00     0.000 HD 
BRANCH  12  14
HETATM   14  C   UNL     1      -7.664  12.597  69.557  1.00  0.00     0.853 A  
HETATM   15  C   UNL     1      -7.143  13.727  70.206  1.00  0.00     0.729 A  
HETATM   16  C   UNL     1      -6.422  13.606  71.396  1.00  0.00     1.138 A  
HETATM   17  C   UNL     1      -6.222  12.350  71.960  1.00  0.00     2.816 A  
HETATM   18  C   UNL     1      -6.723  11.217  71.322  1.00  0.00     2.199 A  
HETATM   19  C   UNL     1      -7.432  11.339  70.122  1.00  0.00     1.026 A  
ENDBRANCH  12  14
ENDBRANCH   9  12
ENDBRANCH   4   6
ENDBRANCH   2   4
TORSDOF 4
ENDMDL
