MODEL        1
REMARK 921   NORMALIZED FREE ENERGY PREDICTED BY IDOCK:   -6.77 KCAL/MOL
REMARK 922        TOTAL FREE ENERGY PREDICTED BY IDOCK:   -9.45 KCAL/MOL
REMARK 923 INTER-LIGAND FREE ENERGY PREDICTED BY IDOCK:   -8.74 KCAL/MOL
REMARK 924 INTRA-LIGAND FREE ENERGY PREDICTED BY IDOCK:   -0.70 KCAL/MOL
REMARK 927      BINDING AFFINITY PREDICTED BY RF-SCORE:    0.00 PKD
ROOT
HETATM    1  O   UNL     1     -11.544  12.789  70.096  1.00  0.00    -0.515 OA 
HETATM    2  H   UNL     1     -11.879  11.972  69.747  1.00  0.00     0.000 HD 
HETATM    3  C   UNL     1     -11.917  13.907  69.295  1.00  0.00    -0.357 C  
HETATM    4  C   UNL     1     -11.382  15.214  69.853  1.00  0.00    -0.284 C  
HETATM    5  C   UNL     1     -11.486  16.124  68.606  1.00  0.00    -0.340 C  
HETATM    6  O   UNL     1     -10.020  15.014  70.285  1.00  0.00    -0.498 OA 
HETATM    7  O   UNL     1     -11.175  15.269  67.490  1.00  0.00    -0.320 OA 
HETATM    8  C   UNL     1     -11.242  13.894  67.935  1.00  0.00    -0.278 C  
HETATM    9  H   UNL     1      -9.685  15.832  70.634  1.00  0.00     0.000 HD 
ENDROOT
BRANCH   5  10
HETATM   10  O   UNL     1     -10.616  17.219  68.775  1.00  0.00    -0.338 OA 
BRANCH  10  11
HETATM   11  P   UNL     1      -9.826  18.062  67.489  1.00  0.00    -0.339 P  
HETATM   12  O   UNL     1     -11.119  19.047  67.327  1.00  0.00    -0.382 OA 
HETATM   13  O   UNL     1      -8.895  18.729  68.511  1.00  0.00    -0.330 OA 
BRANCH  11  14
HETATM   14  O   UNL     1      -9.035  18.906  66.202  1.00  0.00    -0.434 OA 
HETATM   15  P   UNL     1      -7.350  19.056  66.560  1.00  0.00    -0.254 P  
HETATM   16  O   UNL     1      -5.841  19.191  66.882  1.00  0.00    -0.157 OA 
HETATM   17  O   UNL     1      -7.185  17.609  65.804  1.00  0.00    -0.449 OA 
HETATM   18  O   UNL     1      -7.275  19.919  65.163  1.00  0.00    -0.355 OA 
ENDBRANCH  11  14
ENDBRANCH  10  11
ENDBRANCH   5  10
BRANCH   8  19
HETATM   19  C   UNL     1     -12.000  13.045  66.918  1.00  0.00    -0.352 C  
BRANCH  19  20
HETATM   20  O   UNL     1     -12.194  13.854  65.773  1.00  0.00    -0.405 OA 
HETATM   21  P   UNL     1     -12.034  13.187  64.339  1.00  0.00    -0.440 P  
HETATM   22  O   UNL     1     -12.640  14.327  63.402  1.00  0.00    -0.777 OA 
HETATM   23  O   UNL     1     -10.675  12.708  63.980  1.00  0.00    -0.370 OA 
HETATM   24  O   UNL     1     -13.225  12.127  64.325  1.00  0.00    -0.768 OA 
ENDBRANCH  19  20
ENDBRANCH   8  19
TORSDOF 5
ENDMDL
MODEL        2
REMARK 921   NORMALIZED FREE ENERGY PREDICTED BY IDOCK:   -6.64 KCAL/MOL
REMARK 922        TOTAL FREE ENERGY PREDICTED BY IDOCK:   -9.28 KCAL/MOL
REMARK 923 INTER-LIGAND FREE ENERGY PREDICTED BY IDOCK:   -8.54 KCAL/MOL
REMARK 924 INTRA-LIGAND FREE ENERGY PREDICTED BY IDOCK:   -0.74 KCAL/MOL
REMARK 927      BINDING AFFINITY PREDICTED BY RF-SCORE:    0.00 PKD
ROOT
HETATM    1  O   UNL     1     -14.114   9.011  73.047  1.00  0.00    -1.086 OA 
HETATM    2  H   UNL     1     -14.100   8.148  73.444  1.00  0.00     0.000 HD 
HETATM    3  C   UNL     1     -13.299   9.078  71.881  1.00  0.00    -0.417 C  
HETATM    4  C   UNL     1     -13.321  10.456  71.245  1.00  0.00    -0.246 C  
HETATM    5  C   UNL     1     -12.046  10.392  70.371  1.00  0.00    -0.315 C  
HETATM    6  O   UNL     1     -13.234  11.452  72.286  1.00  0.00    -0.599 OA 
HETATM    7  O   UNL     1     -11.104   9.620  71.138  1.00  0.00    -0.332 OA 
HETATM    8  C   UNL     1     -11.821   8.949  72.201  1.00  0.00    -0.347 C  
HETATM    9  H   UNL     1     -13.248  12.314  71.888  1.00  0.00     0.000 HD 
ENDROOT
BRANCH   5  10
HETATM   10  O   UNL     1     -11.636  11.707  70.078  1.00  0.00    -0.295 OA 
BRANCH  10  11
HETATM   11  P   UNL     1     -11.101  12.254  68.527  1.00  0.00    -0.291 P  
HETATM   12  O   UNL     1      -9.704  11.426  68.706  1.00  0.00    -0.197 OA 
HETATM   13  O   UNL     1     -12.093  11.294  67.857  1.00  0.00    -0.634 OA 
BRANCH  11  14
HETATM   14  O   UNL     1     -10.565  12.800  66.975  1.00  0.00    -0.239 OA 
HETATM   15  P   UNL     1     -11.889  12.763  65.862  1.00  0.00    -0.428 P  
HETATM   16  O   UNL     1     -13.074  12.729  64.866  1.00  0.00    -0.833 OA 
HETATM   17  O   UNL     1     -12.198  14.293  66.369  1.00  0.00    -0.436 OA 
HETATM   18  O   UNL     1     -10.779  13.240  64.747  1.00  0.00    -0.333 OA 
ENDBRANCH  11  14
ENDBRANCH  10  11
ENDBRANCH   5  10
BRANCH   8  19
HETATM   19  C   UNL     1     -11.372   7.493  72.304  1.00  0.00    -0.292 C  
BRANCH  19  20
HETATM   20  O   UNL     1     -10.294   7.332  71.401  1.00  0.00    -0.200 OA 
HETATM   21  P   UNL     1     -10.291   6.063  70.445  1.00  0.00    -0.261 P  
HETATM   22  O   UNL     1      -9.128   6.451  69.425  1.00  0.00    -0.139 OA 
HETATM   23  O   UNL     1     -10.160   4.739  71.104  1.00  0.00    -0.197 OA 
HETATM   24  O   UNL     1     -11.578   6.319  69.539  1.00  0.00    -0.423 OA 
ENDBRANCH  19  20
ENDBRANCH   8  19
TORSDOF 5
ENDMDL
MODEL        3
REMARK 921   NORMALIZED FREE ENERGY PREDICTED BY IDOCK:   -6.55 KCAL/MOL
REMARK 922        TOTAL FREE ENERGY PREDICTED BY IDOCK:   -9.17 KCAL/MOL
REMARK 923 INTER-LIGAND FREE ENERGY PREDICTED BY IDOCK:   -8.70 KCAL/MOL
REMARK 924 INTRA-LIGAND FREE ENERGY PREDICTED BY IDOCK:   -0.48 KCAL/MOL
REMARK 927      BINDING AFFINITY PREDICTED BY RF-SCORE:    0.00 PKD
ROOT
HETATM    1  O   UNL     1     -12.593  11.561  63.145  1.00  0.00    -0.909 OA 
HETATM    2  H   UNL     1     -12.303  10.726  62.797  1.00  0.00     0.000 HD 
HETATM    3  C   UNL     1     -11.501  12.387  63.538  1.00  0.00    -0.483 C  
HETATM    4  C   UNL     1     -11.964  13.721  64.093  1.00  0.00    -0.432 C  
HETATM    5  C   UNL     1     -10.698  14.169  64.862  1.00  0.00    -0.428 C  
HETATM    6  O   UNL     1     -13.094  13.499  64.962  1.00  0.00    -0.736 OA 
HETATM    7  O   UNL     1     -10.142  12.958  65.406  1.00  0.00    -0.285 OA 
HETATM    8  C   UNL     1     -10.762  11.832  64.742  1.00  0.00    -0.302 C  
HETATM    9  H   UNL     1     -13.384  14.335  65.309  1.00  0.00     0.000 HD 
ENDROOT
BRANCH   5  10
HETATM   10  O   UNL     1     -11.072  15.132  65.820  1.00  0.00    -0.342 OA 
BRANCH  10  11
HETATM   11  P   UNL     1     -10.504  16.766  65.852  1.00  0.00    -0.134 P  
HETATM   12  O   UNL     1      -8.987  16.256  65.524  1.00  0.00    -0.336 OA 
HETATM   13  O   UNL     1     -11.182  17.019  64.498  1.00  0.00    -1.091 OA 
BRANCH  11  14
HETATM   14  O   UNL     1      -9.936  18.400  65.884  1.00  0.00    -0.526 OA 
HETATM   15  P   UNL     1     -10.145  19.052  67.473  1.00  0.00    -0.428 P  
HETATM   16  O   UNL     1     -10.334  19.635  68.895  1.00  0.00    -0.378 OA 
HETATM   17  O   UNL     1      -8.649  18.453  67.783  1.00  0.00    -0.260 OA 
HETATM   18  O   UNL     1      -9.571  20.448  66.821  1.00  0.00    -0.399 OA 
ENDBRANCH  11  14
ENDBRANCH  10  11
ENDBRANCH   5  10
BRANCH   8  19
HETATM   19  C   UNL     1      -9.706  10.800  64.352  1.00  0.00    -0.301 C  
BRANCH  19  20
HETATM   20  O   UNL     1      -8.998  10.473  65.534  1.00  0.00    -0.168 OA 
HETATM   21  P   UNL     1      -9.130   8.999  66.111  1.00  0.00    -0.231 P  
HETATM   22  O   UNL     1      -7.960   8.989  67.197  1.00  0.00    -0.101 OA 
HETATM   23  O   UNL     1     -10.472   8.598  66.602  1.00  0.00    -0.277 OA 
HETATM   24  O   UNL     1      -8.468   8.122  64.955  1.00  0.00    -0.151 OA 
ENDBRANCH  19  20
ENDBRANCH   8  19
TORSDOF 5
ENDMDL
MODEL        4
REMARK 921   NORMALIZED FREE ENERGY PREDICTED BY IDOCK:   -6.53 KCAL/MOL
REMARK 922        TOTAL FREE ENERGY PREDICTED BY IDOCK:   -9.15 KCAL/MOL
REMARK 923 INTER-LIGAND FREE ENERGY PREDICTED BY IDOCK:   -8.34 KCAL/MOL
REMARK 924 INTRA-LIGAND FREE ENERGY PREDICTED BY IDOCK:   -0.81 KCAL/MOL
REMARK 927      BINDING AFFINITY PREDICTED BY RF-SCORE:    0.00 PKD
ROOT
HETATM    1  O   UNL     1     -12.196  15.183  63.791  1.00  0.00    -0.954 OA 
HETATM    2  H   UNL     1     -11.797  16.019  63.581  1.00  0.00     0.000 HD 
HETATM    3  C   UNL     1     -11.895  14.763  65.118  1.00  0.00    -0.313 C  
HETATM    4  C   UNL     1     -12.532  13.426  65.453  1.00  0.00    -0.494 C  
HETATM    5  C   UNL     1     -11.682  12.999  66.673  1.00  0.00    -0.381 C  
HETATM    6  O   UNL     1     -12.376  12.539  64.326  1.00  0.00    -0.422 OA 
HETATM    7  O   UNL     1     -10.352  13.470  66.387  1.00  0.00    -0.278 OA 
HETATM    8  C   UNL     1     -10.428  14.418  65.297  1.00  0.00    -0.390 C  
HETATM    9  H   UNL     1     -12.775  11.702  64.536  1.00  0.00     0.000 HD 
ENDROOT
BRANCH   5  10
HETATM   10  O   UNL     1     -11.795  11.604  66.833  1.00  0.00    -0.577 OA 
BRANCH  10  11
HETATM   11  P   UNL     1     -11.633  10.764  68.336  1.00  0.00    -0.032 P  
HETATM   12  O   UNL     1     -10.093  10.368  67.960  1.00  0.00    -0.155 OA 
HETATM   13  O   UNL     1     -11.570  12.110  69.070  1.00  0.00    -0.271 OA 
BRANCH  11  14
HETATM   14  O   UNL     1     -11.470   9.924  69.840  1.00  0.00    -0.236 OA 
HETATM   15  P   UNL     1     -12.425  10.713  71.047  1.00  0.00    -0.454 P  
HETATM   16  O   UNL     1     -13.280  11.419  72.128  1.00  0.00    -0.490 OA 
HETATM   17  O   UNL     1     -13.642   9.729  70.552  1.00  0.00    -0.054 OA 
HETATM   18  O   UNL     1     -11.792   9.595  72.074  1.00  0.00    -0.308 OA 
ENDBRANCH  11  14
ENDBRANCH  10  11
ENDBRANCH   5  10
BRANCH   8  19
HETATM   19  C   UNL     1      -9.574  15.646  65.603  1.00  0.00    -0.284 C  
BRANCH  19  20
HETATM   20  O   UNL     1     -10.358  16.780  65.279  1.00  0.00    -0.622 OA 
HETATM   21  P   UNL     1     -10.232  18.073  66.194  1.00  0.00    -0.220 P  
HETATM   22  O   UNL     1     -10.999  19.153  65.304  1.00  0.00    -0.512 OA 
HETATM   23  O   UNL     1     -10.700  17.940  67.596  1.00  0.00    -0.399 OA 
HETATM   24  O   UNL     1      -8.718  18.512  65.953  1.00  0.00    -0.490 OA 
ENDBRANCH  19  20
ENDBRANCH   8  19
TORSDOF 5
ENDMDL
MODEL        5
REMARK 921   NORMALIZED FREE ENERGY PREDICTED BY IDOCK:   -6.53 KCAL/MOL
REMARK 922        TOTAL FREE ENERGY PREDICTED BY IDOCK:   -9.14 KCAL/MOL
REMARK 923 INTER-LIGAND FREE ENERGY PREDICTED BY IDOCK:   -8.62 KCAL/MOL
REMARK 924 INTRA-LIGAND FREE ENERGY PREDICTED BY IDOCK:   -0.52 KCAL/MOL
REMARK 927      BINDING AFFINITY PREDICTED BY RF-SCORE:    0.00 PKD
ROOT
HETATM    1  O   UNL     1     -11.946  10.985  68.036  1.00  0.00    -0.695 OA 
HETATM    2  H   UNL     1     -12.053  10.578  68.888  1.00  0.00     0.000 HD 
HETATM    3  C   UNL     1     -11.283  12.242  68.122  1.00  0.00    -0.269 C  
HETATM    4  C   UNL     1     -11.112  12.892  66.760  1.00  0.00    -0.281 C  
HETATM    5  C   UNL     1     -10.853  14.361  67.172  1.00  0.00    -0.292 C  
HETATM    6  O   UNL     1     -12.333  12.731  66.009  1.00  0.00    -0.547 OA 
HETATM    7  O   UNL     1     -11.684  14.579  68.326  1.00  0.00    -0.312 OA 
HETATM    8  C   UNL     1     -12.126  13.294  68.821  1.00  0.00    -0.219 C  
HETATM    9  H   UNL     1     -12.226  13.137  65.157  1.00  0.00     0.000 HD 
ENDROOT
BRANCH   5  10
HETATM   10  O   UNL     1     -11.137  15.192  66.070  1.00  0.00    -0.338 OA 
BRANCH  10  11
HETATM   11  P   UNL     1     -10.643  16.843  65.925  1.00  0.00    -0.029 P  
HETATM   12  O   UNL     1      -9.093  16.372  65.712  1.00  0.00    -0.465 OA 
HETATM   13  O   UNL     1     -11.277  16.900  64.528  1.00  0.00    -1.057 OA 
BRANCH  11  14
HETATM   14  O   UNL     1     -10.149  18.495  65.779  1.00  0.00    -0.537 OA 
HETATM   15  P   UNL     1     -10.272  19.272  67.320  1.00  0.00    -0.480 P  
HETATM   16  O   UNL     1     -10.382  19.967  68.699  1.00  0.00    -0.437 OA 
HETATM   17  O   UNL     1      -8.731  18.761  67.562  1.00  0.00    -0.271 OA 
HETATM   18  O   UNL     1      -9.811  20.629  66.513  1.00  0.00    -0.303 OA 
ENDBRANCH  11  14
ENDBRANCH  10  11
ENDBRANCH   5  10
BRANCH   8  19
HETATM   19  C   UNL     1     -11.987  13.235  70.340  1.00  0.00    -0.275 C  
BRANCH  19  20
HETATM   20  O   UNL     1     -13.056  13.990  70.879  1.00  0.00    -0.307 OA 
HETATM   21  P   UNL     1     -12.747  14.998  72.068  1.00  0.00    -0.394 P  
HETATM   22  O   UNL     1     -14.107  15.831  72.124  1.00  0.00    -0.463 OA 
HETATM   23  O   UNL     1     -12.305  14.394  73.349  1.00  0.00    -0.227 OA 
HETATM   24  O   UNL     1     -11.780  16.056  71.371  1.00  0.00    -0.421 OA 
ENDBRANCH  19  20
ENDBRANCH   8  19
TORSDOF 5
ENDMDL
MODEL        6
REMARK 921   NORMALIZED FREE ENERGY PREDICTED BY IDOCK:   -6.46 KCAL/MOL
REMARK 922        TOTAL FREE ENERGY PREDICTED BY IDOCK:   -9.05 KCAL/MOL
REMARK 923 INTER-LIGAND FREE ENERGY PREDICTED BY IDOCK:   -8.25 KCAL/MOL
REMARK 924 INTRA-LIGAND FREE ENERGY PREDICTED BY IDOCK:   -0.81 KCAL/MOL
REMARK 927      BINDING AFFINITY PREDICTED BY RF-SCORE:    0.00 PKD
ROOT
HETATM    1  O   UNL     1     -12.479  14.752  63.606  1.00  0.00    -1.064 OA 
HETATM    2  H   UNL     1     -12.002  15.447  63.168  1.00  0.00     0.000 HD 
HETATM    3  C   UNL     1     -12.130  14.648  64.983  1.00  0.00    -0.349 C  
HETATM    4  C   UNL     1     -12.892  13.537  65.683  1.00  0.00    -0.321 C  
HETATM    5  C   UNL     1     -12.008  13.325  66.935  1.00  0.00    -0.375 C  
HETATM    6  O   UNL     1     -12.926  12.380  64.822  1.00  0.00    -0.786 OA 
HETATM    7  O   UNL     1     -10.658  13.527  66.479  1.00  0.00    -0.277 OA 
HETATM    8  C   UNL     1     -10.704  14.168  65.184  1.00  0.00    -0.388 C  
HETATM    9  H   UNL     1     -13.403  11.684  65.261  1.00  0.00     0.000 HD 
ENDROOT
BRANCH   5  10
HETATM   10  O   UNL     1     -12.272  12.045  67.459  1.00  0.00    -0.490 OA 
BRANCH  10  11
HETATM   11  P   UNL     1     -11.482  11.358  68.836  1.00  0.00    -0.360 P  
HETATM   12  O   UNL     1     -11.515  12.806  69.590  1.00  0.00    -0.254 OA 
HETATM   13  O   UNL     1     -12.785  10.640  69.214  1.00  0.00    -0.202 OA 
BRANCH  11  14
HETATM   14  O   UNL     1     -10.692  10.671  70.213  1.00  0.00    -0.204 OA 
HETATM   15  P   UNL     1     -11.295   9.073  70.487  1.00  0.00    -0.166 P  
HETATM   16  O   UNL     1     -11.836   7.643  70.732  1.00  0.00    -0.279 OA 
HETATM   17  O   UNL     1     -10.103   8.581  69.473  1.00  0.00    -0.190 OA 
HETATM   18  O   UNL     1     -10.317   9.084  71.809  1.00  0.00    -0.332 OA 
ENDBRANCH  11  14
ENDBRANCH  10  11
ENDBRANCH   5  10
BRANCH   8  19
HETATM   19  C   UNL     1      -9.692  15.310  65.121  1.00  0.00    -0.001 C  
BRANCH  19  20
HETATM   20  O   UNL     1     -10.435  16.510  65.016  1.00  0.00    -0.652 OA 
HETATM   21  P   UNL     1     -10.222  17.632  66.121  1.00  0.00    -0.201 P  
HETATM   22  O   UNL     1     -10.971  18.870  65.449  1.00  0.00    -0.493 OA 
HETATM   23  O   UNL     1     -10.648  17.290  67.501  1.00  0.00    -0.354 OA 
HETATM   24  O   UNL     1      -8.699  18.046  65.893  1.00  0.00    -0.506 OA 
ENDBRANCH  19  20
ENDBRANCH   8  19
TORSDOF 5
ENDMDL
MODEL        7
REMARK 921   NORMALIZED FREE ENERGY PREDICTED BY IDOCK:   -6.44 KCAL/MOL
REMARK 922        TOTAL FREE ENERGY PREDICTED BY IDOCK:   -9.02 KCAL/MOL
REMARK 923 INTER-LIGAND FREE ENERGY PREDICTED BY IDOCK:   -8.55 KCAL/MOL
REMARK 924 INTRA-LIGAND FREE ENERGY PREDICTED BY IDOCK:   -0.47 KCAL/MOL
REMARK 927      BINDING AFFINITY PREDICTED BY RF-SCORE:    0.00 PKD
ROOT
HETATM    1  O   UNL     1     -13.326  12.238  64.468  1.00  0.00    -0.769 OA 
HETATM    2  H   UNL     1     -13.672  11.492  64.944  1.00  0.00     0.000 HD 
HETATM    3  C   UNL     1     -12.024  12.602  64.916  1.00  0.00    -0.406 C  
HETATM    4  C   UNL     1     -11.471  13.794  64.156  1.00  0.00    -0.293 C  
HETATM    5  C   UNL     1     -10.355  14.260  65.122  1.00  0.00    -0.415 C  
HETATM    6  O   UNL     1     -12.518  14.775  63.999  1.00  0.00    -0.910 OA 
HETATM    7  O   UNL     1     -10.880  14.026  66.441  1.00  0.00    -0.295 OA 
HETATM    8  C   UNL     1     -12.033  13.159  66.328  1.00  0.00    -0.415 C  
HETATM    9  H   UNL     1     -12.171  15.521  63.524  1.00  0.00     0.000 HD 
ENDROOT
BRANCH   5  10
HETATM   10  O   UNL     1     -10.047  15.604  64.836  1.00  0.00    -0.384 OA 
BRANCH  10  11
HETATM   11  P   UNL     1     -10.377  16.939  65.885  1.00  0.00    -0.153 P  
HETATM   12  O   UNL     1      -8.828  17.441  65.750  1.00  0.00    -0.522 OA 
HETATM   13  O   UNL     1     -11.158  17.623  64.755  1.00  0.00    -0.915 OA 
BRANCH  11  14
HETATM   14  O   UNL     1     -10.706  18.274  66.935  1.00  0.00    -0.352 OA 
HETATM   15  P   UNL     1      -9.368  19.371  66.910  1.00  0.00    -0.371 P  
HETATM   16  O   UNL     1      -8.170  20.352  66.888  1.00  0.00    -0.306 OA 
HETATM   17  O   UNL     1     -10.136  20.085  65.648  1.00  0.00    -0.404 OA 
HETATM   18  O   UNL     1     -10.217  20.208  68.042  1.00  0.00    -0.405 OA 
ENDBRANCH  11  14
ENDBRANCH  10  11
ENDBRANCH   5  10
BRANCH   8  19
HETATM   19  C   UNL     1     -11.976  12.061  67.387  1.00  0.00    -0.055 C  
BRANCH  19  20
HETATM   20  O   UNL     1     -11.509  10.892  66.739  1.00  0.00    -0.285 OA 
HETATM   21  P   UNL     1     -10.225  10.163  67.327  1.00  0.00    -0.251 P  
HETATM   22  O   UNL     1     -10.264   8.783  66.527  1.00  0.00    -0.288 OA 
HETATM   23  O   UNL     1      -8.948  10.915  67.259  1.00  0.00    -0.137 OA 
HETATM   24  O   UNL     1     -10.734   9.687  68.762  1.00  0.00    -0.221 OA 
ENDBRANCH  19  20
ENDBRANCH   8  19
TORSDOF 5
ENDMDL
MODEL        8
REMARK 921   NORMALIZED FREE ENERGY PREDICTED BY IDOCK:   -6.43 KCAL/MOL
REMARK 922        TOTAL FREE ENERGY PREDICTED BY IDOCK:   -9.01 KCAL/MOL
REMARK 923 INTER-LIGAND FREE ENERGY PREDICTED BY IDOCK:   -8.34 KCAL/MOL
REMARK 924 INTRA-LIGAND FREE ENERGY PREDICTED BY IDOCK:   -0.67 KCAL/MOL
REMARK 927      BINDING AFFINITY PREDICTED BY RF-SCORE:    0.00 PKD
ROOT
HETATM    1  O   UNL     1     -12.268  14.128  63.542  1.00  0.00    -1.007 OA 
HETATM    2  H   UNL     1     -12.152  14.821  62.902  1.00  0.00     0.000 HD 
HETATM    3  C   UNL     1     -12.376  14.635  64.868  1.00  0.00    -0.315 C  
HETATM    4  C   UNL     1     -12.561  13.529  65.891  1.00  0.00    -0.396 C  
HETATM    5  C   UNL     1     -12.158  14.265  67.190  1.00  0.00    -0.377 C  
HETATM    6  O   UNL     1     -11.671  12.440  65.568  1.00  0.00    -0.375 OA 
HETATM    7  O   UNL     1     -11.090  15.149  66.804  1.00  0.00    -0.323 OA 
HETATM    8  C   UNL     1     -11.075  15.245  65.361  1.00  0.00    -0.347 C  
HETATM    9  H   UNL     1     -11.788  11.747  66.207  1.00  0.00     0.000 HD 
ENDROOT
BRANCH   5  10
HETATM   10  O   UNL     1     -11.811  13.305  68.161  1.00  0.00    -0.335 OA 
BRANCH  10  11
HETATM   11  P   UNL     1     -12.243  13.389  69.833  1.00  0.00    -0.150 P  
HETATM   12  O   UNL     1     -11.634  11.893  70.077  1.00  0.00    -0.291 OA 
HETATM   13  O   UNL     1     -11.090  14.374  70.072  1.00  0.00    -0.192 OA 
BRANCH  11  14
HETATM   14  O   UNL     1     -12.675  13.473  71.507  1.00  0.00    -0.352 OA 
HETATM   15  P   UNL     1     -12.301  15.046  72.121  1.00  0.00    -0.379 P  
HETATM   16  O   UNL     1     -11.966  16.455  72.670  1.00  0.00    -0.538 OA 
HETATM   17  O   UNL     1     -13.815  15.459  71.639  1.00  0.00    -0.470 OA 
HETATM   18  O   UNL     1     -12.806  14.446  73.566  1.00  0.00    -0.458 OA 
ENDBRANCH  11  14
ENDBRANCH  10  11
ENDBRANCH   5  10
BRANCH   8  19
HETATM   19  C   UNL     1     -10.915  16.701  64.928  1.00  0.00    -0.150 C  
BRANCH  19  20
HETATM   20  O   UNL     1      -9.790  17.211  65.619  1.00  0.00    -0.552 OA 
HETATM   21  P   UNL     1      -9.924  18.615  66.350  1.00  0.00    -0.374 P  
HETATM   22  O   UNL     1      -8.592  18.631  67.229  1.00  0.00    -0.261 OA 
HETATM   23  O   UNL     1     -10.138  19.798  65.479  1.00  0.00    -0.366 OA 
HETATM   24  O   UNL     1     -11.015  18.309  67.472  1.00  0.00    -0.335 OA 
ENDBRANCH  19  20
ENDBRANCH   8  19
TORSDOF 5
ENDMDL
MODEL        9
REMARK 921   NORMALIZED FREE ENERGY PREDICTED BY IDOCK:   -6.39 KCAL/MOL
REMARK 922        TOTAL FREE ENERGY PREDICTED BY IDOCK:   -8.96 KCAL/MOL
REMARK 923 INTER-LIGAND FREE ENERGY PREDICTED BY IDOCK:   -8.29 KCAL/MOL
REMARK 924 INTRA-LIGAND FREE ENERGY PREDICTED BY IDOCK:   -0.67 KCAL/MOL
REMARK 927      BINDING AFFINITY PREDICTED BY RF-SCORE:    0.00 PKD
ROOT
HETATM    1  O   UNL     1     -12.375  14.011  63.296  1.00  0.00    -1.133 OA 
HETATM    2  H   UNL     1     -12.466  14.805  62.781  1.00  0.00     0.000 HD 
HETATM    3  C   UNL     1     -12.314  14.281  64.693  1.00  0.00    -0.415 C  
HETATM    4  C   UNL     1     -12.167  13.013  65.514  1.00  0.00    -0.469 C  
HETATM    5  C   UNL     1     -11.644  13.593  66.850  1.00  0.00    -0.367 C  
HETATM    6  O   UNL     1     -11.211  12.146  64.870  1.00  0.00    -0.309 OA 
HETATM    7  O   UNL     1     -10.788  14.687  66.473  1.00  0.00    -0.303 OA 
HETATM    8  C   UNL     1     -11.040  15.008  65.085  1.00  0.00    -0.401 C  
HETATM    9  H   UNL     1     -11.120  11.353  65.384  1.00  0.00     0.000 HD 
ENDROOT
BRANCH   5  10
HETATM   10  O   UNL     1     -11.007  12.562  67.568  1.00  0.00    -0.235 OA 
BRANCH  10  11
HETATM   11  P   UNL     1     -11.466  12.027  69.147  1.00  0.00    -0.320 P  
HETATM   12  O   UNL     1     -12.344  13.388  69.363  1.00  0.00    -0.236 OA 
HETATM   13  O   UNL     1     -12.410  10.996  68.513  1.00  0.00    -0.536 OA 
BRANCH  11  14
HETATM   14  O   UNL     1     -11.926  11.493  70.727  1.00  0.00    -0.344 OA 
HETATM   15  P   UNL     1     -12.049   9.768  70.739  1.00  0.00    -0.225 P  
HETATM   16  O   UNL     1     -12.159   8.223  70.749  1.00  0.00    -0.206 OA 
HETATM   17  O   UNL     1     -10.456   9.779  71.132  1.00  0.00    -0.274 OA 
HETATM   18  O   UNL     1     -12.547   9.956  72.295  1.00  0.00    -0.294 OA 
ENDBRANCH  11  14
ENDBRANCH  10  11
ENDBRANCH   5  10
BRANCH   8  19
HETATM   19  C   UNL     1     -11.155  16.520  64.904  1.00  0.00    -0.190 C  
BRANCH  19  20
HETATM   20  O   UNL     1      -9.993  17.090  65.479  1.00  0.00    -0.567 OA 
HETATM   21  P   UNL     1     -10.160  18.363  66.415  1.00  0.00    -0.385 P  
HETATM   22  O   UNL     1      -8.708  18.452  67.072  1.00  0.00    -0.258 OA 
HETATM   23  O   UNL     1     -10.652  19.603  65.764  1.00  0.00    -0.522 OA 
HETATM   24  O   UNL     1     -11.003  17.778  67.635  1.00  0.00    -0.301 OA 
ENDBRANCH  19  20
ENDBRANCH   8  19
TORSDOF 5
ENDMDL
MODEL       10
REMARK 921   NORMALIZED FREE ENERGY PREDICTED BY IDOCK:   -6.34 KCAL/MOL
REMARK 922        TOTAL FREE ENERGY PREDICTED BY IDOCK:   -8.90 KCAL/MOL
REMARK 923 INTER-LIGAND FREE ENERGY PREDICTED BY IDOCK:   -8.26 KCAL/MOL
REMARK 924 INTRA-LIGAND FREE ENERGY PREDICTED BY IDOCK:   -0.64 KCAL/MOL
REMARK 927      BINDING AFFINITY PREDICTED BY RF-SCORE:    0.00 PKD
ROOT
HETATM    1  O   UNL     1     -11.963  16.654  71.637  1.00  0.00    -0.598 OA 
HETATM    2  H   UNL     1     -11.636  17.531  71.797  1.00  0.00     0.000 HD 
HETATM    3  C   UNL     1     -11.169  15.950  70.687  1.00  0.00    -0.378 C  
HETATM    4  C   UNL     1     -11.693  14.548  70.430  1.00  0.00    -0.290 C  
HETATM    5  C   UNL     1     -11.005  14.226  69.082  1.00  0.00    -0.261 C  
HETATM    6  O   UNL     1     -13.131  14.599  70.324  1.00  0.00    -0.566 OA 
HETATM    7  O   UNL     1     -10.986  15.472  68.363  1.00  0.00    -0.269 OA 
HETATM    8  C   UNL     1     -11.278  16.541  69.292  1.00  0.00    -0.213 C  
HETATM    9  H   UNL     1     -13.459  13.722  70.163  1.00  0.00     0.000 HD 
ENDROOT
BRANCH   5  10
HETATM   10  O   UNL     1     -11.718  13.187  68.452  1.00  0.00    -0.310 OA 
BRANCH  10  11
HETATM   11  P   UNL     1     -11.334  12.522  66.902  1.00  0.00    -0.365 P  
HETATM   12  O   UNL     1     -11.788  11.039  67.415  1.00  0.00    -0.523 OA 
HETATM   13  O   UNL     1     -12.589  13.185  66.317  1.00  0.00    -0.366 OA 
BRANCH  11  14
HETATM   14  O   UNL     1     -10.949  11.856  65.352  1.00  0.00    -0.289 OA 
HETATM   15  P   UNL     1     -11.762  12.758  64.120  1.00  0.00    -0.480 P  
HETATM   16  O   UNL     1     -12.490  13.565  63.017  1.00  0.00    -0.709 OA 
HETATM   17  O   UNL     1     -10.430  13.716  64.115  1.00  0.00    -0.305 OA 
HETATM   18  O   UNL     1     -11.110  11.659  63.085  1.00  0.00    -0.286 OA 
ENDBRANCH  11  14
ENDBRANCH  10  11
ENDBRANCH   5  10
BRANCH   8  19
HETATM   19  C   UNL     1     -10.315  17.707  69.078  1.00  0.00    -0.272 C  
BRANCH  19  20
HETATM   20  O   UNL     1      -9.531  17.386  67.945  1.00  0.00    -0.255 OA 
HETATM   21  P   UNL     1      -9.261  18.521  66.865  1.00  0.00    -0.307 P  
HETATM   22  O   UNL     1      -8.116  17.841  65.986  1.00  0.00    -0.484 OA 
HETATM   23  O   UNL     1     -10.443  19.017  66.117  1.00  0.00    -0.439 OA 
HETATM   24  O   UNL     1      -8.407  19.581  67.696  1.00  0.00    -0.290 OA 
ENDBRANCH  19  20
ENDBRANCH   8  19
TORSDOF 5
ENDMDL
MODEL       11
REMARK 921   NORMALIZED FREE ENERGY PREDICTED BY IDOCK:   -6.33 KCAL/MOL
REMARK 922        TOTAL FREE ENERGY PREDICTED BY IDOCK:   -8.88 KCAL/MOL
REMARK 923 INTER-LIGAND FREE ENERGY PREDICTED BY IDOCK:   -8.37 KCAL/MOL
REMARK 924 INTRA-LIGAND FREE ENERGY PREDICTED BY IDOCK:   -0.51 KCAL/MOL
REMARK 927      BINDING AFFINITY PREDICTED BY RF-SCORE:    0.00 PKD
ROOT
HETATM    1  O   UNL     1     -13.081  11.999  63.272  1.00  0.00    -0.701 OA 
HETATM    2  H   UNL     1     -12.924  11.156  62.863  1.00  0.00     0.000 HD 
HETATM    3  C   UNL     1     -11.869  12.691  63.557  1.00  0.00    -0.541 C  
HETATM    4  C   UNL     1     -12.119  14.038  64.211  1.00  0.00    -0.445 C  
HETATM    5  C   UNL     1     -10.731  14.318  64.834  1.00  0.00    -0.432 C  
HETATM    6  O   UNL     1     -13.156  13.890  65.204  1.00  0.00    -0.773 OA 
HETATM    7  O   UNL     1     -10.245  13.033  65.263  1.00  0.00    -0.292 OA 
HETATM    8  C   UNL     1     -11.055  12.008  64.642  1.00  0.00    -0.322 C  
HETATM    9  H   UNL     1     -13.312  14.733  65.613  1.00  0.00     0.000 HD 
ENDROOT
BRANCH   5  10
HETATM   10  O   UNL     1     -10.885  15.268  65.863  1.00  0.00    -0.328 OA 
BRANCH  10  11
HETATM   11  P   UNL     1     -10.148  16.833  65.883  1.00  0.00    -0.200 P  
HETATM   12  O   UNL     1     -11.147  17.329  64.689  1.00  0.00    -1.052 OA 
HETATM   13  O   UNL     1     -10.862  17.142  67.206  1.00  0.00    -0.251 OA 
BRANCH  11  14
HETATM   14  O   UNL     1      -9.411  18.398  65.902  1.00  0.00    -0.496 OA 
HETATM   15  P   UNL     1      -8.043  18.379  66.960  1.00  0.00    -0.243 P  
HETATM   16  O   UNL     1      -6.818  18.361  67.907  1.00  0.00    -0.211 OA 
HETATM   17  O   UNL     1      -7.184  17.916  65.640  1.00  0.00    -0.514 OA 
HETATM   18  O   UNL     1      -7.928  19.981  66.609  1.00  0.00    -0.295 OA 
ENDBRANCH  11  14
ENDBRANCH  10  11
ENDBRANCH   5  10
BRANCH   8  19
HETATM   19  C   UNL     1     -10.168  10.894  64.090  1.00  0.00    -0.359 C  
BRANCH  19  20
HETATM   20  O   UNL     1     -10.159   9.861  65.058  1.00  0.00    -0.286 OA 
HETATM   21  P   UNL     1      -8.777   9.156  65.399  1.00  0.00    -0.198 P  
HETATM   22  O   UNL     1      -9.168   8.335  66.710  1.00  0.00    -0.150 OA 
HETATM   23  O   UNL     1      -8.147   8.371  64.308  1.00  0.00    -0.150 OA 
HETATM   24  O   UNL     1      -7.936  10.351  66.037  1.00  0.00    -0.132 OA 
ENDBRANCH  19  20
ENDBRANCH   8  19
TORSDOF 5
ENDMDL
MODEL       12
REMARK 921   NORMALIZED FREE ENERGY PREDICTED BY IDOCK:   -6.32 KCAL/MOL
REMARK 922        TOTAL FREE ENERGY PREDICTED BY IDOCK:   -8.87 KCAL/MOL
REMARK 923 INTER-LIGAND FREE ENERGY PREDICTED BY IDOCK:   -7.88 KCAL/MOL
REMARK 924 INTRA-LIGAND FREE ENERGY PREDICTED BY IDOCK:   -0.99 KCAL/MOL
REMARK 927      BINDING AFFINITY PREDICTED BY RF-SCORE:    0.00 PKD
ROOT
HETATM    1  O   UNL     1     -11.417  16.398  63.693  1.00  0.00    -1.446 OA 
HETATM    2  H   UNL     1     -10.945  17.222  63.667  1.00  0.00     0.000 HD 
HETATM    3  C   UNL     1     -11.446  15.838  65.002  1.00  0.00    -0.122 C  
HETATM    4  C   UNL     1     -12.200  14.520  65.044  1.00  0.00    -0.373 C  
HETATM    5  C   UNL     1     -11.670  13.927  66.371  1.00  0.00    -0.383 C  
HETATM    6  O   UNL     1     -11.829  13.733  63.893  1.00  0.00    -0.591 OA 
HETATM    7  O   UNL     1     -10.292  14.333  66.440  1.00  0.00    -0.275 OA 
HETATM    8  C   UNL     1     -10.075  15.381  65.466  1.00  0.00    -0.373 C  
HETATM    9  H   UNL     1     -12.301  12.909  63.919  1.00  0.00     0.000 HD 
ENDROOT
BRANCH   5  10
HETATM   10  O   UNL     1     -11.878  12.533  66.353  1.00  0.00    -0.428 OA 
BRANCH  10  11
HETATM   11  P   UNL     1     -10.639  11.346  66.569  1.00  0.00    -0.269 P  
HETATM   12  O   UNL     1     -11.629  10.472  67.530  1.00  0.00    -0.421 OA 
HETATM   13  O   UNL     1     -10.876  10.852  65.135  1.00  0.00    -0.192 OA 
BRANCH  11  14
HETATM   14  O   UNL     1      -9.400  10.158  66.785  1.00  0.00    -0.155 OA 
HETATM   15  P   UNL     1      -8.223  10.317  65.527  1.00  0.00    -0.163 P  
HETATM   16  O   UNL     1      -7.169  10.460  64.401  1.00  0.00    -0.104 OA 
HETATM   17  O   UNL     1      -7.475  11.379  66.530  1.00  0.00    -0.135 OA 
HETATM   18  O   UNL     1      -7.518   9.001  66.216  1.00  0.00    -0.090 OA 
ENDBRANCH  11  14
ENDBRANCH  10  11
ENDBRANCH   5  10
BRANCH   8  19
HETATM   19  C   UNL     1      -9.262  16.517  66.083  1.00  0.00    -0.303 C  
BRANCH  19  20
HETATM   20  O   UNL     1     -10.002  17.707  65.880  1.00  0.00    -0.517 OA 
HETATM   21  P   UNL     1      -9.453  19.056  66.515  1.00  0.00    -0.346 P  
HETATM   22  O   UNL     1     -10.375  20.135  65.786  1.00  0.00    -0.443 OA 
HETATM   23  O   UNL     1      -9.425  19.126  67.998  1.00  0.00    -0.307 OA 
HETATM   24  O   UNL     1      -8.079  19.264  65.734  1.00  0.00    -0.448 OA 
ENDBRANCH  19  20
ENDBRANCH   8  19
TORSDOF 5
ENDMDL
MODEL       13
REMARK 921   NORMALIZED FREE ENERGY PREDICTED BY IDOCK:   -6.31 KCAL/MOL
REMARK 922        TOTAL FREE ENERGY PREDICTED BY IDOCK:   -8.86 KCAL/MOL
REMARK 923 INTER-LIGAND FREE ENERGY PREDICTED BY IDOCK:   -8.14 KCAL/MOL
REMARK 924 INTRA-LIGAND FREE ENERGY PREDICTED BY IDOCK:   -0.72 KCAL/MOL
REMARK 927      BINDING AFFINITY PREDICTED BY RF-SCORE:    0.00 PKD
ROOT
HETATM    1  O   UNL     1     -11.873   9.007  70.376  1.00  0.00    -0.457 OA 
HETATM    2  H   UNL     1     -12.386   8.968  71.174  1.00  0.00     0.000 HD 
HETATM    3  C   UNL     1     -11.192  10.250  70.235  1.00  0.00    -0.323 C  
HETATM    4  C   UNL     1     -10.372  10.312  68.959  1.00  0.00    -0.211 C  
HETATM    5  C   UNL     1     -10.174  11.840  68.817  1.00  0.00    -0.160 C  
HETATM    6  O   UNL     1     -11.144   9.746  67.879  1.00  0.00    -0.471 OA 
HETATM    7  O   UNL     1     -11.404  12.422  69.286  1.00  0.00    -0.259 OA 
HETATM    8  C   UNL     1     -12.146  11.408  70.001  1.00  0.00    -0.340 C  
HETATM    9  H   UNL     1     -10.630   9.785  67.081  1.00  0.00     0.000 HD 
ENDROOT
BRANCH   5  10
HETATM   10  O   UNL     1      -9.856  12.127  67.475  1.00  0.00    -0.187 OA 
BRANCH  10  11
HETATM   11  P   UNL     1     -10.510  13.444  66.564  1.00  0.00    -0.291 P  
HETATM   12  O   UNL     1      -9.120  14.280  66.754  1.00  0.00    -0.249 OA 
HETATM   13  O   UNL     1     -10.352  12.621  65.278  1.00  0.00    -0.281 OA 
BRANCH  11  14
HETATM   14  O   UNL     1     -11.164  14.761  65.652  1.00  0.00    -0.332 OA 
HETATM   15  P   UNL     1     -12.008  14.145  64.274  1.00  0.00    -0.306 P  
HETATM   16  O   UNL     1     -12.763  13.594  63.039  1.00  0.00    -0.681 OA 
HETATM   17  O   UNL     1     -13.321  14.085  65.258  1.00  0.00    -0.741 OA 
HETATM   18  O   UNL     1     -12.236  15.727  63.885  1.00  0.00    -0.690 OA 
ENDBRANCH  11  14
ENDBRANCH  10  11
ENDBRANCH   5  10
BRANCH   8  19
HETATM   19  C   UNL     1     -12.700  11.977  71.305  1.00  0.00    -0.279 C  
BRANCH  19  20
HETATM   20  O   UNL     1     -13.328  13.204  70.982  1.00  0.00    -0.045 OA 
HETATM   21  P   UNL     1     -12.982  14.485  71.856  1.00  0.00    -0.394 P  
HETATM   22  O   UNL     1     -13.626  15.644  70.968  1.00  0.00    -0.588 OA 
HETATM   23  O   UNL     1     -13.404  14.449  73.279  1.00  0.00    -0.616 OA 
HETATM   24  O   UNL     1     -11.433  14.698  71.544  1.00  0.00    -0.244 OA 
ENDBRANCH  19  20
ENDBRANCH   8  19
TORSDOF 5
ENDMDL
MODEL       14
REMARK 921   NORMALIZED FREE ENERGY PREDICTED BY IDOCK:   -6.31 KCAL/MOL
REMARK 922        TOTAL FREE ENERGY PREDICTED BY IDOCK:   -8.86 KCAL/MOL
REMARK 923 INTER-LIGAND FREE ENERGY PREDICTED BY IDOCK:   -8.06 KCAL/MOL
REMARK 924 INTRA-LIGAND FREE ENERGY PREDICTED BY IDOCK:   -0.80 KCAL/MOL
REMARK 927      BINDING AFFINITY PREDICTED BY RF-SCORE:    0.00 PKD
ROOT
HETATM    1  O   UNL     1     -13.150   8.699  72.993  1.00  0.00    -0.732 OA 
HETATM    2  H   UNL     1     -12.789   7.915  73.390  1.00  0.00     0.000 HD 
HETATM    3  C   UNL     1     -12.535   8.999  71.744  1.00  0.00    -0.368 C  
HETATM    4  C   UNL     1     -13.112  10.252  71.109  1.00  0.00    -0.390 C  
HETATM    5  C   UNL     1     -11.993  10.606  70.100  1.00  0.00    -0.334 C  
HETATM    6  O   UNL     1     -13.280  11.258  72.130  1.00  0.00    -0.579 OA 
HETATM    7  O   UNL     1     -10.765  10.251  70.762  1.00  0.00    -0.220 OA 
HETATM    8  C   UNL     1     -11.084   9.416  71.899  1.00  0.00    -0.124 C  
HETATM    9  H   UNL     1     -13.641  12.042  71.732  1.00  0.00     0.000 HD 
ENDROOT
BRANCH   5  10
HETATM   10  O   UNL     1     -12.111  11.967  69.758  1.00  0.00    -0.294 OA 
BRANCH  10  11
HETATM   11  P   UNL     1     -11.605  12.657  68.255  1.00  0.00    -0.348 P  
HETATM   12  O   UNL     1     -10.040  12.477  68.689  1.00  0.00    -0.210 OA 
HETATM   13  O   UNL     1     -12.009  11.362  67.535  1.00  0.00    -0.626 OA 
BRANCH  11  14
HETATM   14  O   UNL     1     -11.096  13.346  66.752  1.00  0.00    -0.284 OA 
HETATM   15  P   UNL     1     -12.115  12.768  65.479  1.00  0.00    -0.412 P  
HETATM   16  O   UNL     1     -13.027  12.249  64.339  1.00  0.00    -0.719 OA 
HETATM   17  O   UNL     1     -13.071  14.056  65.825  1.00  0.00    -0.543 OA 
HETATM   18  O   UNL     1     -11.125  13.629  64.488  1.00  0.00    -0.364 OA 
ENDBRANCH  11  14
ENDBRANCH  10  11
ENDBRANCH   5  10
BRANCH   8  19
HETATM   19  C   UNL     1     -10.138   8.219  71.959  1.00  0.00    -0.261 C  
BRANCH  19  20
HETATM   20  O   UNL     1     -10.945   7.067  72.117  1.00  0.00    -0.223 OA 
HETATM   21  P   UNL     1     -10.386   5.866  72.994  1.00  0.00    -0.231 P  
HETATM   22  O   UNL     1     -11.698   4.975  73.165  1.00  0.00    -0.313 OA 
HETATM   23  O   UNL     1      -9.190   5.163  72.468  1.00  0.00    -0.132 OA 
HETATM   24  O   UNL     1     -10.285   6.524  74.443  1.00  0.00    -0.351 OA 
ENDBRANCH  19  20
ENDBRANCH   8  19
TORSDOF 5
ENDMDL
MODEL       15
REMARK 921   NORMALIZED FREE ENERGY PREDICTED BY IDOCK:   -6.27 KCAL/MOL
REMARK 922        TOTAL FREE ENERGY PREDICTED BY IDOCK:   -8.80 KCAL/MOL
REMARK 923 INTER-LIGAND FREE ENERGY PREDICTED BY IDOCK:   -8.11 KCAL/MOL
REMARK 924 INTRA-LIGAND FREE ENERGY PREDICTED BY IDOCK:   -0.69 KCAL/MOL
REMARK 927      BINDING AFFINITY PREDICTED BY RF-SCORE:    0.00 PKD
ROOT
HETATM    1  O   UNL     1     -12.045  15.969  63.806  1.00  0.00    -1.318 OA 
HETATM    2  H   UNL     1     -11.912  16.897  63.958  1.00  0.00     0.000 HD 
HETATM    3  C   UNL     1     -11.699  15.184  64.942  1.00  0.00    -0.290 C  
HETATM    4  C   UNL     1     -11.911  13.700  64.699  1.00  0.00    -0.407 C  
HETATM    5  C   UNL     1     -11.034  13.095  65.820  1.00  0.00    -0.277 C  
HETATM    6  O   UNL     1     -11.433  13.371  63.378  1.00  0.00    -0.618 OA 
HETATM    7  O   UNL     1      -9.900  13.975  65.925  1.00  0.00    -0.304 OA 
HETATM    8  C   UNL     1     -10.207  15.202  65.224  1.00  0.00    -0.368 C  
HETATM    9  H   UNL     1     -11.567  12.442  63.225  1.00  0.00     0.000 HD 
ENDROOT
BRANCH   5  10
HETATM   10  O   UNL     1     -10.723  11.764  65.477  1.00  0.00    -0.265 OA 
BRANCH  10  11
HETATM   11  P   UNL     1     -10.184  10.556  66.591  1.00  0.00    -0.222 P  
HETATM   12  O   UNL     1      -8.632  10.996  66.334  1.00  0.00    -0.155 OA 
HETATM   13  O   UNL     1     -10.693  11.417  67.756  1.00  0.00    -0.191 OA 
BRANCH  11  14
HETATM   14  O   UNL     1      -9.644   9.348  67.706  1.00  0.00    -0.132 OA 
HETATM   15  P   UNL     1     -10.479   7.865  67.398  1.00  0.00    -0.237 P  
HETATM   16  O   UNL     1     -11.227   6.537  67.122  1.00  0.00    -0.388 OA 
HETATM   17  O   UNL     1      -9.259   7.540  66.349  1.00  0.00    -0.166 OA 
HETATM   18  O   UNL     1      -9.656   7.296  68.703  1.00  0.00    -0.141 OA 
ENDBRANCH  11  14
ENDBRANCH  10  11
ENDBRANCH   5  10
BRANCH   8  19
HETATM   19  C   UNL     1      -9.788  16.409  66.060  1.00  0.00    -0.335 C  
BRANCH  19  20
HETATM   20  O   UNL     1     -10.524  17.517  65.577  1.00  0.00    -0.628 OA 
HETATM   21  P   UNL     1     -10.279  18.938  66.245  1.00  0.00    -0.414 P  
HETATM   22  O   UNL     1     -11.032  19.895  65.215  1.00  0.00    -0.371 OA 
HETATM   23  O   UNL     1     -10.677  19.078  67.668  1.00  0.00    -0.443 OA 
HETATM   24  O   UNL     1      -8.758  19.231  65.866  1.00  0.00    -0.443 OA 
ENDBRANCH  19  20
ENDBRANCH   8  19
TORSDOF 5
ENDMDL
MODEL       16
REMARK 921   NORMALIZED FREE ENERGY PREDICTED BY IDOCK:   -6.26 KCAL/MOL
REMARK 922        TOTAL FREE ENERGY PREDICTED BY IDOCK:   -8.79 KCAL/MOL
REMARK 923 INTER-LIGAND FREE ENERGY PREDICTED BY IDOCK:   -8.04 KCAL/MOL
REMARK 924 INTRA-LIGAND FREE ENERGY PREDICTED BY IDOCK:   -0.74 KCAL/MOL
REMARK 927      BINDING AFFINITY PREDICTED BY RF-SCORE:    0.00 PKD
ROOT
HETATM    1  O   UNL     1     -12.042  14.994  63.822  1.00  0.00    -0.918 OA 
HETATM    2  H   UNL     1     -11.611  15.797  63.552  1.00  0.00     0.000 HD 
HETATM    3  C   UNL     1     -11.849  14.721  65.206  1.00  0.00    -0.276 C  
HETATM    4  C   UNL     1     -12.536  13.438  65.638  1.00  0.00    -0.438 C  
HETATM    5  C   UNL     1     -11.787  13.139  66.958  1.00  0.00    -0.379 C  
HETATM    6  O   UNL     1     -12.316  12.429  64.630  1.00  0.00    -0.452 OA 
HETATM    7  O   UNL     1     -10.431  13.558  66.722  1.00  0.00    -0.269 OA 
HETATM    8  C   UNL     1     -10.406  14.379  65.532  1.00  0.00    -0.362 C  
HETATM    9  H   UNL     1     -12.747  11.626  64.900  1.00  0.00     0.000 HD 
ENDROOT
BRANCH   5  10
HETATM   10  O   UNL     1     -11.942  11.772  67.261  1.00  0.00    -0.618 OA 
BRANCH  10  11
HETATM   11  P   UNL     1     -11.249  10.979  68.633  1.00  0.00    -0.319 P  
HETATM   12  O   UNL     1     -12.725  10.864  69.324  1.00  0.00    -0.282 OA 
HETATM   13  O   UNL     1     -11.061   9.709  67.793  1.00  0.00    -0.219 OA 
BRANCH  11  14
HETATM   14  O   UNL     1     -10.557  10.186  70.006  1.00  0.00    -0.262 OA 
HETATM   15  P   UNL     1      -9.439   8.979  69.472  1.00  0.00    -0.177 P  
HETATM   16  O   UNL     1      -8.439   7.898  68.993  1.00  0.00    -0.129 OA 
HETATM   17  O   UNL     1      -8.317  10.175  69.512  1.00  0.00    -0.154 OA 
HETATM   18  O   UNL     1      -9.278   8.624  71.069  1.00  0.00    -0.167 OA 
ENDBRANCH  11  14
ENDBRANCH  10  11
ENDBRANCH   5  10
BRANCH   8  19
HETATM   19  C   UNL     1      -9.552  15.623  65.765  1.00  0.00    -0.326 C  
BRANCH  19  20
HETATM   20  O   UNL     1     -10.337  16.737  65.381  1.00  0.00    -0.597 OA 
HETATM   21  P   UNL     1     -10.232  18.069  66.240  1.00  0.00    -0.276 P  
HETATM   22  O   UNL     1     -10.993  19.104  65.293  1.00  0.00    -0.512 OA 
HETATM   23  O   UNL     1     -10.719  17.994  67.640  1.00  0.00    -0.415 OA 
HETATM   24  O   UNL     1      -8.717  18.507  66.001  1.00  0.00    -0.497 OA 
ENDBRANCH  19  20
ENDBRANCH   8  19
TORSDOF 5
ENDMDL
MODEL       17
REMARK 921   NORMALIZED FREE ENERGY PREDICTED BY IDOCK:   -6.25 KCAL/MOL
REMARK 922        TOTAL FREE ENERGY PREDICTED BY IDOCK:   -8.79 KCAL/MOL
REMARK 923 INTER-LIGAND FREE ENERGY PREDICTED BY IDOCK:   -8.09 KCAL/MOL
REMARK 924 INTRA-LIGAND FREE ENERGY PREDICTED BY IDOCK:   -0.69 KCAL/MOL
REMARK 927      BINDING AFFINITY PREDICTED BY RF-SCORE:    0.00 PKD
ROOT
HETATM    1  O   UNL     1     -10.991  16.190  63.969  1.00  0.00    -1.033 OA 
HETATM    2  H   UNL     1     -10.980  17.137  64.040  1.00  0.00     0.000 HD 
HETATM    3  C   UNL     1     -10.878  15.556  65.239  1.00  0.00    -0.411 C  
HETATM    4  C   UNL     1     -10.894  14.042  65.127  1.00  0.00    -0.369 C  
HETATM    5  C   UNL     1     -10.282  13.645  66.491  1.00  0.00    -0.284 C  
HETATM    6  O   UNL     1     -10.070  13.648  64.010  1.00  0.00    -0.710 OA 
HETATM    7  O   UNL     1      -9.292  14.652  66.766  1.00  0.00    -0.232 OA 
HETATM    8  C   UNL     1      -9.514  15.767  65.872  1.00  0.00    -0.342 C  
HETATM    9  H   UNL     1     -10.080  12.701  63.939  1.00  0.00     0.000 HD 
ENDROOT
BRANCH   5  10
HETATM   10  O   UNL     1      -9.782  12.331  66.392  1.00  0.00    -0.224 OA 
BRANCH  10  11
HETATM   11  P   UNL     1     -10.368  10.979  67.297  1.00  0.00    -0.236 P  
HETATM   12  O   UNL     1     -11.854  11.654  67.362  1.00  0.00    -0.603 OA 
HETATM   13  O   UNL     1     -10.333  10.123  66.024  1.00  0.00    -0.232 OA 
BRANCH  11  14
HETATM   14  O   UNL     1     -10.955   9.627  68.203  1.00  0.00    -0.216 OA 
HETATM   15  P   UNL     1      -9.996   9.427  69.628  1.00  0.00    -0.228 P  
HETATM   16  O   UNL     1      -9.137   9.248  70.904  1.00  0.00    -0.241 OA 
HETATM   17  O   UNL     1     -11.061  10.453  70.340  1.00  0.00    -0.301 OA 
HETATM   18  O   UNL     1     -10.928   8.099  69.897  1.00  0.00    -0.240 OA 
ENDBRANCH  11  14
ENDBRANCH  10  11
ENDBRANCH   5  10
BRANCH   8  19
HETATM   19  C   UNL     1      -9.427  17.085  66.638  1.00  0.00    -0.263 C  
BRANCH  19  20
HETATM   20  O   UNL     1     -10.352  17.971  66.036  1.00  0.00    -0.467 OA 
HETATM   21  P   UNL     1     -10.245  19.520  66.372  1.00  0.00    -0.550 P  
HETATM   22  O   UNL     1     -11.218  20.140  65.270  1.00  0.00    -0.173 OA 
HETATM   23  O   UNL     1     -10.522  19.915  67.776  1.00  0.00    -0.407 OA 
HETATM   24  O   UNL     1      -8.823  19.901  65.759  1.00  0.00    -0.330 OA 
ENDBRANCH  19  20
ENDBRANCH   8  19
TORSDOF 5
ENDMDL
MODEL       18
REMARK 921   NORMALIZED FREE ENERGY PREDICTED BY IDOCK:   -6.17 KCAL/MOL
REMARK 922        TOTAL FREE ENERGY PREDICTED BY IDOCK:   -8.68 KCAL/MOL
REMARK 923 INTER-LIGAND FREE ENERGY PREDICTED BY IDOCK:   -7.94 KCAL/MOL
REMARK 924 INTRA-LIGAND FREE ENERGY PREDICTED BY IDOCK:   -0.74 KCAL/MOL
REMARK 927      BINDING AFFINITY PREDICTED BY RF-SCORE:    0.00 PKD
ROOT
HETATM    1  O   UNL     1     -13.440  10.712  72.304  1.00  0.00    -0.594 OA 
HETATM    2  H   UNL     1     -13.573   9.967  72.879  1.00  0.00     0.000 HD 
HETATM    3  C   UNL     1     -12.855  10.335  71.062  1.00  0.00    -0.397 C  
HETATM    4  C   UNL     1     -12.643  11.526  70.145  1.00  0.00    -0.071 C  
HETATM    5  C   UNL     1     -11.601  10.948  69.157  1.00  0.00    -0.319 C  
HETATM    6  O   UNL     1     -12.126  12.627  70.921  1.00  0.00    -0.456 OA 
HETATM    7  O   UNL     1     -10.762  10.094  69.955  1.00  0.00    -0.268 OA 
HETATM    8  C   UNL     1     -11.424   9.855  71.219  1.00  0.00    -0.361 C  
HETATM    9  H   UNL     1     -11.993  13.372  70.347  1.00  0.00     0.000 HD 
ENDROOT
BRANCH   5  10
HETATM   10  O   UNL     1     -10.933  12.020  68.532  1.00  0.00    -0.214 OA 
BRANCH  10  11
HETATM   11  P   UNL     1     -11.582  12.972  67.243  1.00  0.00    -0.371 P  
HETATM   12  O   UNL     1     -11.784  14.233  68.262  1.00  0.00    -0.306 OA 
HETATM   13  O   UNL     1     -10.174  13.112  66.650  1.00  0.00    -0.250 OA 
BRANCH  11  14
HETATM   14  O   UNL     1     -12.232  13.925  65.953  1.00  0.00    -0.412 OA 
HETATM   15  P   UNL     1     -11.935  13.133  64.444  1.00  0.00    -0.440 P  
HETATM   16  O   UNL     1     -11.668  12.423  63.094  1.00  0.00    -0.402 OA 
HETATM   17  O   UNL     1     -13.369  12.377  64.699  1.00  0.00    -0.778 OA 
HETATM   18  O   UNL     1     -12.629  14.463  63.772  1.00  0.00    -0.829 OA 
ENDBRANCH  11  14
ENDBRANCH  10  11
ENDBRANCH   5  10
BRANCH   8  19
HETATM   19  C   UNL     1     -11.344   8.375  71.587  1.00  0.00    -0.286 C  
BRANCH  19  20
HETATM   20  O   UNL     1     -10.258   7.830  70.860  1.00  0.00    -0.198 OA 
HETATM   21  P   UNL     1     -10.333   6.306  70.418  1.00  0.00    -0.237 P  
HETATM   22  O   UNL     1      -9.114   6.226  69.391  1.00  0.00    -0.138 OA 
HETATM   23  O   UNL     1     -10.328   5.299  71.508  1.00  0.00    -0.211 OA 
HETATM   24  O   UNL     1     -11.569   6.307  69.411  1.00  0.00    -0.403 OA 
ENDBRANCH  19  20
ENDBRANCH   8  19
TORSDOF 5
ENDMDL
MODEL       19
REMARK 921   NORMALIZED FREE ENERGY PREDICTED BY IDOCK:   -6.15 KCAL/MOL
REMARK 922        TOTAL FREE ENERGY PREDICTED BY IDOCK:   -8.65 KCAL/MOL
REMARK 923 INTER-LIGAND FREE ENERGY PREDICTED BY IDOCK:   -7.47 KCAL/MOL
REMARK 924 INTRA-LIGAND FREE ENERGY PREDICTED BY IDOCK:   -1.18 KCAL/MOL
REMARK 927      BINDING AFFINITY PREDICTED BY RF-SCORE:    0.00 PKD
ROOT
HETATM    1  O   UNL     1     -11.501  13.690  67.700  1.00  0.00    -0.291 OA 
HETATM    2  H   UNL     1     -11.806  13.159  66.974  1.00  0.00     0.000 HD 
HETATM    3  C   UNL     1     -11.546  15.082  67.403  1.00  0.00    -0.291 C  
HETATM    4  C   UNL     1     -11.058  15.931  68.563  1.00  0.00    -0.340 C  
HETATM    5  C   UNL     1     -10.747  17.262  67.837  1.00  0.00    -0.351 C  
HETATM    6  O   UNL     1      -9.881  15.316  69.129  1.00  0.00    -0.215 OA 
HETATM    7  O   UNL     1     -10.234  16.875  66.549  1.00  0.00    -0.299 OA 
HETATM    8  C   UNL     1     -10.542  15.478  66.335  1.00  0.00    -0.311 C  
HETATM    9  H   UNL     1      -9.575  15.847  69.855  1.00  0.00     0.000 HD 
ENDROOT
BRANCH   5  10
HETATM   10  O   UNL     1      -9.855  18.008  68.632  1.00  0.00    -0.346 OA 
BRANCH  10  11
HETATM   11  P   UNL     1      -8.291  18.544  68.124  1.00  0.00    -0.309 P  
HETATM   12  O   UNL     1      -8.200  19.538  69.418  1.00  0.00    -0.167 OA 
HETATM   13  O   UNL     1      -7.697  17.199  68.565  1.00  0.00    -0.226 OA 
BRANCH  11  14
HETATM   14  O   UNL     1      -6.726  19.080  67.617  1.00  0.00    -0.203 OA 
HETATM   15  P   UNL     1      -6.857  19.876  66.087  1.00  0.00    -0.267 P  
HETATM   16  O   UNL     1      -6.975  20.588  64.716  1.00  0.00    -0.233 OA 
HETATM   17  O   UNL     1      -7.118  21.242  66.957  1.00  0.00    -0.448 OA 
HETATM   18  O   UNL     1      -5.220  20.003  66.173  1.00  0.00    -0.164 OA 
ENDBRANCH  11  14
ENDBRANCH  10  11
ENDBRANCH   5  10
BRANCH   8  19
HETATM   19  C   UNL     1     -11.082  15.265  64.923  1.00  0.00    -0.424 C  
BRANCH  19  20
HETATM   20  O   UNL     1     -10.776  13.930  64.565  1.00  0.00    -0.412 OA 
HETATM   21  P   UNL     1     -11.973  12.955  64.186  1.00  0.00    -0.485 P  
HETATM   22  O   UNL     1     -11.177  11.722  63.560  1.00  0.00    -0.408 OA 
HETATM   23  O   UNL     1     -12.927  12.625  65.275  1.00  0.00    -0.657 OA 
HETATM   24  O   UNL     1     -12.556  13.633  62.866  1.00  0.00    -0.621 OA 
ENDBRANCH  19  20
ENDBRANCH   8  19
TORSDOF 5
ENDMDL
MODEL       20
REMARK 921   NORMALIZED FREE ENERGY PREDICTED BY IDOCK:   -6.14 KCAL/MOL
REMARK 922        TOTAL FREE ENERGY PREDICTED BY IDOCK:   -8.64 KCAL/MOL
REMARK 923 INTER-LIGAND FREE ENERGY PREDICTED BY IDOCK:   -7.86 KCAL/MOL
REMARK 924 INTRA-LIGAND FREE ENERGY PREDICTED BY IDOCK:   -0.78 KCAL/MOL
REMARK 927      BINDING AFFINITY PREDICTED BY RF-SCORE:    0.00 PKD
ROOT
HETATM    1  O   UNL     1     -12.248  10.946  68.479  1.00  0.00    -0.799 OA 
HETATM    2  H   UNL     1     -12.195  10.209  67.882  1.00  0.00     0.000 HD 
HETATM    3  C   UNL     1     -11.900  12.174  67.847  1.00  0.00    -0.269 C  
HETATM    4  C   UNL     1     -11.984  13.352  68.801  1.00  0.00    -0.324 C  
HETATM    5  C   UNL     1     -11.121  14.394  68.050  1.00  0.00    -0.272 C  
HETATM    6  O   UNL     1     -11.414  12.967  70.070  1.00  0.00    -0.503 OA 
HETATM    7  O   UNL     1     -10.066  13.633  67.434  1.00  0.00    -0.236 OA 
HETATM    8  C   UNL     1     -10.431  12.234  67.469  1.00  0.00    -0.213 C  
HETATM    9  H   UNL     1     -11.467  13.704  70.667  1.00  0.00     0.000 HD 
ENDROOT
BRANCH   5  10
HETATM   10  O   UNL     1     -10.690  15.368  68.972  1.00  0.00    -0.224 OA 
BRANCH  10  11
HETATM   11  P   UNL     1      -9.953  16.873  68.548  1.00  0.00    -0.310 P  
HETATM   12  O   UNL     1      -8.470  16.213  68.738  1.00  0.00    -0.208 OA 
HETATM   13  O   UNL     1     -10.347  16.643  67.082  1.00  0.00    -0.293 OA 
BRANCH  11  14
HETATM   14  O   UNL     1      -9.214  18.379  68.123  1.00  0.00    -0.294 OA 
HETATM   15  P   UNL     1      -9.956  19.002  66.690  1.00  0.00    -0.434 P  
HETATM   16  O   UNL     1     -10.621  19.558  65.407  1.00  0.00    -0.467 OA 
HETATM   17  O   UNL     1     -11.019  19.731  67.705  1.00  0.00    -0.291 OA 
HETATM   18  O   UNL     1      -8.845  20.208  66.809  1.00  0.00    -0.326 OA 
ENDBRANCH  11  14
ENDBRANCH  10  11
ENDBRANCH   5  10
BRANCH   8  19
HETATM   19  C   UNL     1     -10.151  11.580  66.118  1.00  0.00    -0.229 C  
BRANCH  19  20
HETATM   20  O   UNL     1     -11.382  11.536  65.421  1.00  0.00    -0.207 OA 
HETATM   21  P   UNL     1     -11.584  12.507  64.180  1.00  0.00    -0.472 P  
HETATM   22  O   UNL     1     -12.913  11.906  63.534  1.00  0.00    -0.724 OA 
HETATM   23  O   UNL     1     -11.608  13.962  64.474  1.00  0.00    -0.368 OA 
HETATM   24  O   UNL     1     -10.488  11.974  63.152  1.00  0.00    -0.393 OA 
ENDBRANCH  19  20
ENDBRANCH   8  19
TORSDOF 5
ENDMDL
MODEL       21
REMARK 921   NORMALIZED FREE ENERGY PREDICTED BY IDOCK:   -6.11 KCAL/MOL
REMARK 922        TOTAL FREE ENERGY PREDICTED BY IDOCK:   -8.60 KCAL/MOL
REMARK 923 INTER-LIGAND FREE ENERGY PREDICTED BY IDOCK:   -7.82 KCAL/MOL
REMARK 924 INTRA-LIGAND FREE ENERGY PREDICTED BY IDOCK:   -0.78 KCAL/MOL
REMARK 927      BINDING AFFINITY PREDICTED BY RF-SCORE:    0.00 PKD
ROOT
HETATM    1  O   UNL     1     -11.255  13.523  63.306  1.00  0.00    -0.297 OA 
HETATM    2  H   UNL     1     -11.330  12.578  63.241  1.00  0.00     0.000 HD 
HETATM    3  C   UNL     1     -10.848  13.939  64.606  1.00  0.00    -0.408 C  
HETATM    4  C   UNL     1     -10.728  15.449  64.712  1.00  0.00    -0.314 C  
HETATM    5  C   UNL     1     -10.775  15.636  66.247  1.00  0.00    -0.295 C  
HETATM    6  O   UNL     1     -11.853  16.055  64.041  1.00  0.00    -1.140 OA 
HETATM    7  O   UNL     1     -11.696  14.635  66.718  1.00  0.00    -0.373 OA 
HETATM    8  C   UNL     1     -11.912  13.677  65.656  1.00  0.00    -0.395 C  
HETATM    9  H   UNL     1     -11.778  17.000  64.107  1.00  0.00     0.000 HD 
ENDROOT
BRANCH   5  10
HETATM   10  O   UNL     1     -11.150  16.965  66.525  1.00  0.00     0.082 OA 
BRANCH  10  11
HETATM   11  P   UNL     1     -10.077  18.321  66.500  1.00  0.00    -0.400 P  
HETATM   12  O   UNL     1     -10.789  18.872  65.136  1.00  0.00    -0.497 OA 
HETATM   13  O   UNL     1     -10.847  18.941  67.674  1.00  0.00    -0.428 OA 
BRANCH  11  14
HETATM   14  O   UNL     1      -9.004  19.678  66.473  1.00  0.00    -0.334 OA 
HETATM   15  P   UNL     1      -7.406  19.158  66.884  1.00  0.00    -0.218 P  
HETATM   16  O   UNL     1      -5.976  18.692  67.252  1.00  0.00    -0.163 OA 
HETATM   17  O   UNL     1      -7.214  18.888  65.277  1.00  0.00    -0.471 OA 
HETATM   18  O   UNL     1      -7.013  20.751  66.775  1.00  0.00    -0.277 OA 
ENDBRANCH  11  14
ENDBRANCH  10  11
ENDBRANCH   5  10
BRANCH   8  19
HETATM   19  C   UNL     1     -11.849  12.254  66.206  1.00  0.00    -0.317 C  
BRANCH  19  20
HETATM   20  O   UNL     1     -12.148  12.335  67.587  1.00  0.00    -0.502 OA 
HETATM   21  P   UNL     1     -11.177  11.610  68.616  1.00  0.00    -0.308 P  
HETATM   22  O   UNL     1     -11.688  12.219  69.999  1.00  0.00    -0.306 OA 
HETATM   23  O   UNL     1     -11.122  10.129  68.542  1.00  0.00    -0.245 OA 
HETATM   24  O   UNL     1      -9.816  12.417  68.421  1.00  0.00    -0.217 OA 
ENDBRANCH  19  20
ENDBRANCH   8  19
TORSDOF 5
ENDMDL
MODEL       22
REMARK 921   NORMALIZED FREE ENERGY PREDICTED BY IDOCK:   -6.09 KCAL/MOL
REMARK 922        TOTAL FREE ENERGY PREDICTED BY IDOCK:   -8.57 KCAL/MOL
REMARK 923 INTER-LIGAND FREE ENERGY PREDICTED BY IDOCK:   -8.07 KCAL/MOL
REMARK 924 INTRA-LIGAND FREE ENERGY PREDICTED BY IDOCK:   -0.51 KCAL/MOL
REMARK 927      BINDING AFFINITY PREDICTED BY RF-SCORE:    0.00 PKD
ROOT
HETATM    1  O   UNL     1     -12.614  11.421  62.966  1.00  0.00    -0.919 OA 
HETATM    2  H   UNL     1     -12.343  10.574  62.631  1.00  0.00     0.000 HD 
HETATM    3  C   UNL     1     -11.514  12.175  63.467  1.00  0.00    -0.458 C  
HETATM    4  C   UNL     1     -11.946  13.529  64.002  1.00  0.00    -0.449 C  
HETATM    5  C   UNL     1     -10.730  13.891  64.887  1.00  0.00    -0.410 C  
HETATM    6  O   UNL     1     -13.160  13.365  64.764  1.00  0.00    -0.694 OA 
HETATM    7  O   UNL     1     -10.296  12.643  65.458  1.00  0.00    -0.276 OA 
HETATM    8  C   UNL     1     -10.919  11.564  64.723  1.00  0.00    -0.273 C  
HETATM    9  H   UNL     1     -13.431  14.212  65.098  1.00  0.00     0.000 HD 
ENDROOT
BRANCH   5  10
HETATM   10  O   UNL     1     -11.130  14.864  65.824  1.00  0.00    -0.331 OA 
BRANCH  10  11
HETATM   11  P   UNL     1     -10.128  16.147  66.407  1.00  0.00    -0.343 P  
HETATM   12  O   UNL     1      -8.793  15.257  66.098  1.00  0.00    -0.284 OA 
HETATM   13  O   UNL     1     -10.424  16.946  65.131  1.00  0.00    -0.663 OA 
BRANCH  11  14
HETATM   14  O   UNL     1      -9.124  17.430  66.990  1.00  0.00    -0.231 OA 
HETATM   15  P   UNL     1      -9.763  18.948  66.461  1.00  0.00    -0.376 P  
HETATM   16  O   UNL     1     -10.336  20.306  65.987  1.00  0.00    -0.392 OA 
HETATM   17  O   UNL     1     -10.647  18.918  67.844  1.00  0.00    -0.395 OA 
HETATM   18  O   UNL     1      -8.440  19.597  67.190  1.00  0.00    -0.284 OA 
ENDBRANCH  11  14
ENDBRANCH  10  11
ENDBRANCH   5  10
BRANCH   8  19
HETATM   19  C   UNL     1      -9.896  10.475  64.411  1.00  0.00    -0.341 C  
BRANCH  19  20
HETATM   20  O   UNL     1      -9.148  10.265  65.595  1.00  0.00    -0.159 OA 
HETATM   21  P   UNL     1      -9.179   8.825  66.264  1.00  0.00    -0.236 P  
HETATM   22  O   UNL     1      -7.992   8.953  67.323  1.00  0.00    -0.096 OA 
HETATM   23  O   UNL     1     -10.486   8.376  66.808  1.00  0.00    -0.314 OA 
HETATM   24  O   UNL     1      -8.487   7.918  65.150  1.00  0.00    -0.143 OA 
ENDBRANCH  19  20
ENDBRANCH   8  19
TORSDOF 5
ENDMDL
MODEL       23
REMARK 921   NORMALIZED FREE ENERGY PREDICTED BY IDOCK:   -6.08 KCAL/MOL
REMARK 922        TOTAL FREE ENERGY PREDICTED BY IDOCK:   -8.56 KCAL/MOL
REMARK 923 INTER-LIGAND FREE ENERGY PREDICTED BY IDOCK:   -7.96 KCAL/MOL
REMARK 924 INTRA-LIGAND FREE ENERGY PREDICTED BY IDOCK:   -0.60 KCAL/MOL
REMARK 927      BINDING AFFINITY PREDICTED BY RF-SCORE:    0.00 PKD
ROOT
HETATM    1  O   UNL     1      -9.651   9.457  62.656  1.00  0.00    -0.531 OA 
HETATM    2  H   UNL     1      -9.134   8.674  62.809  1.00  0.00     0.000 HD 
HETATM    3  C   UNL     1      -9.404  10.462  63.633  1.00  0.00    -0.291 C  
HETATM    4  C   UNL     1     -10.230  11.713  63.389  1.00  0.00    -0.433 C  
HETATM    5  C   UNL     1     -10.156  12.384  64.781  1.00  0.00    -0.236 C  
HETATM    6  O   UNL     1     -11.571  11.323  63.028  1.00  0.00    -0.857 OA 
HETATM    7  O   UNL     1     -10.178  11.297  65.723  1.00  0.00    -0.234 OA 
HETATM    8  C   UNL     1      -9.909  10.068  65.009  1.00  0.00    -0.304 C  
HETATM    9  H   UNL     1     -12.088  12.105  62.875  1.00  0.00     0.000 HD 
ENDROOT
BRANCH   5  10
HETATM   10  O   UNL     1     -11.227  13.292  64.898  1.00  0.00    -0.302 OA 
BRANCH  10  11
HETATM   11  P   UNL     1     -11.074  15.014  64.842  1.00  0.00    -0.367 P  
HETATM   12  O   UNL     1     -12.500  15.125  64.052  1.00  0.00    -0.771 OA 
HETATM   13  O   UNL     1     -11.399  15.082  66.341  1.00  0.00    -0.341 OA 
BRANCH  11  14
HETATM   14  O   UNL     1     -10.921  16.736  64.786  1.00  0.00    -0.732 OA 
HETATM   15  P   UNL     1     -10.408  17.320  66.331  1.00  0.00    -0.224 P  
HETATM   16  O   UNL     1      -9.948  17.842  67.715  1.00  0.00    -0.303 OA 
HETATM   17  O   UNL     1      -8.881  17.098  65.771  1.00  0.00    -0.526 OA 
HETATM   18  O   UNL     1     -10.556  18.813  65.658  1.00  0.00    -0.596 OA 
ENDBRANCH  11  14
ENDBRANCH  10  11
ENDBRANCH   5  10
BRANCH   8  19
HETATM   19  C   UNL     1      -8.898   9.219  65.778  1.00  0.00    -0.177 C  
BRANCH  19  20
HETATM   20  O   UNL     1      -8.824   9.756  67.086  1.00  0.00    -0.131 OA 
HETATM   21  P   UNL     1      -9.185   8.813  68.313  1.00  0.00    -0.140 P  
HETATM   22  O   UNL     1      -8.665   9.692  69.538  1.00  0.00    -0.155 OA 
HETATM   23  O   UNL     1     -10.593   8.350  68.400  1.00  0.00    -0.190 OA 
HETATM   24  O   UNL     1      -8.041   7.705  68.236  1.00  0.00    -0.121 OA 
ENDBRANCH  19  20
ENDBRANCH   8  19
TORSDOF 5
ENDMDL
MODEL       24
REMARK 921   NORMALIZED FREE ENERGY PREDICTED BY IDOCK:   -6.05 KCAL/MOL
REMARK 922        TOTAL FREE ENERGY PREDICTED BY IDOCK:   -8.52 KCAL/MOL
REMARK 923 INTER-LIGAND FREE ENERGY PREDICTED BY IDOCK:   -8.03 KCAL/MOL
REMARK 924 INTRA-LIGAND FREE ENERGY PREDICTED BY IDOCK:   -0.49 KCAL/MOL
REMARK 927      BINDING AFFINITY PREDICTED BY RF-SCORE:    0.00 PKD
ROOT
HETATM    1  O   UNL     1     -13.337  13.468  72.811  1.00  0.00    -0.548 OA 
HETATM    2  H   UNL     1     -13.801  12.874  73.390  1.00  0.00     0.000 HD 
HETATM    3  C   UNL     1     -13.241  12.957  71.485  1.00  0.00    -0.257 C  
HETATM    4  C   UNL     1     -12.500  13.904  70.559  1.00  0.00    -0.352 C  
HETATM    5  C   UNL     1     -12.118  12.943  69.408  1.00  0.00    -0.198 C  
HETATM    6  O   UNL     1     -11.348  14.429  71.252  1.00  0.00    -0.484 OA 
HETATM    7  O   UNL     1     -11.832  11.686  70.048  1.00  0.00    -0.320 OA 
HETATM    8  C   UNL     1     -12.343  11.735  71.400  1.00  0.00    -0.048 C  
HETATM    9  H   UNL     1     -10.885  15.022  70.673  1.00  0.00     0.000 HD 
ENDROOT
BRANCH   5  10
HETATM   10  O   UNL     1     -11.041  13.504  68.694  1.00  0.00    -0.247 OA 
BRANCH  10  11
HETATM   11  P   UNL     1     -10.834  13.410  66.980  1.00  0.00    -0.279 P  
HETATM   12  O   UNL     1      -9.524  12.454  67.180  1.00  0.00    -0.189 OA 
HETATM   13  O   UNL     1     -12.048  12.473  66.895  1.00  0.00    -0.537 OA 
BRANCH  11  14
HETATM   14  O   UNL     1     -10.627  13.314  65.265  1.00  0.00    -0.295 OA 
HETATM   15  P   UNL     1     -12.069  12.688  64.544  1.00  0.00    -0.453 P  
HETATM   16  O   UNL     1     -13.361  12.126  63.899  1.00  0.00    -0.711 OA 
HETATM   17  O   UNL     1     -12.563  14.251  64.466  1.00  0.00    -0.649 OA 
HETATM   18  O   UNL     1     -11.229  12.768  63.133  1.00  0.00    -0.305 OA 
ENDBRANCH  11  14
ENDBRANCH  10  11
ENDBRANCH   5  10
BRANCH   8  19
HETATM   19  C   UNL     1     -13.085  10.443  71.733  1.00  0.00    -0.462 C  
BRANCH  19  20
HETATM   20  O   UNL     1     -12.462   9.411  70.993  1.00  0.00    -0.297 OA 
HETATM   21  P   UNL     1     -12.354   7.968  71.650  1.00  0.00    -0.330 P  
HETATM   22  O   UNL     1     -11.908   7.092  70.393  1.00  0.00    -0.306 OA 
HETATM   23  O   UNL     1     -11.498   7.852  72.856  1.00  0.00    -0.403 OA 
HETATM   24  O   UNL     1     -13.885   7.541  71.780  1.00  0.00    -0.360 OA 
ENDBRANCH  19  20
ENDBRANCH   8  19
TORSDOF 5
ENDMDL
MODEL       25
REMARK 921   NORMALIZED FREE ENERGY PREDICTED BY IDOCK:   -6.03 KCAL/MOL
REMARK 922        TOTAL FREE ENERGY PREDICTED BY IDOCK:   -8.49 KCAL/MOL
REMARK 923 INTER-LIGAND FREE ENERGY PREDICTED BY IDOCK:   -7.94 KCAL/MOL
REMARK 924 INTRA-LIGAND FREE ENERGY PREDICTED BY IDOCK:   -0.55 KCAL/MOL
REMARK 927      BINDING AFFINITY PREDICTED BY RF-SCORE:    0.00 PKD
ROOT
HETATM    1  O   UNL     1     -12.359  13.893  62.967  1.00  0.00    -1.101 OA 
HETATM    2  H   UNL     1     -12.359  14.772  62.608  1.00  0.00     0.000 HD 
HETATM    3  C   UNL     1     -12.259  13.892  64.387  1.00  0.00    -0.413 C  
HETATM    4  C   UNL     1     -12.259  12.486  64.960  1.00  0.00    -0.456 C  
HETATM    5  C   UNL     1     -11.662  12.746  66.364  1.00  0.00    -0.403 C  
HETATM    6  O   UNL     1     -11.416  11.648  64.143  1.00  0.00    -0.339 OA 
HETATM    7  O   UNL     1     -10.685  13.784  66.169  1.00  0.00    -0.280 OA 
HETATM    8  C   UNL     1     -10.905  14.382  64.871  1.00  0.00    -0.416 C  
HETATM    9  H   UNL     1     -11.417  10.768  64.501  1.00  0.00     0.000 HD 
ENDROOT
BRANCH   5  10
HETATM   10  O   UNL     1     -11.148  11.534  66.864  1.00  0.00    -0.283 OA 
BRANCH  10  11
HETATM   11  P   UNL     1     -11.115  11.088  68.535  1.00  0.00    -0.296 P  
HETATM   12  O   UNL     1      -9.601  11.685  68.675  1.00  0.00    -0.190 OA 
HETATM   13  O   UNL     1     -12.071  12.247  68.853  1.00  0.00    -0.265 OA 
BRANCH  11  14
HETATM   14  O   UNL     1     -11.082  10.644  70.207  1.00  0.00    -0.292 OA 
HETATM   15  P   UNL     1     -11.150   8.921  70.347  1.00  0.00    -0.185 P  
HETATM   16  O   UNL     1     -11.211   7.378  70.471  1.00  0.00    -0.267 OA 
HETATM   17  O   UNL     1      -9.512   8.972  70.257  1.00  0.00    -0.173 OA 
HETATM   18  O   UNL     1     -11.179   9.196  71.967  1.00  0.00    -0.364 OA 
ENDBRANCH  11  14
ENDBRANCH  10  11
ENDBRANCH   5  10
BRANCH   8  19
HETATM   19  C   UNL     1     -10.840  15.905  64.971  1.00  0.00    -0.426 C  
BRANCH  19  20
HETATM   20  O   UNL     1     -10.404  16.210  66.282  1.00  0.00    -0.303 OA 
HETATM   21  P   UNL     1      -9.413  17.435  66.484  1.00  0.00    -0.252 P  
HETATM   22  O   UNL     1      -9.457  17.607  68.070  1.00  0.00    -0.267 OA 
HETATM   23  O   UNL     1      -8.062  17.299  65.885  1.00  0.00    -0.529 OA 
HETATM   24  O   UNL     1     -10.308  18.673  66.027  1.00  0.00    -0.445 OA 
ENDBRANCH  19  20
ENDBRANCH   8  19
TORSDOF 5
ENDMDL
MODEL       26
REMARK 921   NORMALIZED FREE ENERGY PREDICTED BY IDOCK:   -5.97 KCAL/MOL
REMARK 922        TOTAL FREE ENERGY PREDICTED BY IDOCK:   -8.42 KCAL/MOL
REMARK 923 INTER-LIGAND FREE ENERGY PREDICTED BY IDOCK:   -7.80 KCAL/MOL
REMARK 924 INTRA-LIGAND FREE ENERGY PREDICTED BY IDOCK:   -0.62 KCAL/MOL
REMARK 927      BINDING AFFINITY PREDICTED BY RF-SCORE:    0.00 PKD
ROOT
HETATM    1  O   UNL     1     -12.835  14.024  65.048  1.00  0.00    -0.695 OA 
HETATM    2  H   UNL     1     -13.433  13.500  65.567  1.00  0.00     0.000 HD 
HETATM    3  C   UNL     1     -11.576  14.197  65.691  1.00  0.00    -0.339 C  
HETATM    4  C   UNL     1     -10.620  15.035  64.862  1.00  0.00    -0.374 C  
HETATM    5  C   UNL     1      -9.600  15.464  65.943  1.00  0.00    -0.351 C  
HETATM    6  O   UNL     1     -11.343  16.152  64.302  1.00  0.00    -0.961 OA 
HETATM    7  O   UNL     1     -10.379  15.660  67.137  1.00  0.00    -0.272 OA 
HETATM    8  C   UNL     1     -11.678  15.055  66.939  1.00  0.00    -0.172 C  
HETATM    9  H   UNL     1     -10.744  16.676  63.783  1.00  0.00     0.000 HD 
ENDROOT
BRANCH   5  10
HETATM   10  O   UNL     1      -8.917  16.609  65.486  1.00  0.00    -0.376 OA 
BRANCH  10  11
HETATM   11  P   UNL     1      -8.250  17.835  66.506  1.00  0.00    -0.248 P  
HETATM   12  O   UNL     1      -7.241  18.298  65.308  1.00  0.00    -0.494 OA 
HETATM   13  O   UNL     1      -9.533  18.660  66.338  1.00  0.00    -0.317 OA 
BRANCH  11  14
HETATM   14  O   UNL     1      -7.582  19.062  67.527  1.00  0.00    -0.233 OA 
HETATM   15  P   UNL     1      -6.710  18.322  68.824  1.00  0.00    -0.258 P  
HETATM   16  O   UNL     1      -5.930  17.658  69.986  1.00  0.00    -0.249 OA 
HETATM   17  O   UNL     1      -5.417  18.362  67.815  1.00  0.00    -0.160 OA 
HETATM   18  O   UNL     1      -6.479  19.860  69.358  1.00  0.00    -0.318 OA 
ENDBRANCH  11  14
ENDBRANCH  10  11
ENDBRANCH   5  10
BRANCH   8  19
HETATM   19  C   UNL     1     -12.079  14.246  68.170  1.00  0.00    -0.240 C  
BRANCH  19  20
HETATM   20  O   UNL     1     -11.006  13.367  68.450  1.00  0.00    -0.247 OA 
HETATM   21  P   UNL     1     -11.339  11.932  69.045  1.00  0.00    -0.313 P  
HETATM   22  O   UNL     1      -9.928  11.202  68.892  1.00  0.00    -0.201 OA 
HETATM   23  O   UNL     1     -11.939  11.902  70.403  1.00  0.00    -0.351 OA 
HETATM   24  O   UNL     1     -12.155  11.253  67.855  1.00  0.00    -0.634 OA 
ENDBRANCH  19  20
ENDBRANCH   8  19
TORSDOF 5
ENDMDL
MODEL       27
REMARK 921   NORMALIZED FREE ENERGY PREDICTED BY IDOCK:   -5.97 KCAL/MOL
REMARK 922        TOTAL FREE ENERGY PREDICTED BY IDOCK:   -8.42 KCAL/MOL
REMARK 923 INTER-LIGAND FREE ENERGY PREDICTED BY IDOCK:   -7.79 KCAL/MOL
REMARK 924 INTRA-LIGAND FREE ENERGY PREDICTED BY IDOCK:   -0.63 KCAL/MOL
REMARK 927      BINDING AFFINITY PREDICTED BY RF-SCORE:    0.00 PKD
ROOT
HETATM    1  O   UNL     1     -12.414  14.281  63.160  1.00  0.00    -1.102 OA 
HETATM    2  H   UNL     1     -12.435  15.205  62.942  1.00  0.00     0.000 HD 
HETATM    3  C   UNL     1     -12.262  14.063  64.559  1.00  0.00    -0.434 C  
HETATM    4  C   UNL     1     -12.227  12.586  64.908  1.00  0.00    -0.470 C  
HETATM    5  C   UNL     1     -11.582  12.636  66.313  1.00  0.00    -0.386 C  
HETATM    6  O   UNL     1     -11.407  11.897  63.942  1.00  0.00    -0.372 OA 
HETATM    7  O   UNL     1     -10.623  13.706  66.248  1.00  0.00    -0.283 OA 
HETATM    8  C   UNL     1     -10.896  14.494  65.065  1.00  0.00    -0.412 C  
HETATM    9  H   UNL     1     -11.386  10.972  64.160  1.00  0.00     0.000 HD 
ENDROOT
BRANCH   5  10
HETATM   10  O   UNL     1     -11.038  11.369  66.602  1.00  0.00    -0.295 OA 
BRANCH  10  11
HETATM   11  P   UNL     1     -11.095  10.598  68.149  1.00  0.00    -0.275 P  
HETATM   12  O   UNL     1     -10.780   9.154  67.452  1.00  0.00    -0.277 OA 
HETATM   13  O   UNL     1      -9.736  11.218  68.499  1.00  0.00    -0.187 OA 
BRANCH  11  14
HETATM   14  O   UNL     1     -11.152   9.825  69.696  1.00  0.00    -0.237 OA 
HETATM   15  P   UNL     1     -12.124  10.766  70.775  1.00  0.00    -0.370 P  
HETATM   16  O   UNL     1     -12.993  11.609  71.740  1.00  0.00    -0.435 OA 
HETATM   17  O   UNL     1     -13.387   9.883  70.211  1.00  0.00     0.049 OA 
HETATM   18  O   UNL     1     -11.703   9.647  71.903  1.00  0.00    -0.357 OA 
ENDBRANCH  11  14
ENDBRANCH  10  11
ENDBRANCH   5  10
BRANCH   8  19
HETATM   19  C   UNL     1     -10.842  15.983  65.397  1.00  0.00    -0.328 C  
BRANCH  19  20
HETATM   20  O   UNL     1      -9.901  16.136  66.443  1.00  0.00    -0.251 OA 
HETATM   21  P   UNL     1     -10.323  16.979  67.722  1.00  0.00    -0.349 P  
HETATM   22  O   UNL     1      -9.138  16.619  68.730  1.00  0.00    -0.241 OA 
HETATM   23  O   UNL     1     -10.573  18.426  67.508  1.00  0.00    -0.408 OA 
HETATM   24  O   UNL     1     -11.506  16.101  68.331  1.00  0.00    -0.369 OA 
ENDBRANCH  19  20
ENDBRANCH   8  19
TORSDOF 5
ENDMDL
MODEL       28
REMARK 921   NORMALIZED FREE ENERGY PREDICTED BY IDOCK:   -5.96 KCAL/MOL
REMARK 922        TOTAL FREE ENERGY PREDICTED BY IDOCK:   -8.41 KCAL/MOL
REMARK 923 INTER-LIGAND FREE ENERGY PREDICTED BY IDOCK:   -7.83 KCAL/MOL
REMARK 924 INTRA-LIGAND FREE ENERGY PREDICTED BY IDOCK:   -0.58 KCAL/MOL
REMARK 927      BINDING AFFINITY PREDICTED BY RF-SCORE:    0.00 PKD
ROOT
HETATM    1  O   UNL     1     -11.642  11.876  67.342  1.00  0.00    -0.408 OA 
HETATM    2  H   UNL     1     -11.814  11.142  67.921  1.00  0.00     0.000 HD 
HETATM    3  C   UNL     1     -11.092  12.991  68.038  1.00  0.00    -0.260 C  
HETATM    4  C   UNL     1     -10.819  14.164  67.114  1.00  0.00    -0.290 C  
HETATM    5  C   UNL     1     -10.722  15.321  68.136  1.00  0.00    -0.257 C  
HETATM    6  O   UNL     1     -11.931  14.313  66.207  1.00  0.00    -0.396 OA 
HETATM    7  O   UNL     1     -11.693  15.007  69.151  1.00  0.00    -0.290 OA 
HETATM    8  C   UNL     1     -12.088  13.624  68.994  1.00  0.00    -0.309 C  
HETATM    9  H   UNL     1     -11.759  15.047  65.628  1.00  0.00     0.000 HD 
ENDROOT
BRANCH   5  10
HETATM   10  O   UNL     1     -10.943  16.537  67.460  1.00  0.00    -0.277 OA 
BRANCH  10  11
HETATM   11  P   UNL     1      -9.735  17.417  66.589  1.00  0.00    -0.312 P  
HETATM   12  O   UNL     1     -10.635  17.324  65.228  1.00  0.00    -0.667 OA 
HETATM   13  O   UNL     1     -10.165  18.702  67.309  1.00  0.00    -0.336 OA 
BRANCH  11  14
HETATM   14  O   UNL     1      -8.528  18.297  65.717  1.00  0.00    -0.473 OA 
HETATM   15  P   UNL     1      -8.021  19.661  66.651  1.00  0.00    -0.332 P  
HETATM   16  O   UNL     1      -7.569  20.883  67.489  1.00  0.00    -0.317 OA 
HETATM   17  O   UNL     1      -6.908  18.647  67.303  1.00  0.00    -0.201 OA 
HETATM   18  O   UNL     1      -7.087  20.027  65.349  1.00  0.00    -0.316 OA 
ENDBRANCH  11  14
ENDBRANCH  10  11
ENDBRANCH   5  10
BRANCH   8  19
HETATM   19  C   UNL     1     -12.117  12.924  70.351  1.00  0.00    -0.306 C  
BRANCH  19  20
HETATM   20  O   UNL     1     -12.010  13.936  71.335  1.00  0.00    -0.216 OA 
HETATM   21  P   UNL     1     -13.318  14.355  72.134  1.00  0.00    -0.490 P  
HETATM   22  O   UNL     1     -12.690  15.237  73.306  1.00  0.00    -0.418 OA 
HETATM   23  O   UNL     1     -14.397  15.001  71.345  1.00  0.00    -0.476 OA 
HETATM   24  O   UNL     1     -13.673  13.018  72.926  1.00  0.00    -0.479 OA 
ENDBRANCH  19  20
ENDBRANCH   8  19
TORSDOF 5
ENDMDL
MODEL       29
REMARK 921   NORMALIZED FREE ENERGY PREDICTED BY IDOCK:   -5.95 KCAL/MOL
REMARK 922        TOTAL FREE ENERGY PREDICTED BY IDOCK:   -8.40 KCAL/MOL
REMARK 923 INTER-LIGAND FREE ENERGY PREDICTED BY IDOCK:   -7.77 KCAL/MOL
REMARK 924 INTRA-LIGAND FREE ENERGY PREDICTED BY IDOCK:   -0.63 KCAL/MOL
REMARK 927      BINDING AFFINITY PREDICTED BY RF-SCORE:    0.00 PKD
ROOT
HETATM    1  O   UNL     1      -9.167   9.114  69.364  1.00  0.00    -0.148 OA 
HETATM    2  H   UNL     1      -9.093   8.809  70.261  1.00  0.00     0.000 HD 
HETATM    3  C   UNL     1      -9.998  10.266  69.257  1.00  0.00    -0.227 C  
HETATM    4  C   UNL     1     -10.118  10.753  67.824  1.00  0.00    -0.174 C  
HETATM    5  C   UNL     1     -11.391  11.627  67.921  1.00  0.00    -0.299 C  
HETATM    6  O   UNL     1     -10.289   9.613  66.956  1.00  0.00    -0.234 OA 
HETATM    7  O   UNL     1     -12.245  10.943  68.856  1.00  0.00    -0.494 OA 
HETATM    8  C   UNL     1     -11.454   9.958  69.561  1.00  0.00    -0.068 C  
HETATM    9  H   UNL     1     -10.363   9.918  66.059  1.00  0.00     0.000 HD 
ENDROOT
BRANCH   5  10
HETATM   10  O   UNL     1     -11.930  11.780  66.628  1.00  0.00    -0.561 OA 
BRANCH  10  11
HETATM   11  P   UNL     1     -11.792  13.208  65.662  1.00  0.00    -0.436 P  
HETATM   12  O   UNL     1     -13.153  12.804  64.853  1.00  0.00    -0.833 OA 
HETATM   13  O   UNL     1     -12.235  14.053  66.865  1.00  0.00    -0.436 OA 
BRANCH  11  14
HETATM   14  O   UNL     1     -11.656  14.636  64.696  1.00  0.00    -0.394 OA 
HETATM   15  P   UNL     1     -11.083  15.942  65.675  1.00  0.00     0.060 P  
HETATM   16  O   UNL     1     -10.571  17.111  66.552  1.00  0.00    -0.272 OA 
HETATM   17  O   UNL     1      -9.580  15.434  65.258  1.00  0.00    -0.219 OA 
HETATM   18  O   UNL     1     -11.271  16.853  64.319  1.00  0.00    -1.204 OA 
ENDBRANCH  11  14
ENDBRANCH  10  11
ENDBRANCH   5  10
BRANCH   8  19
HETATM   19  C   UNL     1     -11.758  10.007  71.057  1.00  0.00    -0.392 C  
BRANCH  19  20
HETATM   20  O   UNL     1     -12.525   8.856  71.356  1.00  0.00    -0.301 OA 
HETATM   21  P   UNL     1     -11.791   7.448  71.401  1.00  0.00    -0.332 P  
HETATM   22  O   UNL     1     -12.918   6.537  72.070  1.00  0.00    -0.244 OA 
HETATM   23  O   UNL     1     -11.235   6.951  70.117  1.00  0.00    -0.282 OA 
HETATM   24  O   UNL     1     -10.788   7.628  72.627  1.00  0.00    -0.279 OA 
ENDBRANCH  19  20
ENDBRANCH   8  19
TORSDOF 5
ENDMDL
MODEL       30
REMARK 921   NORMALIZED FREE ENERGY PREDICTED BY IDOCK:   -5.95 KCAL/MOL
REMARK 922        TOTAL FREE ENERGY PREDICTED BY IDOCK:   -8.39 KCAL/MOL
REMARK 923 INTER-LIGAND FREE ENERGY PREDICTED BY IDOCK:   -7.26 KCAL/MOL
REMARK 924 INTRA-LIGAND FREE ENERGY PREDICTED BY IDOCK:   -1.13 KCAL/MOL
REMARK 927      BINDING AFFINITY PREDICTED BY RF-SCORE:    0.00 PKD
ROOT
HETATM    1  O   UNL     1     -11.123   9.176  68.623  1.00  0.00    -0.449 OA 
HETATM    2  H   UNL     1     -11.071   8.397  69.166  1.00  0.00     0.000 HD 
HETATM    3  C   UNL     1     -11.034  10.372  69.392  1.00  0.00    -0.251 C  
HETATM    4  C   UNL     1     -11.118  11.616  68.526  1.00  0.00    -0.235 C  
HETATM    5  C   UNL     1     -11.489  12.681  69.585  1.00  0.00    -0.182 C  
HETATM    6  O   UNL     1     -12.152  11.428  67.537  1.00  0.00    -0.592 OA 
HETATM    7  O   UNL     1     -12.359  12.002  70.509  1.00  0.00    -0.336 OA 
HETATM    8  C   UNL     1     -12.246  10.578  70.282  1.00  0.00    -0.311 C  
HETATM    9  H   UNL     1     -12.204  12.206  66.995  1.00  0.00     0.000 HD 
ENDROOT
BRANCH   5  10
HETATM   10  O   UNL     1     -12.067  13.784  68.927  1.00  0.00    -0.349 OA 
BRANCH  10  11
HETATM   11  P   UNL     1     -11.244  14.808  67.802  1.00  0.00    -0.334 P  
HETATM   12  O   UNL     1     -12.268  14.345  66.616  1.00  0.00    -0.424 OA 
HETATM   13  O   UNL     1     -11.877  16.036  68.470  1.00  0.00    -0.343 OA 
BRANCH  11  14
HETATM   14  O   UNL     1     -10.420  15.831  66.677  1.00  0.00    -0.293 OA 
HETATM   15  P   UNL     1     -10.166  17.386  67.390  1.00  0.00    -0.334 P  
HETATM   16  O   UNL     1      -9.939  18.778  68.030  1.00  0.00    -0.322 OA 
HETATM   17  O   UNL     1      -8.758  16.760  67.956  1.00  0.00    -0.203 OA 
HETATM   18  O   UNL     1      -9.526  17.794  65.932  1.00  0.00    -0.521 OA 
ENDBRANCH  11  14
ENDBRANCH  10  11
ENDBRANCH   5  10
BRANCH   8  19
HETATM   19  C   UNL     1     -12.123   9.838  71.612  1.00  0.00    -0.394 C  
BRANCH  19  20
HETATM   20  O   UNL     1     -10.833   9.256  71.639  1.00  0.00    -0.357 OA 
HETATM   21  P   UNL     1     -10.705   7.718  72.018  1.00  0.00    -0.268 P  
HETATM   22  O   UNL     1      -9.188   7.429  71.614  1.00  0.00    -0.142 OA 
HETATM   23  O   UNL     1     -11.088   7.344  73.403  1.00  0.00    -0.340 OA 
HETATM   24  O   UNL     1     -11.473   7.008  70.815  1.00  0.00    -0.286 OA 
ENDBRANCH  19  20
ENDBRANCH   8  19
TORSDOF 5
ENDMDL
MODEL       31
REMARK 921   NORMALIZED FREE ENERGY PREDICTED BY IDOCK:   -5.95 KCAL/MOL
REMARK 922        TOTAL FREE ENERGY PREDICTED BY IDOCK:   -8.39 KCAL/MOL
REMARK 923 INTER-LIGAND FREE ENERGY PREDICTED BY IDOCK:   -7.81 KCAL/MOL
REMARK 924 INTRA-LIGAND FREE ENERGY PREDICTED BY IDOCK:   -0.58 KCAL/MOL
REMARK 927      BINDING AFFINITY PREDICTED BY RF-SCORE:    0.00 PKD
ROOT
HETATM    1  O   UNL     1     -12.431  11.378  62.871  1.00  0.00    -0.949 OA 
HETATM    2  H   UNL     1     -12.191  10.511  62.564  1.00  0.00     0.000 HD 
HETATM    3  C   UNL     1     -11.312  12.091  63.389  1.00  0.00    -0.397 C  
HETATM    4  C   UNL     1     -11.695  13.475  63.881  1.00  0.00    -0.368 C  
HETATM    5  C   UNL     1     -10.489  13.801  64.794  1.00  0.00    -0.428 C  
HETATM    6  O   UNL     1     -12.937  13.385  64.610  1.00  0.00    -0.675 OA 
HETATM    7  O   UNL     1     -10.131  12.548  65.404  1.00  0.00    -0.277 OA 
HETATM    8  C   UNL     1     -10.783  11.482  64.675  1.00  0.00    -0.319 C  
HETATM    9  H   UNL     1     -13.177  14.252  64.918  1.00  0.00     0.000 HD 
ENDROOT
BRANCH   5  10
HETATM   10  O   UNL     1     -10.870  14.813  65.697  1.00  0.00    -0.309 OA 
BRANCH  10  11
HETATM   11  P   UNL     1     -10.209  16.411  65.729  1.00  0.00    -0.261 P  
HETATM   12  O   UNL     1     -11.262  16.880  64.571  1.00  0.00    -1.057 OA 
HETATM   13  O   UNL     1     -10.902  16.661  67.075  1.00  0.00    -0.230 OA 
BRANCH  11  14
HETATM   14  O   UNL     1      -9.548  18.009  65.760  1.00  0.00    -0.505 OA 
HETATM   15  P   UNL     1      -8.274  18.084  66.927  1.00  0.00    -0.259 P  
HETATM   16  O   UNL     1      -7.134  18.151  67.973  1.00  0.00    -0.213 OA 
HETATM   17  O   UNL     1      -7.287  17.626  65.699  1.00  0.00    -0.487 OA 
HETATM   18  O   UNL     1      -8.202  19.680  66.537  1.00  0.00    -0.295 OA 
ENDBRANCH  11  14
ENDBRANCH  10  11
ENDBRANCH   5  10
BRANCH   8  19
HETATM   19  C   UNL     1      -9.803  10.340  64.417  1.00  0.00    -0.305 C  
BRANCH  19  20
HETATM   20  O   UNL     1      -8.742  10.877  63.650  1.00  0.00    -0.134 OA 
HETATM   21  P   UNL     1      -7.327  10.155  63.705  1.00  0.00    -0.037 P  
HETATM   22  O   UNL     1      -6.573  10.866  62.492  1.00  0.00    -0.086 OA 
HETATM   23  O   UNL     1      -6.621  10.181  65.010  1.00  0.00    -0.118 OA 
HETATM   24  O   UNL     1      -7.649   8.732  63.060  1.00  0.00    -0.101 OA 
ENDBRANCH  19  20
ENDBRANCH   8  19
TORSDOF 5
ENDMDL
MODEL       32
REMARK 921   NORMALIZED FREE ENERGY PREDICTED BY IDOCK:   -5.95 KCAL/MOL
REMARK 922        TOTAL FREE ENERGY PREDICTED BY IDOCK:   -8.39 KCAL/MOL
REMARK 923 INTER-LIGAND FREE ENERGY PREDICTED BY IDOCK:   -7.73 KCAL/MOL
REMARK 924 INTRA-LIGAND FREE ENERGY PREDICTED BY IDOCK:   -0.66 KCAL/MOL
REMARK 927      BINDING AFFINITY PREDICTED BY RF-SCORE:    0.00 PKD
ROOT
HETATM    1  O   UNL     1     -11.165   9.713  67.861  1.00  0.00    -0.519 OA 
HETATM    2  H   UNL     1     -11.066   8.934  68.396  1.00  0.00     0.000 HD 
HETATM    3  C   UNL     1     -10.917  10.905  68.600  1.00  0.00    -0.227 C  
HETATM    4  C   UNL     1     -11.076  12.150  67.746  1.00  0.00    -0.250 C  
HETATM    5  C   UNL     1     -11.246  13.231  68.840  1.00  0.00    -0.277 C  
HETATM    6  O   UNL     1     -12.249  12.003  66.920  1.00  0.00    -0.529 OA 
HETATM    7  O   UNL     1     -11.999  12.590  69.886  1.00  0.00    -0.326 OA 
HETATM    8  C   UNL     1     -11.977  11.162  69.656  1.00  0.00    -0.359 C  
HETATM    9  H   UNL     1     -12.348  12.782  66.385  1.00  0.00     0.000 HD 
ENDROOT
BRANCH   5  10
HETATM   10  O   UNL     1     -11.869  14.356  68.265  1.00  0.00    -0.325 OA 
BRANCH  10  11
HETATM   11  P   UNL     1     -11.160  15.930  68.154  1.00  0.00    -0.296 P  
HETATM   12  O   UNL     1     -11.354  16.142  69.762  1.00  0.00    -0.331 OA 
HETATM   13  O   UNL     1      -9.780  15.284  67.964  1.00  0.00    -0.209 OA 
BRANCH  11  14
HETATM   14  O   UNL     1     -10.449  17.504  68.044  1.00  0.00    -0.356 OA 
HETATM   15  P   UNL     1      -9.251  17.509  66.797  1.00  0.00    -0.281 P  
HETATM   16  O   UNL     1      -8.177  17.514  65.680  1.00  0.00    -0.505 OA 
HETATM   17  O   UNL     1     -10.479  17.918  65.788  1.00  0.00    -0.564 OA 
HETATM   18  O   UNL     1      -8.974  19.061  67.266  1.00  0.00    -0.279 OA 
ENDBRANCH  11  14
ENDBRANCH  10  11
ENDBRANCH   5  10
BRANCH   8  19
HETATM   19  C   UNL     1     -11.692  10.420  70.959  1.00  0.00    -0.337 C  
BRANCH  19  20
HETATM   20  O   UNL     1     -12.202   9.108  70.803  1.00  0.00    -0.227 OA 
HETATM   21  P   UNL     1     -12.535   8.265  72.108  1.00  0.00    -0.320 P  
HETATM   22  O   UNL     1     -13.355   7.047  71.484  1.00  0.00    -0.366 OA 
HETATM   23  O   UNL     1     -11.384   7.897  72.970  1.00  0.00    -0.408 OA 
HETATM   24  O   UNL     1     -13.716   9.112  72.764  1.00  0.00    -0.434 OA 
ENDBRANCH  19  20
ENDBRANCH   8  19
TORSDOF 5
ENDMDL
MODEL       33
REMARK 921   NORMALIZED FREE ENERGY PREDICTED BY IDOCK:   -5.88 KCAL/MOL
REMARK 922        TOTAL FREE ENERGY PREDICTED BY IDOCK:   -8.31 KCAL/MOL
REMARK 923 INTER-LIGAND FREE ENERGY PREDICTED BY IDOCK:   -7.74 KCAL/MOL
REMARK 924 INTRA-LIGAND FREE ENERGY PREDICTED BY IDOCK:   -0.57 KCAL/MOL
REMARK 927      BINDING AFFINITY PREDICTED BY RF-SCORE:    0.00 PKD
ROOT
HETATM    1  O   UNL     1     -10.538  12.171  69.378  1.00  0.00    -0.441 OA 
HETATM    2  H   UNL     1     -11.300  11.612  69.283  1.00  0.00     0.000 HD 
HETATM    3  C   UNL     1     -10.550  13.256  68.457  1.00  0.00    -0.256 C  
HETATM    4  C   UNL     1      -9.332  14.149  68.608  1.00  0.00    -0.152 C  
HETATM    5  C   UNL     1      -9.342  14.886  67.248  1.00  0.00    -0.204 C  
HETATM    6  O   UNL     1      -8.164  13.320  68.785  1.00  0.00    -0.327 OA 
HETATM    7  O   UNL     1      -9.796  13.908  66.295  1.00  0.00    -0.290 OA 
HETATM    8  C   UNL     1     -10.373  12.797  67.020  1.00  0.00    -0.234 C  
HETATM    9  H   UNL     1      -7.402  13.879  68.880  1.00  0.00     0.000 HD 
ENDROOT
BRANCH   5  10
HETATM   10  O   UNL     1      -8.052  15.397  67.005  1.00  0.00    -0.198 OA 
BRANCH  10  11
HETATM   11  P   UNL     1      -7.633  17.075  67.026  1.00  0.00    -0.237 P  
HETATM   12  O   UNL     1      -6.150  16.722  66.438  1.00  0.00    -0.297 OA 
HETATM   13  O   UNL     1      -8.540  17.308  65.811  1.00  0.00    -0.532 OA 
BRANCH  11  14
HETATM   14  O   UNL     1      -7.213  18.753  67.048  1.00  0.00    -0.206 OA 
HETATM   15  P   UNL     1      -8.609  19.692  67.451  1.00  0.00    -0.327 P  
HETATM   16  O   UNL     1      -9.859  20.532  67.811  1.00  0.00    -0.395 OA 
HETATM   17  O   UNL     1      -8.145  19.486  69.011  1.00  0.00    -0.348 OA 
HETATM   18  O   UNL     1      -7.628  20.990  67.216  1.00  0.00    -0.340 OA 
ENDBRANCH  11  14
ENDBRANCH  10  11
ENDBRANCH   5  10
BRANCH   8  19
HETATM   19  C   UNL     1     -11.692  12.373  66.378  1.00  0.00    -0.391 C  
BRANCH  19  20
HETATM   20  O   UNL     1     -11.956  13.296  65.338  1.00  0.00    -0.352 OA 
HETATM   21  P   UNL     1     -12.155  12.736  63.864  1.00  0.00    -0.519 P  
HETATM   22  O   UNL     1     -12.732  14.026  63.122  1.00  0.00    -0.676 OA 
HETATM   23  O   UNL     1     -10.972  12.101  63.231  1.00  0.00    -0.415 OA 
HETATM   24  O   UNL     1     -13.481  11.862  64.011  1.00  0.00    -0.600 OA 
ENDBRANCH  19  20
ENDBRANCH   8  19
TORSDOF 5
ENDMDL
MODEL       34
REMARK 921   NORMALIZED FREE ENERGY PREDICTED BY IDOCK:   -5.88 KCAL/MOL
REMARK 922        TOTAL FREE ENERGY PREDICTED BY IDOCK:   -8.31 KCAL/MOL
REMARK 923 INTER-LIGAND FREE ENERGY PREDICTED BY IDOCK:   -7.79 KCAL/MOL
REMARK 924 INTRA-LIGAND FREE ENERGY PREDICTED BY IDOCK:   -0.51 KCAL/MOL
REMARK 927      BINDING AFFINITY PREDICTED BY RF-SCORE:    0.00 PKD
ROOT
HETATM    1  O   UNL     1     -11.995  15.552  68.891  1.00  0.00    -0.493 OA 
HETATM    2  H   UNL     1     -11.701  15.976  68.093  1.00  0.00     0.000 HD 
HETATM    3  C   UNL     1     -11.543  14.205  68.980  1.00  0.00    -0.304 C  
HETATM    4  C   UNL     1     -12.013  13.527  70.255  1.00  0.00    -0.316 C  
HETATM    5  C   UNL     1     -11.832  12.038  69.874  1.00  0.00    -0.331 C  
HETATM    6  O   UNL     1     -13.393  13.878  70.489  1.00  0.00    -0.136 OA 
HETATM    7  O   UNL     1     -12.170  11.965  68.477  1.00  0.00    -0.391 OA 
HETATM    8  C   UNL     1     -12.190  13.308  67.940  1.00  0.00    -0.087 C  
HETATM    9  H   UNL     1     -13.687  13.454  71.287  1.00  0.00     0.000 HD 
ENDROOT
BRANCH   5  10
HETATM   10  O   UNL     1     -12.641  11.256  70.721  1.00  0.00    -0.344 OA 
BRANCH  10  11
HETATM   11  P   UNL     1     -12.110   9.847  71.571  1.00  0.00    -0.325 P  
HETATM   12  O   UNL     1     -13.659   9.358  71.749  1.00  0.00    -0.386 OA 
HETATM   13  O   UNL     1     -11.613   9.248  70.249  1.00  0.00    -0.225 OA 
BRANCH  11  14
HETATM   14  O   UNL     1     -11.580   8.436  72.422  1.00  0.00    -0.367 OA 
HETATM   15  P   UNL     1     -10.142   7.823  71.681  1.00  0.00    -0.195 P  
HETATM   16  O   UNL     1      -8.854   7.275  71.018  1.00  0.00    -0.142 OA 
HETATM   17  O   UNL     1      -9.337   8.825  72.702  1.00  0.00    -0.300 OA 
HETATM   18  O   UNL     1     -10.259   6.612  72.787  1.00  0.00    -0.177 OA 
ENDBRANCH  11  14
ENDBRANCH  10  11
ENDBRANCH   5  10
BRANCH   8  19
HETATM   19  C   UNL     1     -11.463  13.354  66.599  1.00  0.00    -0.344 C  
BRANCH  19  20
HETATM   20  O   UNL     1     -12.280  12.670  65.666  1.00  0.00    -0.512 OA 
HETATM   21  P   UNL     1     -12.150  13.046  64.128  1.00  0.00    -0.443 P  
HETATM   22  O   UNL     1     -12.969  11.855  63.452  1.00  0.00    -0.730 OA 
HETATM   23  O   UNL     1     -12.567  14.418  63.744  1.00  0.00    -0.829 OA 
HETATM   24  O   UNL     1     -10.655  12.603  63.797  1.00  0.00    -0.417 OA 
ENDBRANCH  19  20
ENDBRANCH   8  19
TORSDOF 5
ENDMDL
MODEL       35
REMARK 921   NORMALIZED FREE ENERGY PREDICTED BY IDOCK:   -5.84 KCAL/MOL
REMARK 922        TOTAL FREE ENERGY PREDICTED BY IDOCK:   -8.25 KCAL/MOL
REMARK 923 INTER-LIGAND FREE ENERGY PREDICTED BY IDOCK:   -7.26 KCAL/MOL
REMARK 924 INTRA-LIGAND FREE ENERGY PREDICTED BY IDOCK:   -0.99 KCAL/MOL
REMARK 927      BINDING AFFINITY PREDICTED BY RF-SCORE:    0.00 PKD
ROOT
HETATM    1  O   UNL     1      -9.427   9.347  68.412  1.00  0.00    -0.141 OA 
HETATM    2  H   UNL     1      -9.590   8.910  69.239  1.00  0.00     0.000 HD 
HETATM    3  C   UNL     1      -9.990  10.655  68.377  1.00  0.00    -0.163 C  
HETATM    4  C   UNL     1      -9.731  11.354  67.055  1.00  0.00    -0.190 C  
HETATM    5  C   UNL     1     -10.812  12.461  67.097  1.00  0.00    -0.245 C  
HETATM    6  O   UNL     1      -9.938  10.414  65.980  1.00  0.00    -0.218 OA 
HETATM    7  O   UNL     1     -11.946  11.854  67.742  1.00  0.00    -0.559 OA 
HETATM    8  C   UNL     1     -11.508  10.631  68.379  1.00  0.00    -0.259 C  
HETATM    9  H   UNL     1      -9.776  10.851  65.153  1.00  0.00     0.000 HD 
ENDROOT
BRANCH   5  10
HETATM   10  O   UNL     1     -11.046  12.909  65.782  1.00  0.00    -0.278 OA 
BRANCH  10  11
HETATM   11  P   UNL     1     -11.016  14.563  65.280  1.00  0.00    -0.413 P  
HETATM   12  O   UNL     1     -12.445  14.368  64.513  1.00  0.00    -0.608 OA 
HETATM   13  O   UNL     1     -11.347  14.995  66.716  1.00  0.00    -0.341 OA 
BRANCH  11  14
HETATM   14  O   UNL     1     -10.987  16.219  64.778  1.00  0.00    -0.631 OA 
HETATM   15  P   UNL     1     -10.576  17.223  66.126  1.00  0.00    -0.007 P  
HETATM   16  O   UNL     1     -10.208  18.121  67.333  1.00  0.00    -0.338 OA 
HETATM   17  O   UNL     1      -9.017  16.986  65.670  1.00  0.00    -0.492 OA 
HETATM   18  O   UNL     1     -10.806  18.473  65.083  1.00  0.00    -0.588 OA 
ENDBRANCH  11  14
ENDBRANCH  10  11
ENDBRANCH   5  10
BRANCH   8  19
HETATM   19  C   UNL     1     -12.086  10.533  69.789  1.00  0.00    -0.214 C  
BRANCH  19  20
HETATM   20  O   UNL     1     -11.009  10.219  70.652  1.00  0.00    -0.308 OA 
HETATM   21  P   UNL     1     -11.104   8.898  71.530  1.00  0.00    -0.378 P  
HETATM   22  O   UNL     1      -9.605   8.778  72.065  1.00  0.00    -0.290 OA 
HETATM   23  O   UNL     1     -12.165   8.867  72.567  1.00  0.00    -0.337 OA 
HETATM   24  O   UNL     1     -11.115   7.754  70.419  1.00  0.00    -0.257 OA 
ENDBRANCH  19  20
ENDBRANCH   8  19
TORSDOF 5
ENDMDL
MODEL       36
REMARK 921   NORMALIZED FREE ENERGY PREDICTED BY IDOCK:   -5.83 KCAL/MOL
REMARK 922        TOTAL FREE ENERGY PREDICTED BY IDOCK:   -8.24 KCAL/MOL
REMARK 923 INTER-LIGAND FREE ENERGY PREDICTED BY IDOCK:   -7.03 KCAL/MOL
REMARK 924 INTRA-LIGAND FREE ENERGY PREDICTED BY IDOCK:   -1.21 KCAL/MOL
REMARK 927      BINDING AFFINITY PREDICTED BY RF-SCORE:    0.00 PKD
ROOT
HETATM    1  O   UNL     1      -8.871  11.256  65.166  1.00  0.00    -0.361 OA 
HETATM    2  H   UNL     1      -9.173  12.133  64.958  1.00  0.00     0.000 HD 
HETATM    3  C   UNL     1      -9.928  10.421  65.629  1.00  0.00    -0.272 C  
HETATM    4  C   UNL     1      -9.447   9.021  65.962  1.00  0.00    -0.256 C  
HETATM    5  C   UNL     1     -10.603   8.523  66.861  1.00  0.00    -0.209 C  
HETATM    6  O   UNL     1      -8.192   9.113  66.669  1.00  0.00    -0.113 OA 
HETATM    7  O   UNL     1     -11.021   9.680  67.609  1.00  0.00    -0.268 OA 
HETATM    8  C   UNL     1     -10.457  10.856  66.984  1.00  0.00    -0.244 C  
HETATM    9  H   UNL     1      -7.890   8.237  66.877  1.00  0.00     0.000 HD 
ENDROOT
BRANCH   5  10
HETATM   10  O   UNL     1     -10.134   7.449  67.642  1.00  0.00    -0.162 OA 
BRANCH  10  11
HETATM   11  P   UNL     1     -10.240   7.360  69.366  1.00  0.00    -0.208 P  
HETATM   12  O   UNL     1     -10.048   5.738  69.304  1.00  0.00    -0.172 OA 
HETATM   13  O   UNL     1      -8.831   7.961  69.474  1.00  0.00    -0.140 OA 
BRANCH  11  14
HETATM   14  O   UNL     1     -10.344   7.270  71.091  1.00  0.00    -0.199 OA 
HETATM   15  P   UNL     1     -11.661   8.248  71.640  1.00  0.00    -0.336 P  
HETATM   16  O   UNL     1     -12.840   9.124  72.131  1.00  0.00    -0.371 OA 
HETATM   17  O   UNL     1     -12.581   6.902  71.446  1.00  0.00    -0.367 OA 
HETATM   18  O   UNL     1     -11.162   7.823  73.148  1.00  0.00    -0.402 OA 
ENDBRANCH  11  14
ENDBRANCH  10  11
ENDBRANCH   5  10
BRANCH   8  19
HETATM   19  C   UNL     1     -11.513  11.953  66.872  1.00  0.00    -0.322 C  
BRANCH  19  20
HETATM   20  O   UNL     1     -12.023  11.896  65.553  1.00  0.00    -0.399 OA 
HETATM   21  P   UNL     1     -12.236  13.259  64.764  1.00  0.00    -0.422 P  
HETATM   22  O   UNL     1     -12.492  12.719  63.284  1.00  0.00    -0.665 OA 
HETATM   23  O   UNL     1     -13.265  14.182  65.303  1.00  0.00    -0.760 OA 
HETATM   24  O   UNL     1     -10.744  13.805  64.626  1.00  0.00    -0.387 OA 
ENDBRANCH  19  20
ENDBRANCH   8  19
TORSDOF 5
ENDMDL
MODEL       37
REMARK 921   NORMALIZED FREE ENERGY PREDICTED BY IDOCK:   -5.81 KCAL/MOL
REMARK 922        TOTAL FREE ENERGY PREDICTED BY IDOCK:   -8.22 KCAL/MOL
REMARK 923 INTER-LIGAND FREE ENERGY PREDICTED BY IDOCK:   -7.53 KCAL/MOL
REMARK 924 INTRA-LIGAND FREE ENERGY PREDICTED BY IDOCK:   -0.69 KCAL/MOL
REMARK 927      BINDING AFFINITY PREDICTED BY RF-SCORE:    0.00 PKD
ROOT
HETATM    1  O   UNL     1     -12.468  14.379  63.347  1.00  0.00    -1.109 OA 
HETATM    2  H   UNL     1     -12.564  15.322  63.412  1.00  0.00     0.000 HD 
HETATM    3  C   UNL     1     -12.098  13.789  64.589  1.00  0.00    -0.421 C  
HETATM    4  C   UNL     1     -11.944  12.283  64.484  1.00  0.00    -0.383 C  
HETATM    5  C   UNL     1     -11.099  11.990  65.747  1.00  0.00    -0.324 C  
HETATM    6  O   UNL     1     -11.247  11.968  63.261  1.00  0.00    -0.629 OA 
HETATM    7  O   UNL     1     -10.211  13.115  65.872  1.00  0.00    -0.282 OA 
HETATM    8  C   UNL     1     -10.694  14.177  65.017  1.00  0.00    -0.416 C  
HETATM    9  H   UNL     1     -11.151  11.025  63.195  1.00  0.00     0.000 HD 
ENDROOT
BRANCH   5  10
HETATM   10  O   UNL     1     -10.461  10.745  65.580  1.00  0.00    -0.252 OA 
BRANCH  10  11
HETATM   11  P   UNL     1     -10.383   9.505  66.783  1.00  0.00    -0.158 P  
HETATM   12  O   UNL     1      -8.926  10.057  67.273  1.00  0.00    -0.134 OA 
HETATM   13  O   UNL     1     -11.434  10.256  67.612  1.00  0.00    -0.345 OA 
BRANCH  11  14
HETATM   14  O   UNL     1     -10.305   8.264  67.987  1.00  0.00    -0.209 OA 
HETATM   15  P   UNL     1     -10.570   6.724  67.246  1.00  0.00    -0.385 P  
HETATM   16  O   UNL     1     -10.808   5.345  66.581  1.00  0.00    -0.277 OA 
HETATM   17  O   UNL     1      -8.946   6.695  67.012  1.00  0.00    -0.114 OA 
HETATM   18  O   UNL     1     -10.471   6.130  68.775  1.00  0.00    -0.191 OA 
ENDBRANCH  11  14
ENDBRANCH  10  11
ENDBRANCH   5  10
BRANCH   8  19
HETATM   19  C   UNL     1     -10.660  15.511  65.759  1.00  0.00    -0.356 C  
BRANCH  19  20
HETATM   20  O   UNL     1     -11.413  15.339  66.945  1.00  0.00    -0.271 OA 
HETATM   21  P   UNL     1     -10.818  15.900  68.307  1.00  0.00    -0.343 P  
HETATM   22  O   UNL     1     -12.089  15.788  69.266  1.00  0.00    -0.350 OA 
HETATM   23  O   UNL     1      -9.576  15.256  68.802  1.00  0.00    -0.196 OA 
HETATM   24  O   UNL     1     -10.786  17.472  68.040  1.00  0.00    -0.387 OA 
ENDBRANCH  19  20
ENDBRANCH   8  19
TORSDOF 5
ENDMDL
MODEL       38
REMARK 921   NORMALIZED FREE ENERGY PREDICTED BY IDOCK:   -5.81 KCAL/MOL
REMARK 922        TOTAL FREE ENERGY PREDICTED BY IDOCK:   -8.21 KCAL/MOL
REMARK 923 INTER-LIGAND FREE ENERGY PREDICTED BY IDOCK:   -7.58 KCAL/MOL
REMARK 924 INTRA-LIGAND FREE ENERGY PREDICTED BY IDOCK:   -0.63 KCAL/MOL
REMARK 927      BINDING AFFINITY PREDICTED BY RF-SCORE:    0.00 PKD
ROOT
HETATM    1  O   UNL     1     -11.477  12.920  68.229  1.00  0.00    -0.268 OA 
HETATM    2  H   UNL     1     -11.480  12.258  67.548  1.00  0.00     0.000 HD 
HETATM    3  C   UNL     1     -11.618  14.235  67.700  1.00  0.00    -0.368 C  
HETATM    4  C   UNL     1     -11.613  15.293  68.789  1.00  0.00    -0.362 C  
HETATM    5  C   UNL     1     -11.282  16.558  67.962  1.00  0.00    -0.202 C  
HETATM    6  O   UNL     1     -10.586  14.971  69.750  1.00  0.00    -0.288 OA 
HETATM    7  O   UNL     1     -10.364  16.112  66.947  1.00  0.00    -0.287 OA 
HETATM    8  C   UNL     1     -10.405  14.667  66.896  1.00  0.00    -0.264 C  
HETATM    9  H   UNL     1     -10.583  15.633  70.431  1.00  0.00     0.000 HD 
ENDROOT
BRANCH   5  10
HETATM   10  O   UNL     1     -10.773  17.543  68.832  1.00  0.00    -0.258 OA 
BRANCH  10  11
HETATM   11  P   UNL     1      -9.814  18.895  68.340  1.00  0.00    -0.415 P  
HETATM   12  O   UNL     1     -10.976  19.350  67.286  1.00  0.00    -0.491 OA 
HETATM   13  O   UNL     1     -10.134  19.593  69.670  1.00  0.00    -0.258 OA 
BRANCH  11  14
HETATM   14  O   UNL     1      -8.854  20.248  67.849  1.00  0.00    -0.267 OA 
HETATM   15  P   UNL     1      -7.561  19.702  66.839  1.00  0.00    -0.279 P  
HETATM   16  O   UNL     1      -6.403  19.212  65.934  1.00  0.00    -0.192 OA 
HETATM   17  O   UNL     1      -8.611  19.906  65.594  1.00  0.00    -0.316 OA 
HETATM   18  O   UNL     1      -7.085  21.275  66.840  1.00  0.00    -0.388 OA 
ENDBRANCH  11  14
ENDBRANCH  10  11
ENDBRANCH   5  10
BRANCH   8  19
HETATM   19  C   UNL     1     -10.468  14.190  65.447  1.00  0.00    -0.357 C  
BRANCH  19  20
HETATM   20  O   UNL     1     -11.661  13.440  65.315  1.00  0.00    -0.307 OA 
HETATM   21  P   UNL     1     -12.083  12.938  63.867  1.00  0.00    -0.497 P  
HETATM   22  O   UNL     1     -13.245  11.906  64.228  1.00  0.00    -0.618 OA 
HETATM   23  O   UNL     1     -12.434  13.989  62.879  1.00  0.00    -0.515 OA 
HETATM   24  O   UNL     1     -10.899  11.935  63.499  1.00  0.00    -0.387 OA 
ENDBRANCH  19  20
ENDBRANCH   8  19
TORSDOF 5
ENDMDL
MODEL       39
REMARK 921   NORMALIZED FREE ENERGY PREDICTED BY IDOCK:   -5.81 KCAL/MOL
REMARK 922        TOTAL FREE ENERGY PREDICTED BY IDOCK:   -8.21 KCAL/MOL
REMARK 923 INTER-LIGAND FREE ENERGY PREDICTED BY IDOCK:   -7.52 KCAL/MOL
REMARK 924 INTRA-LIGAND FREE ENERGY PREDICTED BY IDOCK:   -0.69 KCAL/MOL
REMARK 927      BINDING AFFINITY PREDICTED BY RF-SCORE:    0.00 PKD
ROOT
HETATM    1  O   UNL     1     -14.308   8.859  72.941  1.00  0.00    -1.050 OA 
HETATM    2  H   UNL     1     -14.300   8.001  73.348  1.00  0.00     0.000 HD 
HETATM    3  C   UNL     1     -13.364   8.957  71.879  1.00  0.00    -0.405 C  
HETATM    4  C   UNL     1     -13.375  10.329  71.228  1.00  0.00    -0.284 C  
HETATM    5  C   UNL     1     -12.003  10.320  70.513  1.00  0.00    -0.323 C  
HETATM    6  O   UNL     1     -13.460  11.334  72.260  1.00  0.00    -0.604 OA 
HETATM    7  O   UNL     1     -11.124   9.600  71.396  1.00  0.00    -0.365 OA 
HETATM    8  C   UNL     1     -11.930   8.902  72.374  1.00  0.00    -0.250 C  
HETATM    9  H   UNL     1     -13.467  12.192  71.853  1.00  0.00     0.000 HD 
ENDROOT
BRANCH   5  10
HETATM   10  O   UNL     1     -11.624  11.652  70.254  1.00  0.00    -0.280 OA 
BRANCH  10  11
HETATM   11  P   UNL     1     -11.246  12.286  68.690  1.00  0.00    -0.304 P  
HETATM   12  O   UNL     1     -12.090  11.078  67.985  1.00  0.00    -0.615 OA 
HETATM   13  O   UNL     1     -12.239  13.433  68.925  1.00  0.00    -0.294 OA 
BRANCH  11  14
HETATM   14  O   UNL     1     -10.868  12.920  67.125  1.00  0.00    -0.250 OA 
HETATM   15  P   UNL     1     -10.936  14.648  67.171  1.00  0.00    -0.332 P  
HETATM   16  O   UNL     1     -10.998  16.195  67.213  1.00  0.00    -0.283 OA 
HETATM   17  O   UNL     1      -9.354  14.577  67.600  1.00  0.00    -0.195 OA 
HETATM   18  O   UNL     1     -10.617  14.562  65.561  1.00  0.00    -0.310 OA 
ENDBRANCH  11  14
ENDBRANCH  10  11
ENDBRANCH   5  10
BRANCH   8  19
HETATM   19  C   UNL     1     -11.428   7.471  72.548  1.00  0.00    -0.327 C  
BRANCH  19  20
HETATM   20  O   UNL     1     -11.338   6.908  71.252  1.00  0.00    -0.256 OA 
HETATM   21  P   UNL     1     -10.024   6.102  70.867  1.00  0.00    -0.194 P  
HETATM   22  O   UNL     1     -10.482   5.402  69.508  1.00  0.00    -0.267 OA 
HETATM   23  O   UNL     1      -8.764   6.883  70.801  1.00  0.00    -0.143 OA 
HETATM   24  O   UNL     1     -10.081   4.865  71.872  1.00  0.00    -0.186 OA 
ENDBRANCH  19  20
ENDBRANCH   8  19
TORSDOF 5
ENDMDL
MODEL       40
REMARK 921   NORMALIZED FREE ENERGY PREDICTED BY IDOCK:   -5.78 KCAL/MOL
REMARK 922        TOTAL FREE ENERGY PREDICTED BY IDOCK:   -8.17 KCAL/MOL
REMARK 923 INTER-LIGAND FREE ENERGY PREDICTED BY IDOCK:   -6.93 KCAL/MOL
REMARK 924 INTRA-LIGAND FREE ENERGY PREDICTED BY IDOCK:   -1.24 KCAL/MOL
REMARK 927      BINDING AFFINITY PREDICTED BY RF-SCORE:    0.00 PKD
ROOT
HETATM    1  O   UNL     1      -8.786  12.596  66.421  1.00  0.00    -0.415 OA 
HETATM    2  H   UNL     1      -9.597  12.270  66.049  1.00  0.00     0.000 HD 
HETATM    3  C   UNL     1      -9.007  13.372  67.594  1.00  0.00    -0.202 C  
HETATM    4  C   UNL     1      -7.711  13.894  68.188  1.00  0.00    -0.142 C  
HETATM    5  C   UNL     1      -8.244  15.042  69.079  1.00  0.00    -0.187 C  
HETATM    6  O   UNL     1      -6.864  14.365  67.119  1.00  0.00    -0.379 OA 
HETATM    7  O   UNL     1      -9.347  15.605  68.346  1.00  0.00    -0.189 OA 
HETATM    8  C   UNL     1      -9.716  14.681  67.295  1.00  0.00    -0.231 C  
HETATM    9  H   UNL     1      -6.053  14.691  67.491  1.00  0.00     0.000 HD 
ENDROOT
BRANCH   5  10
HETATM   10  O   UNL     1      -7.186  15.936  69.337  1.00  0.00    -0.205 OA 
BRANCH  10  11
HETATM   11  P   UNL     1      -7.220  17.632  69.002  1.00  0.00    -0.096 P  
HETATM   12  O   UNL     1      -5.943  17.865  69.994  1.00  0.00    -0.246 OA 
HETATM   13  O   UNL     1      -6.643  17.358  67.606  1.00  0.00    -0.148 OA 
BRANCH  11  14
HETATM   14  O   UNL     1      -7.254  19.329  68.666  1.00  0.00    -0.302 OA 
HETATM   15  P   UNL     1      -7.398  19.577  66.961  1.00  0.00    -0.226 P  
HETATM   16  O   UNL     1      -7.526  19.798  65.433  1.00  0.00    -0.391 OA 
HETATM   17  O   UNL     1      -9.019  19.525  67.214  1.00  0.00    -0.291 OA 
HETATM   18  O   UNL     1      -7.281  21.176  67.327  1.00  0.00    -0.441 OA 
ENDBRANCH  11  14
ENDBRANCH  10  11
ENDBRANCH   5  10
BRANCH   8  19
HETATM   19  C   UNL     1     -11.234  14.521  67.240  1.00  0.00    -0.332 C  
BRANCH  19  20
HETATM   20  O   UNL     1     -11.654  15.035  65.990  1.00  0.00    -0.286 OA 
HETATM   21  P   UNL     1     -11.925  14.013  64.804  1.00  0.00    -0.456 P  
HETATM   22  O   UNL     1     -12.662  14.956  63.749  1.00  0.00    -0.754 OA 
HETATM   23  O   UNL     1     -10.750  13.265  64.293  1.00  0.00    -0.396 OA 
HETATM   24  O   UNL     1     -13.159  13.170  65.361  1.00  0.00    -0.618 OA 
ENDBRANCH  19  20
ENDBRANCH   8  19
TORSDOF 5
ENDMDL
MODEL       41
REMARK 921   NORMALIZED FREE ENERGY PREDICTED BY IDOCK:   -5.77 KCAL/MOL
REMARK 922        TOTAL FREE ENERGY PREDICTED BY IDOCK:   -8.16 KCAL/MOL
REMARK 923 INTER-LIGAND FREE ENERGY PREDICTED BY IDOCK:   -7.53 KCAL/MOL
REMARK 924 INTRA-LIGAND FREE ENERGY PREDICTED BY IDOCK:   -0.64 KCAL/MOL
REMARK 927      BINDING AFFINITY PREDICTED BY RF-SCORE:    0.00 PKD
ROOT
HETATM    1  O   UNL     1     -12.976  12.122  63.606  1.00  0.00    -0.780 OA 
HETATM    2  H   UNL     1     -12.906  11.223  63.305  1.00  0.00     0.000 HD 
HETATM    3  C   UNL     1     -11.713  12.664  63.976  1.00  0.00    -0.424 C  
HETATM    4  C   UNL     1     -11.825  14.100  64.457  1.00  0.00    -0.436 C  
HETATM    5  C   UNL     1     -10.491  14.253  65.225  1.00  0.00    -0.389 C  
HETATM    6  O   UNL     1     -12.979  14.215  65.316  1.00  0.00    -0.725 OA 
HETATM    7  O   UNL     1     -10.261  12.971  65.837  1.00  0.00    -0.282 OA 
HETATM    8  C   UNL     1     -11.143  12.005  65.220  1.00  0.00    -0.317 C  
HETATM    9  H   UNL     1     -13.050  15.114  65.617  1.00  0.00     0.000 HD 
ENDROOT
BRANCH   5  10
HETATM   10  O   UNL     1     -10.613  15.328  66.127  1.00  0.00    -0.294 OA 
BRANCH  10  11
HETATM   11  P   UNL     1     -10.547  15.185  67.849  1.00  0.00    -0.270 P  
HETATM   12  O   UNL     1      -9.416  16.362  67.914  1.00  0.00    -0.220 OA 
HETATM   13  O   UNL     1     -11.910  15.885  67.950  1.00  0.00    -0.111 OA 
BRANCH  11  14
HETATM   14  O   UNL     1     -10.481  15.044  69.573  1.00  0.00    -0.241 OA 
HETATM   15  P   UNL     1     -12.039  15.390  70.240  1.00  0.00    -0.389 P  
HETATM   16  O   UNL     1     -13.434  15.701  70.837  1.00  0.00    -0.569 OA 
HETATM   17  O   UNL     1     -12.340  13.788  70.051  1.00  0.00    -0.330 OA 
HETATM   18  O   UNL     1     -11.302  15.192  71.696  1.00  0.00    -0.381 OA 
ENDBRANCH  11  14
ENDBRANCH  10  11
ENDBRANCH   5  10
BRANCH   8  19
HETATM   19  C   UNL     1     -10.381  10.721  64.900  1.00  0.00    -0.299 C  
BRANCH  19  20
HETATM   20  O   UNL     1      -9.477  10.504  65.967  1.00  0.00    -0.170 OA 
HETATM   21  P   UNL     1      -9.960   9.628  67.202  1.00  0.00    -0.223 P  
HETATM   22  O   UNL     1      -8.579   9.383  67.962  1.00  0.00    -0.120 OA 
HETATM   23  O   UNL     1     -11.060  10.190  68.023  1.00  0.00    -0.278 OA 
HETATM   24  O   UNL     1     -10.187   8.198  66.532  1.00  0.00    -0.279 OA 
ENDBRANCH  19  20
ENDBRANCH   8  19
TORSDOF 5
ENDMDL
MODEL       42
REMARK 921   NORMALIZED FREE ENERGY PREDICTED BY IDOCK:   -5.76 KCAL/MOL
REMARK 922        TOTAL FREE ENERGY PREDICTED BY IDOCK:   -8.15 KCAL/MOL
REMARK 923 INTER-LIGAND FREE ENERGY PREDICTED BY IDOCK:   -7.59 KCAL/MOL
REMARK 924 INTRA-LIGAND FREE ENERGY PREDICTED BY IDOCK:   -0.56 KCAL/MOL
REMARK 927      BINDING AFFINITY PREDICTED BY RF-SCORE:    0.00 PKD
ROOT
HETATM    1  O   UNL     1     -11.702  16.431  71.176  1.00  0.00    -0.610 OA 
HETATM    2  H   UNL     1     -11.405  17.279  71.488  1.00  0.00     0.000 HD 
HETATM    3  C   UNL     1     -10.929  15.965  70.075  1.00  0.00    -0.358 C  
HETATM    4  C   UNL     1     -11.403  14.611  69.577  1.00  0.00    -0.280 C  
HETATM    5  C   UNL     1     -10.774  14.587  68.163  1.00  0.00    -0.239 C  
HETATM    6  O   UNL     1     -12.846  14.604  69.545  1.00  0.00    -0.548 OA 
HETATM    7  O   UNL     1     -10.849  15.946  67.696  1.00  0.00    -0.310 OA 
HETATM    8  C   UNL     1     -11.138  16.802  68.826  1.00  0.00    -0.220 C  
HETATM    9  H   UNL     1     -13.142  13.756  69.234  1.00  0.00     0.000 HD 
ENDROOT
BRANCH   5  10
HETATM   10  O   UNL     1     -11.473  13.650  67.377  1.00  0.00    -0.303 OA 
BRANCH  10  11
HETATM   11  P   UNL     1     -10.920  12.051  67.019  1.00  0.00    -0.308 P  
HETATM   12  O   UNL     1     -12.156  11.420  67.881  1.00  0.00    -0.646 OA 
HETATM   13  O   UNL     1     -11.428  12.208  65.579  1.00  0.00    -0.340 OA 
BRANCH  11  14
HETATM   14  O   UNL     1     -10.368  10.451  66.661  1.00  0.00    -0.229 OA 
HETATM   15  P   UNL     1      -9.687  10.418  65.071  1.00  0.00    -0.341 P  
HETATM   16  O   UNL     1      -9.078  10.389  63.647  1.00  0.00    -0.207 OA 
HETATM   17  O   UNL     1      -8.273  10.817  65.802  1.00  0.00    -0.162 OA 
HETATM   18  O   UNL     1      -9.498   8.807  65.339  1.00  0.00    -0.127 OA 
ENDBRANCH  11  14
ENDBRANCH  10  11
ENDBRANCH   5  10
BRANCH   8  19
HETATM   19  C   UNL     1     -10.241  18.038  68.797  1.00  0.00    -0.354 C  
BRANCH  19  20
HETATM   20  O   UNL     1      -9.290  17.829  67.770  1.00  0.00    -0.251 OA 
HETATM   21  P   UNL     1      -9.347  18.761  66.485  1.00  0.00    -0.303 P  
HETATM   22  O   UNL     1      -7.957  18.407  65.787  1.00  0.00    -0.509 OA 
HETATM   23  O   UNL     1     -10.552  18.633  65.628  1.00  0.00    -0.610 OA 
HETATM   24  O   UNL     1      -9.016  20.197  67.094  1.00  0.00    -0.332 OA 
ENDBRANCH  19  20
ENDBRANCH   8  19
TORSDOF 5
ENDMDL
MODEL       43
REMARK 921   NORMALIZED FREE ENERGY PREDICTED BY IDOCK:   -5.75 KCAL/MOL
REMARK 922        TOTAL FREE ENERGY PREDICTED BY IDOCK:   -8.13 KCAL/MOL
REMARK 923 INTER-LIGAND FREE ENERGY PREDICTED BY IDOCK:   -7.20 KCAL/MOL
REMARK 924 INTRA-LIGAND FREE ENERGY PREDICTED BY IDOCK:   -0.94 KCAL/MOL
REMARK 927      BINDING AFFINITY PREDICTED BY RF-SCORE:    0.00 PKD
ROOT
HETATM    1  O   UNL     1     -12.528  14.454  63.219  1.00  0.00    -1.099 OA 
HETATM    2  H   UNL     1     -12.431  15.372  62.992  1.00  0.00     0.000 HD 
HETATM    3  C   UNL     1     -12.409  14.233  64.621  1.00  0.00    -0.415 C  
HETATM    4  C   UNL     1     -12.563  12.767  64.983  1.00  0.00    -0.468 C  
HETATM    5  C   UNL     1     -11.921  12.748  66.391  1.00  0.00    -0.375 C  
HETATM    6  O   UNL     1     -11.832  11.970  64.027  1.00  0.00    -0.391 OA 
HETATM    7  O   UNL     1     -10.834  13.688  66.320  1.00  0.00    -0.282 OA 
HETATM    8  C   UNL     1     -11.002  14.492  65.129  1.00  0.00    -0.379 C  
HETATM    9  H   UNL     1     -11.929  11.052  64.254  1.00  0.00     0.000 HD 
ENDROOT
BRANCH   5  10
HETATM   10  O   UNL     1     -11.543  11.426  66.694  1.00  0.00    -0.432 OA 
BRANCH  10  11
HETATM   11  P   UNL     1      -9.917  10.898  66.955  1.00  0.00    -0.205 P  
HETATM   12  O   UNL     1     -10.463   9.480  67.557  1.00  0.00    -0.241 OA 
HETATM   13  O   UNL     1      -9.750  10.693  65.443  1.00  0.00    -0.217 OA 
BRANCH  11  14
HETATM   14  O   UNL     1      -8.290  10.368  67.217  1.00  0.00    -0.121 OA 
HETATM   15  P   UNL     1      -7.226  11.731  67.169  1.00  0.00    -0.110 P  
HETATM   16  O   UNL     1      -6.273  12.952  67.125  1.00  0.00    -0.281 OA 
HETATM   17  O   UNL     1      -7.516  11.859  68.779  1.00  0.00    -0.117 OA 
HETATM   18  O   UNL     1      -6.027  10.622  67.361  1.00  0.00    -0.051 OA 
ENDBRANCH  11  14
ENDBRANCH  10  11
ENDBRANCH   5  10
BRANCH   8  19
HETATM   19  C   UNL     1     -10.761  15.966  65.447  1.00  0.00    -0.399 C  
BRANCH  19  20
HETATM   20  O   UNL     1      -9.876  16.008  66.551  1.00  0.00    -0.241 OA 
HETATM   21  P   UNL     1      -9.062  17.345  66.818  1.00  0.00    -0.278 P  
HETATM   22  O   UNL     1      -8.481  17.064  68.278  1.00  0.00    -0.217 OA 
HETATM   23  O   UNL     1      -8.064  17.730  65.788  1.00  0.00    -0.541 OA 
HETATM   24  O   UNL     1     -10.222  18.386  67.156  1.00  0.00    -0.338 OA 
ENDBRANCH  19  20
ENDBRANCH   8  19
TORSDOF 5
ENDMDL
MODEL       44
REMARK 921   NORMALIZED FREE ENERGY PREDICTED BY IDOCK:   -5.74 KCAL/MOL
REMARK 922        TOTAL FREE ENERGY PREDICTED BY IDOCK:   -8.12 KCAL/MOL
REMARK 923 INTER-LIGAND FREE ENERGY PREDICTED BY IDOCK:   -7.66 KCAL/MOL
REMARK 924 INTRA-LIGAND FREE ENERGY PREDICTED BY IDOCK:   -0.47 KCAL/MOL
REMARK 927      BINDING AFFINITY PREDICTED BY RF-SCORE:    0.00 PKD
ROOT
HETATM    1  O   UNL     1     -11.743  16.446  71.221  1.00  0.00    -0.621 OA 
HETATM    2  H   UNL     1     -11.411  17.325  71.360  1.00  0.00     0.000 HD 
HETATM    3  C   UNL     1     -11.052  15.772  70.173  1.00  0.00    -0.352 C  
HETATM    4  C   UNL     1     -11.582  14.367  69.950  1.00  0.00    -0.284 C  
HETATM    5  C   UNL     1     -11.048  14.079  68.527  1.00  0.00    -0.257 C  
HETATM    6  O   UNL     1     -13.024  14.396  70.009  1.00  0.00    -0.507 OA 
HETATM    7  O   UNL     1     -11.129  15.338  67.834  1.00  0.00    -0.298 OA 
HETATM    8  C   UNL     1     -11.328  16.385  68.812  1.00  0.00    -0.277 C  
HETATM    9  H   UNL     1     -13.355  13.517  69.870  1.00  0.00     0.000 HD 
ENDROOT
BRANCH   5  10
HETATM   10  O   UNL     1     -11.814  13.040  67.962  1.00  0.00    -0.344 OA 
BRANCH  10  11
HETATM   11  P   UNL     1     -11.472  12.269  66.452  1.00  0.00    -0.347 P  
HETATM   12  O   UNL     1     -12.445  13.330  65.679  1.00  0.00    -0.457 OA 
HETATM   13  O   UNL     1     -10.069  12.891  66.462  1.00  0.00    -0.249 OA 
BRANCH  11  14
HETATM   14  O   UNL     1     -11.131  11.498  64.941  1.00  0.00    -0.284 OA 
HETATM   15  P   UNL     1      -9.535  10.832  64.982  1.00  0.00    -0.281 P  
HETATM   16  O   UNL     1      -8.106  10.236  65.018  1.00  0.00    -0.143 OA 
HETATM   17  O   UNL     1     -10.246   9.482  65.588  1.00  0.00    -0.228 OA 
HETATM   18  O   UNL     1      -9.823  10.414  63.418  1.00  0.00    -0.307 OA 
ENDBRANCH  11  14
ENDBRANCH  10  11
ENDBRANCH   5  10
BRANCH   8  19
HETATM   19  C   UNL     1     -10.412  17.570  68.512  1.00  0.00    -0.361 C  
BRANCH  19  20
HETATM   20  O   UNL     1     -11.009  18.289  67.448  1.00  0.00    -0.328 OA 
HETATM   21  P   UNL     1     -10.067  19.120  66.475  1.00  0.00    -0.471 P  
HETATM   22  O   UNL     1     -11.081  19.472  65.294  1.00  0.00    -0.406 OA 
HETATM   23  O   UNL     1      -9.347  20.272  67.074  1.00  0.00    -0.367 OA 
HETATM   24  O   UNL     1      -9.197  17.975  65.787  1.00  0.00    -0.486 OA 
ENDBRANCH  19  20
ENDBRANCH   8  19
TORSDOF 5
ENDMDL
MODEL       45
REMARK 921   NORMALIZED FREE ENERGY PREDICTED BY IDOCK:   -5.74 KCAL/MOL
REMARK 922        TOTAL FREE ENERGY PREDICTED BY IDOCK:   -8.12 KCAL/MOL
REMARK 923 INTER-LIGAND FREE ENERGY PREDICTED BY IDOCK:   -7.15 KCAL/MOL
REMARK 924 INTRA-LIGAND FREE ENERGY PREDICTED BY IDOCK:   -0.97 KCAL/MOL
REMARK 927      BINDING AFFINITY PREDICTED BY RF-SCORE:    0.00 PKD
ROOT
HETATM    1  O   UNL     1     -10.443  15.671  68.766  1.00  0.00    -0.213 OA 
HETATM    2  H   UNL     1     -10.511  15.596  69.711  1.00  0.00     0.000 HD 
HETATM    3  C   UNL     1     -11.483  14.965  68.096  1.00  0.00    -0.330 C  
HETATM    4  C   UNL     1     -11.374  15.084  66.586  1.00  0.00    -0.289 C  
HETATM    5  C   UNL     1     -12.252  13.890  66.139  1.00  0.00    -0.464 C  
HETATM    6  O   UNL     1      -9.991  14.933  66.204  1.00  0.00    -0.270 OA 
HETATM    7  O   UNL     1     -12.013  12.862  67.117  1.00  0.00    -0.371 OA 
HETATM    8  C   UNL     1     -11.360  13.461  68.260  1.00  0.00    -0.295 C  
HETATM    9  H   UNL     1      -9.923  15.007  65.260  1.00  0.00     0.000 HD 
ENDROOT
BRANCH   5  10
HETATM   10  O   UNL     1     -11.902  13.547  64.818  1.00  0.00    -0.351 OA 
BRANCH  10  11
HETATM   11  P   UNL     1     -11.123  12.074  64.354  1.00  0.00    -0.380 P  
HETATM   12  O   UNL     1     -12.347  11.740  63.324  1.00  0.00    -0.518 OA 
HETATM   13  O   UNL     1     -10.091  12.883  63.556  1.00  0.00    -0.273 OA 
BRANCH  11  14
HETATM   14  O   UNL     1     -10.344  10.601  63.888  1.00  0.00    -0.318 OA 
HETATM   15  P   UNL     1      -9.018  10.289  64.953  1.00  0.00    -0.238 P  
HETATM   16  O   UNL     1      -7.830  10.009  65.907  1.00  0.00    -0.112 OA 
HETATM   17  O   UNL     1     -10.112   9.496  65.884  1.00  0.00    -0.294 OA 
HETATM   18  O   UNL     1      -8.733   8.989  63.987  1.00  0.00    -0.178 OA 
ENDBRANCH  11  14
ENDBRANCH  10  11
ENDBRANCH   5  10
BRANCH   8  19
HETATM   19  C   UNL     1     -11.998  12.963  69.555  1.00  0.00    -0.285 C  
BRANCH  19  20
HETATM   20  O   UNL     1     -12.890  13.974  69.987  1.00  0.00    -0.200 OA 
HETATM   21  P   UNL     1     -12.933  14.336  71.533  1.00  0.00    -0.379 P  
HETATM   22  O   UNL     1     -13.786  15.684  71.509  1.00  0.00    -0.491 OA 
HETATM   23  O   UNL     1     -13.425  13.275  72.448  1.00  0.00    -0.549 OA 
HETATM   24  O   UNL     1     -11.469  14.916  71.785  1.00  0.00    -0.351 OA 
ENDBRANCH  19  20
ENDBRANCH   8  19
TORSDOF 5
ENDMDL
MODEL       46
REMARK 921   NORMALIZED FREE ENERGY PREDICTED BY IDOCK:   -5.73 KCAL/MOL
REMARK 922        TOTAL FREE ENERGY PREDICTED BY IDOCK:   -8.10 KCAL/MOL
REMARK 923 INTER-LIGAND FREE ENERGY PREDICTED BY IDOCK:   -6.98 KCAL/MOL
REMARK 924 INTRA-LIGAND FREE ENERGY PREDICTED BY IDOCK:   -1.13 KCAL/MOL
REMARK 927      BINDING AFFINITY PREDICTED BY RF-SCORE:    0.00 PKD
ROOT
HETATM    1  O   UNL     1     -12.208  11.579  67.967  1.00  0.00    -0.582 OA 
HETATM    2  H   UNL     1     -11.871  10.736  68.246  1.00  0.00     0.000 HD 
HETATM    3  C   UNL     1     -11.422  12.154  66.928  1.00  0.00    -0.351 C  
HETATM    4  C   UNL     1     -11.960  13.502  66.482  1.00  0.00    -0.413 C  
HETATM    5  C   UNL     1     -10.718  14.088  65.769  1.00  0.00    -0.293 C  
HETATM    6  O   UNL     1     -12.343  14.260  67.648  1.00  0.00    -0.598 OA 
HETATM    7  O   UNL     1      -9.592  13.625  66.537  1.00  0.00    -0.276 OA 
HETATM    8  C   UNL     1     -10.039  12.559  67.406  1.00  0.00    -0.210 C  
HETATM    9  H   UNL     1     -12.681  15.104  67.369  1.00  0.00     0.000 HD 
ENDROOT
BRANCH   5  10
HETATM   10  O   UNL     1     -10.857  15.488  65.704  1.00  0.00    -0.334 OA 
BRANCH  10  11
HETATM   11  P   UNL     1      -9.755  16.624  66.400  1.00  0.00    -0.311 P  
HETATM   12  O   UNL     1     -10.322  17.795  65.412  1.00  0.00    -0.602 OA 
HETATM   13  O   UNL     1     -10.616  16.669  67.669  1.00  0.00    -0.316 OA 
BRANCH  11  14
HETATM   14  O   UNL     1      -8.652  17.762  67.095  1.00  0.00    -0.225 OA 
HETATM   15  P   UNL     1      -7.028  17.270  66.760  1.00  0.00    -0.266 P  
HETATM   16  O   UNL     1      -5.574  16.828  66.459  1.00  0.00    -0.340 OA 
HETATM   17  O   UNL     1      -7.176  18.151  65.383  1.00  0.00    -0.529 OA 
HETATM   18  O   UNL     1      -6.597  18.566  67.674  1.00  0.00    -0.201 OA 
ENDBRANCH  11  14
ENDBRANCH  10  11
ENDBRANCH   5  10
BRANCH   8  19
HETATM   19  C   UNL     1      -9.048  11.397  67.371  1.00  0.00    -0.160 C  
BRANCH  19  20
HETATM   20  O   UNL     1      -8.695  11.119  68.714  1.00  0.00    -0.161 OA 
HETATM   21  P   UNL     1      -9.282   9.810  69.395  1.00  0.00    -0.231 P  
HETATM   22  O   UNL     1      -8.397   9.731  70.720  1.00  0.00    -0.229 OA 
HETATM   23  O   UNL     1     -10.753   9.770  69.595  1.00  0.00    -0.216 OA 
HETATM   24  O   UNL     1      -8.618   8.650  68.526  1.00  0.00    -0.132 OA 
ENDBRANCH  19  20
ENDBRANCH   8  19
TORSDOF 5
ENDMDL
MODEL       47
REMARK 921   NORMALIZED FREE ENERGY PREDICTED BY IDOCK:   -5.68 KCAL/MOL
REMARK 922        TOTAL FREE ENERGY PREDICTED BY IDOCK:   -8.04 KCAL/MOL
REMARK 923 INTER-LIGAND FREE ENERGY PREDICTED BY IDOCK:   -6.95 KCAL/MOL
REMARK 924 INTRA-LIGAND FREE ENERGY PREDICTED BY IDOCK:   -1.09 KCAL/MOL
REMARK 927      BINDING AFFINITY PREDICTED BY RF-SCORE:    0.00 PKD
ROOT
HETATM    1  O   UNL     1     -11.310   9.516  67.912  1.00  0.00    -0.494 OA 
HETATM    2  H   UNL     1     -11.368   8.762  68.486  1.00  0.00     0.000 HD 
HETATM    3  C   UNL     1     -11.007  10.711  68.625  1.00  0.00    -0.246 C  
HETATM    4  C   UNL     1     -10.915  11.917  67.707  1.00  0.00    -0.228 C  
HETATM    5  C   UNL     1     -11.079  13.069  68.727  1.00  0.00    -0.270 C  
HETATM    6  O   UNL     1     -11.994  11.861  66.751  1.00  0.00    -0.613 OA 
HETATM    7  O   UNL     1     -12.020  12.578  69.699  1.00  0.00    -0.303 OA 
HETATM    8  C   UNL     1     -12.144  11.147  69.532  1.00  0.00    -0.326 C  
HETATM    9  H   UNL     1     -11.935  12.615  66.176  1.00  0.00     0.000 HD 
ENDROOT
BRANCH   5  10
HETATM   10  O   UNL     1     -11.490  14.225  68.035  1.00  0.00    -0.281 OA 
BRANCH  10  11
HETATM   11  P   UNL     1     -10.468  15.191  67.028  1.00  0.00    -0.291 P  
HETATM   12  O   UNL     1     -11.431  14.889  65.743  1.00  0.00    -0.342 OA 
HETATM   13  O   UNL     1     -11.021  16.457  67.698  1.00  0.00    -0.308 OA 
BRANCH  11  14
HETATM   14  O   UNL     1      -9.446  16.158  66.021  1.00  0.00    -0.304 OA 
HETATM   15  P   UNL     1      -8.345  17.055  67.008  1.00  0.00    -0.236 P  
HETATM   16  O   UNL     1      -7.359  17.857  67.893  1.00  0.00    -0.212 OA 
HETATM   17  O   UNL     1      -7.357  15.750  66.876  1.00  0.00    -0.210 OA 
HETATM   18  O   UNL     1      -7.838  17.719  65.592  1.00  0.00    -0.538 OA 
ENDBRANCH  11  14
ENDBRANCH  10  11
ENDBRANCH   5  10
BRANCH   8  19
HETATM   19  C   UNL     1     -12.104  10.450  70.890  1.00  0.00    -0.374 C  
BRANCH  19  20
HETATM   20  O   UNL     1     -10.845   9.809  70.984  1.00  0.00    -0.326 OA 
HETATM   21  P   UNL     1     -10.801   8.296  71.469  1.00  0.00    -0.287 P  
HETATM   22  O   UNL     1      -9.294   7.906  71.118  1.00  0.00    -0.148 OA 
HETATM   23  O   UNL     1     -11.227   8.037  72.867  1.00  0.00    -0.401 OA 
HETATM   24  O   UNL     1     -11.582   7.543  70.301  1.00  0.00    -0.213 OA 
ENDBRANCH  19  20
ENDBRANCH   8  19
TORSDOF 5
ENDMDL
MODEL       48
REMARK 921   NORMALIZED FREE ENERGY PREDICTED BY IDOCK:   -5.67 KCAL/MOL
REMARK 922        TOTAL FREE ENERGY PREDICTED BY IDOCK:   -8.03 KCAL/MOL
REMARK 923 INTER-LIGAND FREE ENERGY PREDICTED BY IDOCK:   -7.14 KCAL/MOL
REMARK 924 INTRA-LIGAND FREE ENERGY PREDICTED BY IDOCK:   -0.89 KCAL/MOL
REMARK 927      BINDING AFFINITY PREDICTED BY RF-SCORE:    0.00 PKD
ROOT
HETATM    1  O   UNL     1      -6.680  16.562  69.659  1.00  0.00    -0.218 OA 
HETATM    2  H   UNL     1      -6.193  17.378  69.659  1.00  0.00     0.000 HD 
HETATM    3  C   UNL     1      -7.603  16.488  68.577  1.00  0.00    -0.200 C  
HETATM    4  C   UNL     1      -8.381  15.184  68.578  1.00  0.00    -0.158 C  
HETATM    5  C   UNL     1      -9.580  15.563  67.676  1.00  0.00    -0.210 C  
HETATM    6  O   UNL     1      -8.776  14.877  69.931  1.00  0.00    -0.436 OA 
HETATM    7  O   UNL     1      -9.864  16.939  67.989  1.00  0.00    -0.251 OA 
HETATM    8  C   UNL     1      -8.740  17.483  68.718  1.00  0.00    -0.214 C  
HETATM    9  H   UNL     1      -9.262  14.060  69.931  1.00  0.00     0.000 HD 
ENDROOT
BRANCH   5  10
HETATM   10  O   UNL     1     -10.635  14.666  67.933  1.00  0.00    -0.240 OA 
BRANCH  10  11
HETATM   11  P   UNL     1     -11.237  13.500  66.806  1.00  0.00    -0.332 P  
HETATM   12  O   UNL     1     -11.764  12.566  68.039  1.00  0.00    -0.327 OA 
HETATM   13  O   UNL     1     -12.391  14.449  66.455  1.00  0.00    -0.409 OA 
BRANCH  11  14
HETATM   14  O   UNL     1     -11.841  12.333  65.680  1.00  0.00    -0.406 OA 
HETATM   15  P   UNL     1     -12.246  13.122  64.195  1.00  0.00    -0.367 P  
HETATM   16  O   UNL     1     -12.609  13.829  62.865  1.00  0.00    -0.611 OA 
HETATM   17  O   UNL     1     -10.689  12.837  63.761  1.00  0.00    -0.413 OA 
HETATM   18  O   UNL     1     -12.767  11.638  63.714  1.00  0.00    -0.338 OA 
ENDBRANCH  11  14
ENDBRANCH  10  11
ENDBRANCH   5  10
BRANCH   8  19
HETATM   19  C   UNL     1      -8.376  18.864  68.176  1.00  0.00    -0.309 C  
BRANCH  19  20
HETATM   20  O   UNL     1      -7.626  19.515  69.185  1.00  0.00    -0.361 OA 
HETATM   21  P   UNL     1      -6.164  20.026  68.830  1.00  0.00    -0.313 P  
HETATM   22  O   UNL     1      -5.845  20.944  70.095  1.00  0.00    -0.503 OA 
HETATM   23  O   UNL     1      -5.156  18.982  68.516  1.00  0.00    -0.183 OA 
HETATM   24  O   UNL     1      -6.454  21.136  67.723  1.00  0.00    -0.346 OA 
ENDBRANCH  19  20
ENDBRANCH   8  19
TORSDOF 5
ENDMDL
MODEL       49
REMARK 921   NORMALIZED FREE ENERGY PREDICTED BY IDOCK:   -5.67 KCAL/MOL
REMARK 922        TOTAL FREE ENERGY PREDICTED BY IDOCK:   -8.03 KCAL/MOL
REMARK 923 INTER-LIGAND FREE ENERGY PREDICTED BY IDOCK:   -7.29 KCAL/MOL
REMARK 924 INTRA-LIGAND FREE ENERGY PREDICTED BY IDOCK:   -0.74 KCAL/MOL
REMARK 927      BINDING AFFINITY PREDICTED BY RF-SCORE:    0.00 PKD
ROOT
HETATM    1  O   UNL     1      -9.167   7.148  69.331  1.00  0.00    -0.148 OA 
HETATM    2  H   UNL     1      -8.908   6.677  70.115  1.00  0.00     0.000 HD 
HETATM    3  C   UNL     1      -9.650   8.455  69.626  1.00  0.00    -0.163 C  
HETATM    4  C   UNL     1     -10.064   9.207  68.374  1.00  0.00    -0.196 C  
HETATM    5  C   UNL     1     -10.963  10.309  68.984  1.00  0.00    -0.232 C  
HETATM    6  O   UNL     1     -10.791   8.310  67.509  1.00  0.00    -0.487 OA 
HETATM    7  O   UNL     1     -11.642   9.674  70.083  1.00  0.00    -0.226 OA 
HETATM    8  C   UNL     1     -10.969   8.428  70.377  1.00  0.00    -0.239 C  
HETATM    9  H   UNL     1     -11.050   8.781  66.726  1.00  0.00     0.000 HD 
ENDROOT
BRANCH   5  10
HETATM   10  O   UNL     1     -11.808  10.809  67.973  1.00  0.00    -0.546 OA 
BRANCH  10  11
HETATM   11  P   UNL     1     -11.634  12.352  67.213  1.00  0.00    -0.308 P  
HETATM   12  O   UNL     1     -10.303  12.656  68.110  1.00  0.00    -0.220 OA 
HETATM   13  O   UNL     1     -11.148  11.657  65.933  1.00  0.00    -0.303 OA 
BRANCH  11  14
HETATM   14  O   UNL     1     -11.459  13.896  66.452  1.00  0.00    -0.322 OA 
HETATM   15  P   UNL     1     -11.982  13.791  64.806  1.00  0.00    -0.447 P  
HETATM   16  O   UNL     1     -12.451  13.696  63.333  1.00  0.00    -0.784 OA 
HETATM   17  O   UNL     1     -13.471  14.168  65.385  1.00  0.00    -0.648 OA 
HETATM   18  O   UNL     1     -11.504  15.361  64.703  1.00  0.00    -0.408 OA 
ENDBRANCH  11  14
ENDBRANCH  10  11
ENDBRANCH   5  10
BRANCH   8  19
HETATM   19  C   UNL     1     -10.778   8.272  71.883  1.00  0.00    -0.283 C  
BRANCH  19  20
HETATM   20  O   UNL     1     -11.354   7.029  72.242  1.00  0.00    -0.253 OA 
HETATM   21  P   UNL     1     -10.434   5.947  72.955  1.00  0.00    -0.254 P  
HETATM   22  O   UNL     1     -11.527   4.896  73.451  1.00  0.00    -0.336 OA 
HETATM   23  O   UNL     1      -9.319   5.391  72.149  1.00  0.00    -0.142 OA 
HETATM   24  O   UNL     1     -10.070   6.667  74.331  1.00  0.00    -0.343 OA 
ENDBRANCH  19  20
ENDBRANCH   8  19
TORSDOF 5
ENDMDL
MODEL       50
REMARK 921   NORMALIZED FREE ENERGY PREDICTED BY IDOCK:   -5.65 KCAL/MOL
REMARK 922        TOTAL FREE ENERGY PREDICTED BY IDOCK:   -8.01 KCAL/MOL
REMARK 923 INTER-LIGAND FREE ENERGY PREDICTED BY IDOCK:   -7.70 KCAL/MOL
REMARK 924 INTRA-LIGAND FREE ENERGY PREDICTED BY IDOCK:   -0.31 KCAL/MOL
REMARK 927      BINDING AFFINITY PREDICTED BY RF-SCORE:    0.00 PKD
ROOT
HETATM    1  O   UNL     1      -8.560  12.159  66.437  1.00  0.00    -0.361 OA 
HETATM    2  H   UNL     1      -8.321  12.666  65.669  1.00  0.00     0.000 HD 
HETATM    3  C   UNL     1      -9.913  12.377  66.823  1.00  0.00    -0.225 C  
HETATM    4  C   UNL     1     -10.296  11.569  68.050  1.00  0.00    -0.190 C  
HETATM    5  C   UNL     1     -11.556  12.333  68.518  1.00  0.00    -0.310 C  
HETATM    6  O   UNL     1      -9.217  11.633  69.006  1.00  0.00    -0.393 OA 
HETATM    7  O   UNL     1     -11.282  13.718  68.235  1.00  0.00    -0.249 OA 
HETATM    8  C   UNL     1     -10.147  13.785  67.342  1.00  0.00    -0.244 C  
HETATM    9  H   UNL     1      -9.456  11.126  69.774  1.00  0.00     0.000 HD 
ENDROOT
BRANCH   5  10
HETATM   10  O   UNL     1     -11.780  12.039  69.878  1.00  0.00    -0.314 OA 
BRANCH  10  11
HETATM   11  P   UNL     1     -12.547  10.605  70.466  1.00  0.00    -0.254 P  
HETATM   12  O   UNL     1     -11.087   9.932  70.759  1.00  0.00    -0.303 OA 
HETATM   13  O   UNL     1     -12.947  11.354  71.745  1.00  0.00    -0.459 OA 
BRANCH  11  14
HETATM   14  O   UNL     1     -13.314   9.170  71.054  1.00  0.00    -0.194 OA 
HETATM   15  P   UNL     1     -12.132   7.921  71.244  1.00  0.00    -0.243 P  
HETATM   16  O   UNL     1     -11.073   6.803  71.413  1.00  0.00    -0.240 OA 
HETATM   17  O   UNL     1     -11.926   8.515  72.760  1.00  0.00    -0.335 OA 
HETATM   18  O   UNL     1     -13.407   6.975  71.669  1.00  0.00    -0.369 OA 
ENDBRANCH  11  14
ENDBRANCH  10  11
ENDBRANCH   5  10
BRANCH   8  19
HETATM   19  C   UNL     1     -10.416  14.782  66.217  1.00  0.00    -0.296 C  
BRANCH  19  20
HETATM   20  O   UNL     1     -10.926  14.040  65.125  1.00  0.00    -0.319 OA 
HETATM   21  P   UNL     1     -12.392  14.366  64.607  1.00  0.00    -0.239 P  
HETATM   22  O   UNL     1     -12.416  13.563  63.228  1.00  0.00    -0.763 OA 
HETATM   23  O   UNL     1     -13.506  14.074  65.545  1.00  0.00    -0.677 OA 
HETATM   24  O   UNL     1     -12.238  15.862  64.077  1.00  0.00    -0.719 OA 
ENDBRANCH  19  20
ENDBRANCH   8  19
TORSDOF 5
ENDMDL
MODEL       51
REMARK 921   NORMALIZED FREE ENERGY PREDICTED BY IDOCK:   -5.65 KCAL/MOL
REMARK 922        TOTAL FREE ENERGY PREDICTED BY IDOCK:   -8.01 KCAL/MOL
REMARK 923 INTER-LIGAND FREE ENERGY PREDICTED BY IDOCK:   -7.25 KCAL/MOL
REMARK 924 INTRA-LIGAND FREE ENERGY PREDICTED BY IDOCK:   -0.75 KCAL/MOL
REMARK 927      BINDING AFFINITY PREDICTED BY RF-SCORE:    0.00 PKD
ROOT
HETATM    1  O   UNL     1     -10.021  13.705  69.220  1.00  0.00    -0.410 OA 
HETATM    2  H   UNL     1     -10.279  14.599  69.029  1.00  0.00     0.000 HD 
HETATM    3  C   UNL     1     -10.232  12.837  68.111  1.00  0.00    -0.241 C  
HETATM    4  C   UNL     1      -9.822  11.407  68.418  1.00  0.00    -0.205 C  
HETATM    5  C   UNL     1     -10.583  10.644  67.308  1.00  0.00    -0.263 C  
HETATM    6  O   UNL     1     -10.277  11.065  69.743  1.00  0.00    -0.437 OA 
HETATM    7  O   UNL     1     -11.826  11.353  67.150  1.00  0.00    -0.566 OA 
HETATM    8  C   UNL     1     -11.706  12.637  67.806  1.00  0.00    -0.356 C  
HETATM    9  H   UNL     1     -10.020  10.170  69.935  1.00  0.00     0.000 HD 
ENDROOT
BRANCH   5  10
HETATM   10  O   UNL     1     -10.715   9.297  67.699  1.00  0.00    -0.269 OA 
BRANCH  10  11
HETATM   11  P   UNL     1      -9.961   7.959  66.904  1.00  0.00    -0.275 P  
HETATM   12  O   UNL     1      -9.389   8.957  65.744  1.00  0.00    -0.229 OA 
HETATM   13  O   UNL     1      -8.895   7.916  68.007  1.00  0.00    -0.125 OA 
BRANCH  11  14
HETATM   14  O   UNL     1      -9.207   6.620  66.108  1.00  0.00    -0.153 OA 
HETATM   15  P   UNL     1      -9.279   5.227  67.130  1.00  0.00    -0.121 P  
HETATM   16  O   UNL     1      -9.344   3.979  68.046  1.00  0.00    -0.145 OA 
HETATM   17  O   UNL     1     -10.724   4.927  66.412  1.00  0.00    -0.281 OA 
HETATM   18  O   UNL     1      -8.413   4.488  65.944  1.00  0.00    -0.113 OA 
ENDBRANCH  11  14
ENDBRANCH  10  11
ENDBRANCH   5  10
BRANCH   8  19
HETATM   19  C   UNL     1     -12.270  13.742  66.915  1.00  0.00    -0.366 C  
BRANCH  19  20
HETATM   20  O   UNL     1     -12.705  13.121  65.720  1.00  0.00    -0.445 OA 
HETATM   21  P   UNL     1     -12.112  13.638  64.339  1.00  0.00    -0.395 P  
HETATM   22  O   UNL     1     -12.602  12.489  63.346  1.00  0.00    -0.690 OA 
HETATM   23  O   UNL     1     -12.462  15.026  63.946  1.00  0.00    -0.790 OA 
HETATM   24  O   UNL     1     -10.566  13.271  64.478  1.00  0.00    -0.379 OA 
ENDBRANCH  19  20
ENDBRANCH   8  19
TORSDOF 5
ENDMDL
MODEL       52
REMARK 921   NORMALIZED FREE ENERGY PREDICTED BY IDOCK:   -5.65 KCAL/MOL
REMARK 922        TOTAL FREE ENERGY PREDICTED BY IDOCK:   -8.00 KCAL/MOL
REMARK 923 INTER-LIGAND FREE ENERGY PREDICTED BY IDOCK:   -6.94 KCAL/MOL
REMARK 924 INTRA-LIGAND FREE ENERGY PREDICTED BY IDOCK:   -1.07 KCAL/MOL
REMARK 927      BINDING AFFINITY PREDICTED BY RF-SCORE:    0.00 PKD
ROOT
HETATM    1  O   UNL     1      -9.140  11.435  67.101  1.00  0.00    -0.159 OA 
HETATM    2  H   UNL     1      -9.391  12.014  66.391  1.00  0.00     0.000 HD 
HETATM    3  C   UNL     1     -10.264  11.001  67.862  1.00  0.00    -0.182 C  
HETATM    4  C   UNL     1      -9.863  10.076  68.997  1.00  0.00    -0.199 C  
HETATM    5  C   UNL     1     -11.115  10.169  69.902  1.00  0.00    -0.293 C  
HETATM    6  O   UNL     1      -8.677  10.601  69.631  1.00  0.00    -0.391 OA 
HETATM    7  O   UNL     1     -11.561  11.533  69.786  1.00  0.00    -0.291 OA 
HETATM    8  C   UNL     1     -10.902  12.134  68.647  1.00  0.00    -0.235 C  
HETATM    9  H   UNL     1      -8.426  10.022  70.341  1.00  0.00     0.000 HD 
ENDROOT
BRANCH   5  10
HETATM   10  O   UNL     1     -10.758   9.771  71.205  1.00  0.00    -0.324 OA 
BRANCH  10  11
HETATM   11  P   UNL     1     -10.088   8.231  71.619  1.00  0.00    -0.263 P  
HETATM   12  O   UNL     1      -8.700   8.951  72.093  1.00  0.00    -0.386 OA 
HETATM   13  O   UNL     1     -10.996   8.179  72.856  1.00  0.00    -0.364 OA 
BRANCH  11  14
HETATM   14  O   UNL     1      -9.418   6.691  72.034  1.00  0.00    -0.150 OA 
HETATM   15  P   UNL     1     -10.665   5.669  72.661  1.00  0.00    -0.275 P  
HETATM   16  O   UNL     1     -11.782   4.755  73.222  1.00  0.00    -0.312 OA 
HETATM   17  O   UNL     1     -10.910   5.219  71.102  1.00  0.00    -0.178 OA 
HETATM   18  O   UNL     1      -9.456   4.580  72.900  1.00  0.00    -0.129 OA 
ENDBRANCH  11  14
ENDBRANCH  10  11
ENDBRANCH   5  10
BRANCH   8  19
HETATM   19  C   UNL     1     -11.905  12.926  67.812  1.00  0.00    -0.339 C  
BRANCH  19  20
HETATM   20  O   UNL     1     -12.033  12.250  66.575  1.00  0.00    -0.596 OA 
HETATM   21  P   UNL     1     -11.968  13.103  65.236  1.00  0.00    -0.455 P  
HETATM   22  O   UNL     1     -11.826  11.948  64.144  1.00  0.00    -0.355 OA 
HETATM   23  O   UNL     1     -13.071  14.071  65.014  1.00  0.00    -0.742 OA 
HETATM   24  O   UNL     1     -10.477  13.667  65.267  1.00  0.00    -0.317 OA 
ENDBRANCH  19  20
ENDBRANCH   8  19
TORSDOF 5
ENDMDL
MODEL       53
REMARK 921   NORMALIZED FREE ENERGY PREDICTED BY IDOCK:   -5.65 KCAL/MOL
REMARK 922        TOTAL FREE ENERGY PREDICTED BY IDOCK:   -8.00 KCAL/MOL
REMARK 923 INTER-LIGAND FREE ENERGY PREDICTED BY IDOCK:   -7.22 KCAL/MOL
REMARK 924 INTRA-LIGAND FREE ENERGY PREDICTED BY IDOCK:   -0.78 KCAL/MOL
REMARK 927      BINDING AFFINITY PREDICTED BY RF-SCORE:    0.00 PKD
ROOT
HETATM    1  O   UNL     1     -11.820  10.433  68.655  1.00  0.00    -0.646 OA 
HETATM    2  H   UNL     1     -11.977   9.500  68.567  1.00  0.00     0.000 HD 
HETATM    3  C   UNL     1     -11.314  11.007  67.453  1.00  0.00    -0.230 C  
HETATM    4  C   UNL     1     -11.063  12.497  67.593  1.00  0.00    -0.258 C  
HETATM    5  C   UNL     1     -10.103  12.741  66.404  1.00  0.00    -0.259 C  
HETATM    6  O   UNL     1     -10.442  12.749  68.871  1.00  0.00    -0.379 OA 
HETATM    7  O   UNL     1      -9.290  11.557  66.330  1.00  0.00    -0.201 OA 
HETATM    8  C   UNL     1      -9.912  10.524  67.129  1.00  0.00    -0.193 C  
HETATM    9  H   UNL     1     -10.285  13.682  68.959  1.00  0.00     0.000 HD 
ENDROOT
BRANCH   5  10
HETATM   10  O   UNL     1      -9.393  13.935  66.638  1.00  0.00    -0.269 OA 
BRANCH  10  11
HETATM   11  P   UNL     1      -9.800  15.476  65.967  1.00  0.00    -0.380 P  
HETATM   12  O   UNL     1     -10.755  14.751  64.856  1.00  0.00    -0.401 OA 
HETATM   13  O   UNL     1     -10.690  15.762  67.185  1.00  0.00    -0.314 OA 
BRANCH  11  14
HETATM   14  O   UNL     1     -10.209  17.017  65.294  1.00  0.00    -0.601 OA 
HETATM   15  P   UNL     1     -10.046  18.238  66.508  1.00  0.00    -0.400 P  
HETATM   16  O   UNL     1      -9.900  19.330  67.597  1.00  0.00    -0.312 OA 
HETATM   17  O   UNL     1      -8.488  18.355  66.007  1.00  0.00    -0.494 OA 
HETATM   18  O   UNL     1     -10.610  19.262  65.353  1.00  0.00    -0.492 OA 
ENDBRANCH  11  14
ENDBRANCH  10  11
ENDBRANCH   5  10
BRANCH   8  19
HETATM   19  C   UNL     1      -9.914   9.198  66.371  1.00  0.00    -0.288 C  
BRANCH  19  20
HETATM   20  O   UNL     1     -10.711   8.300  67.121  1.00  0.00    -0.302 OA 
HETATM   21  P   UNL     1     -10.066   6.926  67.590  1.00  0.00    -0.201 P  
HETATM   22  O   UNL     1     -11.160   6.414  68.633  1.00  0.00    -0.317 OA 
HETATM   23  O   UNL     1      -9.696   5.968  66.518  1.00  0.00    -0.154 OA 
HETATM   24  O   UNL     1      -8.916   7.414  68.582  1.00  0.00    -0.133 OA 
ENDBRANCH  19  20
ENDBRANCH   8  19
TORSDOF 5
ENDMDL
MODEL       54
REMARK 921   NORMALIZED FREE ENERGY PREDICTED BY IDOCK:   -5.63 KCAL/MOL
REMARK 922        TOTAL FREE ENERGY PREDICTED BY IDOCK:   -7.98 KCAL/MOL
REMARK 923 INTER-LIGAND FREE ENERGY PREDICTED BY IDOCK:   -7.10 KCAL/MOL
REMARK 924 INTRA-LIGAND FREE ENERGY PREDICTED BY IDOCK:   -0.87 KCAL/MOL
REMARK 927      BINDING AFFINITY PREDICTED BY RF-SCORE:    0.00 PKD
ROOT
HETATM    1  O   UNL     1     -11.086  17.005  69.493  1.00  0.00    -0.323 OA 
HETATM    2  H   UNL     1     -10.648  17.769  69.136  1.00  0.00     0.000 HD 
HETATM    3  C   UNL     1     -10.565  15.791  68.960  1.00  0.00    -0.232 C  
HETATM    4  C   UNL     1     -11.265  14.570  69.529  1.00  0.00    -0.264 C  
HETATM    5  C   UNL     1     -10.887  13.503  68.475  1.00  0.00    -0.264 C  
HETATM    6  O   UNL     1     -12.685  14.826  69.579  1.00  0.00    -0.576 OA 
HETATM    7  O   UNL     1     -10.885  14.203  67.217  1.00  0.00    -0.279 OA 
HETATM    8  C   UNL     1     -10.883  15.624  67.485  1.00  0.00    -0.316 C  
HETATM    9  H   UNL     1     -13.122  14.062  69.936  1.00  0.00     0.000 HD 
ENDROOT
BRANCH   5  10
HETATM   10  O   UNL     1     -11.809  12.441  68.561  1.00  0.00    -0.314 OA 
BRANCH  10  11
HETATM   11  P   UNL     1     -11.402  10.809  68.963  1.00  0.00    -0.301 P  
HETATM   12  O   UNL     1     -11.536  10.378  67.393  1.00  0.00    -0.354 OA 
HETATM   13  O   UNL     1      -9.943  11.235  69.175  1.00  0.00    -0.154 OA 
BRANCH  11  14
HETATM   14  O   UNL     1     -10.995   9.176  69.364  1.00  0.00    -0.197 OA 
HETATM   15  P   UNL     1      -9.932   9.165  70.729  1.00  0.00    -0.297 P  
HETATM   16  O   UNL     1      -8.981   9.157  71.951  1.00  0.00    -0.340 OA 
HETATM   17  O   UNL     1     -11.298   9.120  71.637  1.00  0.00    -0.330 OA 
HETATM   18  O   UNL     1      -9.894   7.537  70.508  1.00  0.00    -0.183 OA 
ENDBRANCH  11  14
ENDBRANCH  10  11
ENDBRANCH   5  10
BRANCH   8  19
HETATM   19  C   UNL     1      -9.870  16.331  66.588  1.00  0.00    -0.253 C  
BRANCH  19  20
HETATM   20  O   UNL     1     -10.521  17.467  66.051  1.00  0.00    -0.367 OA 
HETATM   21  P   UNL     1     -10.037  18.907  66.519  1.00  0.00    -0.446 P  
HETATM   22  O   UNL     1     -10.784  19.839  65.460  1.00  0.00    -0.479 OA 
HETATM   23  O   UNL     1     -10.255  19.247  67.947  1.00  0.00    -0.366 OA 
HETATM   24  O   UNL     1      -8.545  18.961  65.959  1.00  0.00    -0.467 OA 
ENDBRANCH  19  20
ENDBRANCH   8  19
TORSDOF 5
ENDMDL
MODEL       55
REMARK 921   NORMALIZED FREE ENERGY PREDICTED BY IDOCK:   -5.61 KCAL/MOL
REMARK 922        TOTAL FREE ENERGY PREDICTED BY IDOCK:   -7.96 KCAL/MOL
REMARK 923 INTER-LIGAND FREE ENERGY PREDICTED BY IDOCK:   -7.02 KCAL/MOL
REMARK 924 INTRA-LIGAND FREE ENERGY PREDICTED BY IDOCK:   -0.94 KCAL/MOL
REMARK 927      BINDING AFFINITY PREDICTED BY RF-SCORE:    0.00 PKD
ROOT
HETATM    1  O   UNL     1      -9.121  16.696  65.664  1.00  0.00    -0.477 OA 
HETATM    2  H   UNL     1      -8.915  17.559  66.004  1.00  0.00     0.000 HD 
HETATM    3  C   UNL     1     -10.337  16.184  66.200  1.00  0.00    -0.339 C  
HETATM    4  C   UNL     1     -10.665  14.805  65.657  1.00  0.00    -0.336 C  
HETATM    5  C   UNL     1     -11.680  14.312  66.716  1.00  0.00    -0.405 C  
HETATM    6  O   UNL     1      -9.458  14.014  65.631  1.00  0.00    -0.518 OA 
HETATM    7  O   UNL     1     -11.208  14.847  67.966  1.00  0.00    -0.282 OA 
HETATM    8  C   UNL     1     -10.230  15.875  67.683  1.00  0.00    -0.263 C  
HETATM    9  H   UNL     1      -9.664  13.151  65.290  1.00  0.00     0.000 HD 
ENDROOT
BRANCH   5  10
HETATM   10  O   UNL     1     -11.741  12.906  66.658  1.00  0.00    -0.352 OA 
BRANCH  10  11
HETATM   11  P   UNL     1     -11.438  11.847  67.992  1.00  0.00    -0.326 P  
HETATM   12  O   UNL     1     -11.545  10.552  67.002  1.00  0.00    -0.174 OA 
HETATM   13  O   UNL     1      -9.965  12.278  67.989  1.00  0.00    -0.190 OA 
BRANCH  11  14
HETATM   14  O   UNL     1     -11.136  10.788  69.326  1.00  0.00    -0.218 OA 
HETATM   15  P   UNL     1     -12.148  11.232  70.656  1.00  0.00    -0.280 P  
HETATM   16  O   UNL     1     -13.055  11.630  71.847  1.00  0.00    -0.478 OA 
HETATM   17  O   UNL     1     -13.249  10.205  70.002  1.00  0.00     0.091 OA 
HETATM   18  O   UNL     1     -11.359  10.041  71.470  1.00  0.00    -0.301 OA 
ENDBRANCH  11  14
ENDBRANCH  10  11
ENDBRANCH   5  10
BRANCH   8  19
HETATM   19  C   UNL     1     -10.485  17.103  68.553  1.00  0.00    -0.377 C  
BRANCH  19  20
HETATM   20  O   UNL     1     -10.587  18.211  67.678  1.00  0.00    -0.406 OA 
HETATM   21  P   UNL     1      -9.818  19.548  68.057  1.00  0.00    -0.449 P  
HETATM   22  O   UNL     1      -9.936  20.367  66.693  1.00  0.00    -0.444 OA 
HETATM   23  O   UNL     1     -10.280  20.254  69.278  1.00  0.00    -0.213 OA 
HETATM   24  O   UNL     1      -8.292  19.089  67.996  1.00  0.00    -0.283 OA 
ENDBRANCH  19  20
ENDBRANCH   8  19
TORSDOF 5
ENDMDL
MODEL       56
REMARK 921   NORMALIZED FREE ENERGY PREDICTED BY IDOCK:   -5.61 KCAL/MOL
REMARK 922        TOTAL FREE ENERGY PREDICTED BY IDOCK:   -7.95 KCAL/MOL
REMARK 923 INTER-LIGAND FREE ENERGY PREDICTED BY IDOCK:   -7.33 KCAL/MOL
REMARK 924 INTRA-LIGAND FREE ENERGY PREDICTED BY IDOCK:   -0.63 KCAL/MOL
REMARK 927      BINDING AFFINITY PREDICTED BY RF-SCORE:    0.00 PKD
ROOT
HETATM    1  O   UNL     1      -9.590  11.519  66.278  1.00  0.00    -0.205 OA 
HETATM    2  H   UNL     1      -9.770  11.991  65.473  1.00  0.00     0.000 HD 
HETATM    3  C   UNL     1     -10.753  11.376  67.088  1.00  0.00    -0.249 C  
HETATM    4  C   UNL     1     -10.464  10.623  68.374  1.00  0.00    -0.188 C  
HETATM    5  C   UNL     1     -11.685  11.035  69.230  1.00  0.00    -0.326 C  
HETATM    6  O   UNL     1      -9.215  11.093  68.921  1.00  0.00    -0.279 OA 
HETATM    7  O   UNL     1     -11.952  12.403  68.869  1.00  0.00    -0.303 OA 
HETATM    8  C   UNL     1     -11.231  12.702  67.651  1.00  0.00    -0.283 C  
HETATM    9  H   UNL     1      -9.035  10.622  69.726  1.00  0.00     0.000 HD 
ENDROOT
BRANCH   5  10
HETATM   10  O   UNL     1     -11.370  10.831  70.588  1.00  0.00    -0.298 OA 
BRANCH  10  11
HETATM   11  P   UNL     1     -11.694   9.380  71.471  1.00  0.00    -0.399 P  
HETATM   12  O   UNL     1     -13.261   9.814  71.629  1.00  0.00    -0.371 OA 
HETATM   13  O   UNL     1     -11.594   8.576  70.167  1.00  0.00    -0.089 OA 
BRANCH  11  14
HETATM   14  O   UNL     1     -12.019   7.927  72.353  1.00  0.00    -0.333 OA 
HETATM   15  P   UNL     1     -11.303   6.582  71.535  1.00  0.00    -0.315 P  
HETATM   16  O   UNL     1     -10.661   5.379  70.801  1.00  0.00    -0.248 OA 
HETATM   17  O   UNL     1      -9.966   6.908  72.429  1.00  0.00    -0.165 OA 
HETATM   18  O   UNL     1     -12.004   5.674  72.713  1.00  0.00    -0.226 OA 
ENDBRANCH  11  14
ENDBRANCH  10  11
ENDBRANCH   5  10
BRANCH   8  19
HETATM   19  C   UNL     1     -12.131  13.458  66.675  1.00  0.00    -0.373 C  
BRANCH  19  20
HETATM   20  O   UNL     1     -12.290  12.628  65.540  1.00  0.00    -0.563 OA 
HETATM   21  P   UNL     1     -11.892  13.211  64.116  1.00  0.00    -0.476 P  
HETATM   22  O   UNL     1     -11.917  11.887  63.226  1.00  0.00    -0.445 OA 
HETATM   23  O   UNL     1     -12.707  14.344  63.613  1.00  0.00    -0.773 OA 
HETATM   24  O   UNL     1     -10.321  13.435  64.270  1.00  0.00    -0.420 OA 
ENDBRANCH  19  20
ENDBRANCH   8  19
TORSDOF 5
ENDMDL
MODEL       57
REMARK 921   NORMALIZED FREE ENERGY PREDICTED BY IDOCK:   -5.60 KCAL/MOL
REMARK 922        TOTAL FREE ENERGY PREDICTED BY IDOCK:   -7.94 KCAL/MOL
REMARK 923 INTER-LIGAND FREE ENERGY PREDICTED BY IDOCK:   -6.96 KCAL/MOL
REMARK 924 INTRA-LIGAND FREE ENERGY PREDICTED BY IDOCK:   -0.99 KCAL/MOL
REMARK 927      BINDING AFFINITY PREDICTED BY RF-SCORE:    0.00 PKD
ROOT
HETATM    1  O   UNL     1      -8.460  13.062  66.526  1.00  0.00    -0.420 OA 
HETATM    2  H   UNL     1      -8.935  13.458  65.804  1.00  0.00     0.000 HD 
HETATM    3  C   UNL     1      -9.105  11.890  67.014  1.00  0.00    -0.191 C  
HETATM    4  C   UNL     1      -8.346  11.258  68.168  1.00  0.00    -0.143 C  
HETATM    5  C   UNL     1      -9.453  10.375  68.792  1.00  0.00    -0.175 C  
HETATM    6  O   UNL     1      -7.897  12.301  69.059  1.00  0.00    -0.331 OA 
HETATM    7  O   UNL     1     -10.667  11.133  68.643  1.00  0.00    -0.176 OA 
HETATM    8  C   UNL     1     -10.426  12.199  67.695  1.00  0.00    -0.206 C  
HETATM    9  H   UNL     1      -7.422  11.906  69.780  1.00  0.00     0.000 HD 
ENDROOT
BRANCH   5  10
HETATM   10  O   UNL     1      -9.095  10.082  70.123  1.00  0.00    -0.181 OA 
BRANCH  10  11
HETATM   11  P   UNL     1      -9.597   8.675  70.994  1.00  0.00    -0.254 P  
HETATM   12  O   UNL     1      -8.433   8.938  72.110  1.00  0.00    -0.382 OA 
HETATM   13  O   UNL     1     -10.843   9.429  71.477  1.00  0.00    -0.348 OA 
BRANCH  11  14
HETATM   14  O   UNL     1     -10.098   7.267  71.866  1.00  0.00    -0.178 OA 
HETATM   15  P   UNL     1     -11.822   7.138  71.812  1.00  0.00    -0.336 P  
HETATM   16  O   UNL     1     -13.365   7.024  71.764  1.00  0.00    -0.353 OA 
HETATM   17  O   UNL     1     -11.592   6.284  70.430  1.00  0.00    -0.381 OA 
HETATM   18  O   UNL     1     -11.612   5.830  72.786  1.00  0.00    -0.281 OA 
ENDBRANCH  11  14
ENDBRANCH  10  11
ENDBRANCH   5  10
BRANCH   8  19
HETATM   19  C   UNL     1     -11.583  12.296  66.702  1.00  0.00    -0.375 C  
BRANCH  19  20
HETATM   20  O   UNL     1     -11.109  11.783  65.471  1.00  0.00    -0.305 OA 
HETATM   21  P   UNL     1     -11.380  12.621  64.148  1.00  0.00    -0.458 P  
HETATM   22  O   UNL     1     -10.427  11.872  63.110  1.00  0.00    -0.389 OA 
HETATM   23  O   UNL     1     -12.798  12.767  63.736  1.00  0.00    -0.695 OA 
HETATM   24  O   UNL     1     -10.541  13.951  64.413  1.00  0.00    -0.400 OA 
ENDBRANCH  19  20
ENDBRANCH   8  19
TORSDOF 5
ENDMDL
MODEL       58
REMARK 921   NORMALIZED FREE ENERGY PREDICTED BY IDOCK:   -5.60 KCAL/MOL
REMARK 922        TOTAL FREE ENERGY PREDICTED BY IDOCK:   -7.94 KCAL/MOL
REMARK 923 INTER-LIGAND FREE ENERGY PREDICTED BY IDOCK:   -7.47 KCAL/MOL
REMARK 924 INTRA-LIGAND FREE ENERGY PREDICTED BY IDOCK:   -0.47 KCAL/MOL
REMARK 927      BINDING AFFINITY PREDICTED BY RF-SCORE:    0.00 PKD
ROOT
HETATM    1  O   UNL     1     -12.326  14.025  63.013  1.00  0.00    -1.101 OA 
HETATM    2  H   UNL     1     -12.562  14.931  63.174  1.00  0.00     0.000 HD 
HETATM    3  C   UNL     1     -12.045  13.321  64.219  1.00  0.00    -0.416 C  
HETATM    4  C   UNL     1     -11.667  11.873  63.961  1.00  0.00    -0.378 C  
HETATM    5  C   UNL     1     -10.965  11.517  65.293  1.00  0.00    -0.228 C  
HETATM    6  O   UNL     1     -10.775  11.818  62.828  1.00  0.00    -0.608 OA 
HETATM    7  O   UNL     1     -10.269  12.715  65.683  1.00  0.00    -0.267 OA 
HETATM    8  C   UNL     1     -10.780  13.816  64.896  1.00  0.00    -0.399 C  
HETATM    9  H   UNL     1     -10.538  10.912  62.667  1.00  0.00     0.000 HD 
ENDROOT
BRANCH   5  10
HETATM   10  O   UNL     1     -10.140  10.395  65.079  1.00  0.00    -0.309 OA 
BRANCH  10  11
HETATM   11  P   UNL     1      -9.538   9.358  66.325  1.00  0.00    -0.271 P  
HETATM   12  O   UNL     1      -8.141  10.205  66.369  1.00  0.00    -0.117 OA 
HETATM   13  O   UNL     1     -10.486  10.030  67.329  1.00  0.00    -0.225 OA 
BRANCH  11  14
HETATM   14  O   UNL     1      -8.935   8.322  67.573  1.00  0.00    -0.133 OA 
HETATM   15  P   UNL     1     -10.128   8.160  68.815  1.00  0.00    -0.201 P  
HETATM   16  O   UNL     1     -11.196   8.016  69.927  1.00  0.00    -0.177 OA 
HETATM   17  O   UNL     1     -10.691   6.892  67.939  1.00  0.00    -0.215 OA 
HETATM   18  O   UNL     1      -8.992   7.261  69.592  1.00  0.00    -0.141 OA 
ENDBRANCH  11  14
ENDBRANCH  10  11
ENDBRANCH   5  10
BRANCH   8  19
HETATM   19  C   UNL     1     -11.034  15.030  65.786  1.00  0.00    -0.350 C  
BRANCH  19  20
HETATM   20  O   UNL     1      -9.916  15.886  65.640  1.00  0.00    -0.329 OA 
HETATM   21  P   UNL     1     -10.094  17.428  65.980  1.00  0.00    -0.129 P  
HETATM   22  O   UNL     1      -8.574  17.915  65.996  1.00  0.00    -0.494 OA 
HETATM   23  O   UNL     1     -11.011  18.197  65.102  1.00  0.00    -0.637 OA 
HETATM   24  O   UNL     1     -10.411  17.396  67.542  1.00  0.00    -0.343 OA 
ENDBRANCH  19  20
ENDBRANCH   8  19
TORSDOF 5
ENDMDL
MODEL       59
REMARK 921   NORMALIZED FREE ENERGY PREDICTED BY IDOCK:   -5.59 KCAL/MOL
REMARK 922        TOTAL FREE ENERGY PREDICTED BY IDOCK:   -7.93 KCAL/MOL
REMARK 923 INTER-LIGAND FREE ENERGY PREDICTED BY IDOCK:   -7.08 KCAL/MOL
REMARK 924 INTRA-LIGAND FREE ENERGY PREDICTED BY IDOCK:   -0.85 KCAL/MOL
REMARK 927      BINDING AFFINITY PREDICTED BY RF-SCORE:    0.00 PKD
ROOT
HETATM    1  O   UNL     1     -10.265  13.981  69.512  1.00  0.00    -0.422 OA 
HETATM    2  H   UNL     1     -10.427  14.903  69.355  1.00  0.00     0.000 HD 
HETATM    3  C   UNL     1     -10.379  13.205  68.323  1.00  0.00    -0.252 C  
HETATM    4  C   UNL     1     -10.121  11.731  68.575  1.00  0.00    -0.207 C  
HETATM    5  C   UNL     1     -10.771  11.105  67.318  1.00  0.00    -0.258 C  
HETATM    6  O   UNL     1     -10.783  11.342  69.797  1.00  0.00    -0.452 OA 
HETATM    7  O   UNL     1     -11.924  11.922  67.046  1.00  0.00    -0.615 OA 
HETATM    8  C   UNL     1     -11.805  13.147  67.806  1.00  0.00    -0.348 C  
HETATM    9  H   UNL     1     -10.621  10.420  69.955  1.00  0.00     0.000 HD 
ENDROOT
BRANCH   5  10
HETATM   10  O   UNL     1     -11.054   9.751  67.586  1.00  0.00    -0.244 OA 
BRANCH  10  11
HETATM   11  P   UNL     1      -9.871   8.493  67.675  1.00  0.00    -0.202 P  
HETATM   12  O   UNL     1     -10.162   8.317  69.273  1.00  0.00    -0.196 OA 
HETATM   13  O   UNL     1     -10.837   7.546  66.949  1.00  0.00    -0.345 OA 
BRANCH  11  14
HETATM   14  O   UNL     1      -8.687   7.233  67.764  1.00  0.00    -0.126 OA 
HETATM   15  P   UNL     1      -8.366   6.631  66.174  1.00  0.00    -0.139 P  
HETATM   16  O   UNL     1      -8.079   6.092  64.751  1.00  0.00    -0.125 OA 
HETATM   17  O   UNL     1      -7.216   7.799  66.097  1.00  0.00    -0.071 OA 
HETATM   18  O   UNL     1      -7.380   5.557  66.935  1.00  0.00    -0.077 OA 
ENDBRANCH  11  14
ENDBRANCH  10  11
ENDBRANCH   5  10
BRANCH   8  19
HETATM   19  C   UNL     1     -12.156  14.349  66.931  1.00  0.00    -0.356 C  
BRANCH  19  20
HETATM   20  O   UNL     1     -12.627  13.835  65.699  1.00  0.00    -0.491 OA 
HETATM   21  P   UNL     1     -11.978  14.380  64.355  1.00  0.00    -0.344 P  
HETATM   22  O   UNL     1     -12.548  13.333  63.294  1.00  0.00    -0.711 OA 
HETATM   23  O   UNL     1     -12.211  15.812  64.041  1.00  0.00    -0.664 OA 
HETATM   24  O   UNL     1     -10.469  13.881  64.482  1.00  0.00    -0.431 OA 
ENDBRANCH  19  20
ENDBRANCH   8  19
TORSDOF 5
ENDMDL
MODEL       60
REMARK 921   NORMALIZED FREE ENERGY PREDICTED BY IDOCK:   -5.56 KCAL/MOL
REMARK 922        TOTAL FREE ENERGY PREDICTED BY IDOCK:   -7.89 KCAL/MOL
REMARK 923 INTER-LIGAND FREE ENERGY PREDICTED BY IDOCK:   -7.09 KCAL/MOL
REMARK 924 INTRA-LIGAND FREE ENERGY PREDICTED BY IDOCK:   -0.81 KCAL/MOL
REMARK 927      BINDING AFFINITY PREDICTED BY RF-SCORE:    0.00 PKD
ROOT
HETATM    1  O   UNL     1     -12.084  14.346  65.353  1.00  0.00    -0.374 OA 
HETATM    2  H   UNL     1     -12.089  15.295  65.309  1.00  0.00     0.000 HD 
HETATM    3  C   UNL     1     -11.976  13.872  66.692  1.00  0.00    -0.442 C  
HETATM    4  C   UNL     1     -11.968  12.355  66.763  1.00  0.00    -0.212 C  
HETATM    5  C   UNL     1     -11.365  12.135  68.171  1.00  0.00    -0.293 C  
HETATM    6  O   UNL     1     -11.125  11.843  65.709  1.00  0.00    -0.306 OA 
HETATM    7  O   UNL     1     -10.393  13.184  68.331  1.00  0.00    -0.245 OA 
HETATM    8  C   UNL     1     -10.623  14.180  67.307  1.00  0.00    -0.277 C  
HETATM    9  H   UNL     1     -11.120  10.894  65.753  1.00  0.00     0.000 HD 
ENDROOT
BRANCH   5  10
HETATM   10  O   UNL     1     -10.843  10.828  68.236  1.00  0.00    -0.195 OA 
BRANCH  10  11
HETATM   11  P   UNL     1     -10.753   9.870  69.673  1.00  0.00    -0.282 P  
HETATM   12  O   UNL     1      -9.154  10.182  69.792  1.00  0.00    -0.203 OA 
HETATM   13  O   UNL     1     -11.473  10.982  70.448  1.00  0.00    -0.298 OA 
BRANCH  11  14
HETATM   14  O   UNL     1     -10.662   8.912  71.111  1.00  0.00    -0.222 OA 
HETATM   15  P   UNL     1     -12.184   8.957  71.931  1.00  0.00    -0.397 P  
HETATM   16  O   UNL     1     -13.547   8.999  72.665  1.00  0.00    -0.465 OA 
HETATM   17  O   UNL     1     -12.580   7.659  71.009  1.00  0.00    -0.255 OA 
HETATM   18  O   UNL     1     -11.431   8.051  73.078  1.00  0.00    -0.370 OA 
ENDBRANCH  11  14
ENDBRANCH  10  11
ENDBRANCH   5  10
BRANCH   8  19
HETATM   19  C   UNL     1     -10.564  15.582  67.909  1.00  0.00    -0.274 C  
BRANCH  19  20
HETATM   20  O   UNL     1     -11.035  16.474  66.916  1.00  0.00    -0.152 OA 
HETATM   21  P   UNL     1     -10.107  17.692  66.491  1.00  0.00    -0.345 P  
HETATM   22  O   UNL     1     -10.856  18.205  65.179  1.00  0.00    -0.658 OA 
HETATM   23  O   UNL     1      -9.845  18.719  67.531  1.00  0.00    -0.303 OA 
HETATM   24  O   UNL     1      -8.852  16.951  65.845  1.00  0.00    -0.516 OA 
ENDBRANCH  19  20
ENDBRANCH   8  19
TORSDOF 5
ENDMDL
MODEL       61
REMARK 921   NORMALIZED FREE ENERGY PREDICTED BY IDOCK:   -5.56 KCAL/MOL
REMARK 922        TOTAL FREE ENERGY PREDICTED BY IDOCK:   -7.88 KCAL/MOL
REMARK 923 INTER-LIGAND FREE ENERGY PREDICTED BY IDOCK:   -7.54 KCAL/MOL
REMARK 924 INTRA-LIGAND FREE ENERGY PREDICTED BY IDOCK:   -0.35 KCAL/MOL
REMARK 927      BINDING AFFINITY PREDICTED BY RF-SCORE:    0.00 PKD
ROOT
HETATM    1  O   UNL     1     -12.795  12.836  71.240  1.00  0.00    -0.359 OA 
HETATM    2  H   UNL     1     -13.090  12.007  70.882  1.00  0.00     0.000 HD 
HETATM    3  C   UNL     1     -12.638  13.830  70.231  1.00  0.00    -0.222 C  
HETATM    4  C   UNL     1     -12.166  15.155  70.803  1.00  0.00    -0.340 C  
HETATM    5  C   UNL     1     -11.622  15.842  69.528  1.00  0.00    -0.363 C  
HETATM    6  O   UNL     1     -11.136  14.901  71.782  1.00  0.00    -0.536 OA 
HETATM    7  O   UNL     1     -11.035  14.781  68.752  1.00  0.00    -0.240 OA 
HETATM    8  C   UNL     1     -11.491  13.517  69.287  1.00  0.00    -0.291 C  
HETATM    9  H   UNL     1     -10.841  15.730  72.140  1.00  0.00     0.000 HD 
ENDROOT
BRANCH   5  10
HETATM   10  O   UNL     1     -10.727  16.860  69.914  1.00  0.00    -0.257 OA 
BRANCH  10  11
HETATM   11  P   UNL     1      -9.775  17.805  68.822  1.00  0.00    -0.238 P  
HETATM   12  O   UNL     1      -8.547  16.735  68.950  1.00  0.00    -0.249 OA 
HETATM   13  O   UNL     1     -10.651  17.325  67.657  1.00  0.00    -0.358 OA 
BRANCH  11  14
HETATM   14  O   UNL     1      -8.822  18.750  67.730  1.00  0.00    -0.283 OA 
HETATM   15  P   UNL     1      -9.846  19.435  66.516  1.00  0.00    -0.452 P  
HETATM   16  O   UNL     1     -10.763  20.047  65.428  1.00  0.00    -0.388 OA 
HETATM   17  O   UNL     1     -10.029  20.693  67.554  1.00  0.00    -0.421 OA 
HETATM   18  O   UNL     1      -8.452  20.024  65.874  1.00  0.00    -0.318 OA 
ENDBRANCH  11  14
ENDBRANCH  10  11
ENDBRANCH   5  10
BRANCH   8  19
HETATM   19  C   UNL     1     -11.909  12.583  68.154  1.00  0.00    -0.317 C  
BRANCH  19  20
HETATM   20  O   UNL     1     -12.486  13.393  67.147  1.00  0.00    -0.217 OA 
HETATM   21  P   UNL     1     -11.894  13.306  65.674  1.00  0.00    -0.432 P  
HETATM   22  O   UNL     1     -13.008  14.095  64.849  1.00  0.00    -0.705 OA 
HETATM   23  O   UNL     1     -10.498  13.777  65.493  1.00  0.00    -0.295 OA 
HETATM   24  O   UNL     1     -12.231  11.802  65.264  1.00  0.00    -0.256 OA 
ENDBRANCH  19  20
ENDBRANCH   8  19
TORSDOF 5
ENDMDL
MODEL       62
REMARK 921   NORMALIZED FREE ENERGY PREDICTED BY IDOCK:   -5.55 KCAL/MOL
REMARK 922        TOTAL FREE ENERGY PREDICTED BY IDOCK:   -7.88 KCAL/MOL
REMARK 923 INTER-LIGAND FREE ENERGY PREDICTED BY IDOCK:   -7.47 KCAL/MOL
REMARK 924 INTRA-LIGAND FREE ENERGY PREDICTED BY IDOCK:   -0.41 KCAL/MOL
REMARK 927      BINDING AFFINITY PREDICTED BY RF-SCORE:    0.00 PKD
ROOT
HETATM    1  O   UNL     1     -13.825  13.641  72.747  1.00  0.00    -0.727 OA 
HETATM    2  H   UNL     1     -14.400  13.011  73.167  1.00  0.00     0.000 HD 
HETATM    3  C   UNL     1     -13.466  13.241  71.428  1.00  0.00    -0.074 C  
HETATM    4  C   UNL     1     -12.548  14.247  70.756  1.00  0.00    -0.356 C  
HETATM    5  C   UNL     1     -11.947  13.378  69.625  1.00  0.00    -0.324 C  
HETATM    6  O   UNL     1     -11.558  14.685  71.709  1.00  0.00    -0.451 OA 
HETATM    7  O   UNL     1     -11.803  12.066  70.197  1.00  0.00    -0.335 OA 
HETATM    8  C   UNL     1     -12.576  12.012  71.418  1.00  0.00    -0.225 C  
HETATM    9  H   UNL     1     -10.983  15.314  71.288  1.00  0.00     0.000 HD 
ENDROOT
BRANCH   5  10
HETATM   10  O   UNL     1     -10.745  13.973  69.194  1.00  0.00    -0.236 OA 
BRANCH  10  11
HETATM   11  P   UNL     1     -10.634  15.247  68.029  1.00  0.00    -0.275 P  
HETATM   12  O   UNL     1     -11.843  14.572  67.161  1.00  0.00    -0.392 OA 
HETATM   13  O   UNL     1     -11.298  16.205  69.028  1.00  0.00    -0.334 OA 
BRANCH  11  14
HETATM   14  O   UNL     1     -10.524  16.521  66.864  1.00  0.00    -0.303 OA 
HETATM   15  P   UNL     1     -10.350  18.036  67.680  1.00  0.00    -0.393 P  
HETATM   16  O   UNL     1     -10.195  19.392  68.412  1.00  0.00    -0.405 OA 
HETATM   17  O   UNL     1      -8.736  17.745  67.616  1.00  0.00    -0.239 OA 
HETATM   18  O   UNL     1     -10.403  18.692  66.174  1.00  0.00    -0.421 OA 
ENDBRANCH  11  14
ENDBRANCH  10  11
ENDBRANCH   5  10
BRANCH   8  19
HETATM   19  C   UNL     1     -13.377  10.713  71.481  1.00  0.00    -0.262 C  
BRANCH  19  20
HETATM   20  O   UNL     1     -12.678   9.843  72.351  1.00  0.00    -0.277 OA 
HETATM   21  P   UNL     1     -12.407   8.352  71.872  1.00  0.00    -0.391 P  
HETATM   22  O   UNL     1     -11.355   7.865  72.968  1.00  0.00    -0.408 OA 
HETATM   23  O   UNL     1     -13.601   7.488  71.692  1.00  0.00    -0.365 OA 
HETATM   24  O   UNL     1     -11.449   8.569  70.617  1.00  0.00    -0.272 OA 
ENDBRANCH  19  20
ENDBRANCH   8  19
TORSDOF 5
ENDMDL
MODEL       63
REMARK 921   NORMALIZED FREE ENERGY PREDICTED BY IDOCK:   -5.48 KCAL/MOL
REMARK 922        TOTAL FREE ENERGY PREDICTED BY IDOCK:   -7.79 KCAL/MOL
REMARK 923 INTER-LIGAND FREE ENERGY PREDICTED BY IDOCK:   -7.04 KCAL/MOL
REMARK 924 INTRA-LIGAND FREE ENERGY PREDICTED BY IDOCK:   -0.74 KCAL/MOL
REMARK 927      BINDING AFFINITY PREDICTED BY RF-SCORE:    0.00 PKD
ROOT
HETATM    1  O   UNL     1      -9.402  18.359  65.924  1.00  0.00    -0.494 OA 
HETATM    2  H   UNL     1      -8.580  18.630  66.315  1.00  0.00     0.000 HD 
HETATM    3  C   UNL     1      -9.839  17.095  66.414  1.00  0.00    -0.300 C  
HETATM    4  C   UNL     1     -11.153  16.662  65.788  1.00  0.00     0.168 C  
HETATM    5  C   UNL     1     -11.128  15.144  66.086  1.00  0.00    -0.311 C  
HETATM    6  O   UNL     1     -11.116  16.954  64.375  1.00  0.00    -1.184 OA 
HETATM    7  O   UNL     1      -9.746  14.760  65.962  1.00  0.00    -0.295 OA 
HETATM    8  C   UNL     1      -8.937  15.959  65.966  1.00  0.00    -0.302 C  
HETATM    9  H   UNL     1     -11.938  16.684  63.984  1.00  0.00     0.000 HD 
ENDROOT
BRANCH   5  10
HETATM   10  O   UNL     1     -12.005  14.498  65.193  1.00  0.00    -0.369 OA 
BRANCH  10  11
HETATM   11  P   UNL     1     -11.619  13.082  64.278  1.00  0.00    -0.444 P  
HETATM   12  O   UNL     1     -12.597  12.186  65.231  1.00  0.00    -0.494 OA 
HETATM   13  O   UNL     1     -12.489  13.601  63.125  1.00  0.00    -0.786 OA 
BRANCH  11  14
HETATM   14  O   UNL     1     -11.233  11.665  63.363  1.00  0.00    -0.396 OA 
HETATM   15  P   UNL     1      -9.591  11.212  63.667  1.00  0.00    -0.304 P  
HETATM   16  O   UNL     1      -8.122  10.806  63.940  1.00  0.00    -0.012 OA 
HETATM   17  O   UNL     1     -10.196  10.327  64.911  1.00  0.00    -0.327 OA 
HETATM   18  O   UNL     1      -9.860  10.032  62.554  1.00  0.00    -0.096 OA 
ENDBRANCH  11  14
ENDBRANCH  10  11
ENDBRANCH   5  10
BRANCH   8  19
HETATM   19  C   UNL     1      -7.729  15.780  66.882  1.00  0.00    -0.219 C  
BRANCH  19  20
HETATM   20  O   UNL     1      -7.803  16.799  67.861  1.00  0.00    -0.167 OA 
HETATM   21  P   UNL     1      -6.513  17.101  68.738  1.00  0.00    -0.206 P  
HETATM   22  O   UNL     1      -6.932  18.474  69.436  1.00  0.00    -0.227 OA 
HETATM   23  O   UNL     1      -6.066  16.021  69.652  1.00  0.00    -0.153 OA 
HETATM   24  O   UNL     1      -5.478  17.628  67.645  1.00  0.00    -0.129 OA 
ENDBRANCH  19  20
ENDBRANCH   8  19
TORSDOF 5
ENDMDL
MODEL       64
REMARK 921   NORMALIZED FREE ENERGY PREDICTED BY IDOCK:   -5.47 KCAL/MOL
REMARK 922        TOTAL FREE ENERGY PREDICTED BY IDOCK:   -7.77 KCAL/MOL
REMARK 923 INTER-LIGAND FREE ENERGY PREDICTED BY IDOCK:   -7.32 KCAL/MOL
REMARK 924 INTRA-LIGAND FREE ENERGY PREDICTED BY IDOCK:   -0.45 KCAL/MOL
REMARK 927      BINDING AFFINITY PREDICTED BY RF-SCORE:    0.00 PKD
ROOT
HETATM    1  O   UNL     1      -6.704  16.656  69.337  1.00  0.00    -0.213 OA 
HETATM    2  H   UNL     1      -6.451  17.567  69.434  1.00  0.00     0.000 HD 
HETATM    3  C   UNL     1      -7.855  16.505  68.511  1.00  0.00    -0.210 C  
HETATM    4  C   UNL     1      -8.260  15.050  68.356  1.00  0.00    -0.151 C  
HETATM    5  C   UNL     1      -9.724  15.207  67.879  1.00  0.00    -0.208 C  
HETATM    6  O   UNL     1      -8.159  14.398  69.639  1.00  0.00    -0.364 OA 
HETATM    7  O   UNL     1     -10.229  16.352  68.589  1.00  0.00    -0.233 OA 
HETATM    8  C   UNL     1      -9.108  17.069  69.158  1.00  0.00    -0.058 C  
HETATM    9  H   UNL     1      -8.412  13.487  69.542  1.00  0.00     0.000 HD 
ENDROOT
BRANCH   5  10
HETATM   10  O   UNL     1     -10.409  14.003  68.131  1.00  0.00    -0.230 OA 
BRANCH  10  11
HETATM   11  P   UNL     1     -11.237  13.067  66.936  1.00  0.00    -0.325 P  
HETATM   12  O   UNL     1     -11.548  14.422  66.077  1.00  0.00    -0.350 OA 
HETATM   13  O   UNL     1      -9.889  12.532  66.433  1.00  0.00    -0.241 OA 
BRANCH  11  14
HETATM   14  O   UNL     1     -12.066  12.132  65.738  1.00  0.00    -0.572 OA 
HETATM   15  P   UNL     1     -12.377  13.117  64.351  1.00  0.00    -0.312 P  
HETATM   16  O   UNL     1     -12.656  14.000  63.109  1.00  0.00    -0.733 OA 
HETATM   17  O   UNL     1     -10.906  12.620  63.820  1.00  0.00    -0.406 OA 
HETATM   18  O   UNL     1     -13.158  11.795  63.764  1.00  0.00    -0.561 OA 
ENDBRANCH  11  14
ENDBRANCH  10  11
ENDBRANCH   5  10
BRANCH   8  19
HETATM   19  C   UNL     1      -9.261  18.569  68.917  1.00  0.00    -0.191 C  
BRANCH  19  20
HETATM   20  O   UNL     1      -8.483  18.883  67.778  1.00  0.00    -0.276 OA 
HETATM   21  P   UNL     1      -9.223  19.431  66.483  1.00  0.00    -0.374 P  
HETATM   22  O   UNL     1      -7.985  19.940  65.615  1.00  0.00    -0.353 OA 
HETATM   23  O   UNL     1     -10.149  18.491  65.802  1.00  0.00    -0.537 OA 
HETATM   24  O   UNL     1      -9.816  20.820  66.996  1.00  0.00    -0.427 OA 
ENDBRANCH  19  20
ENDBRANCH   8  19
TORSDOF 5
ENDMDL
MODEL       65
REMARK 921   NORMALIZED FREE ENERGY PREDICTED BY IDOCK:   -5.46 KCAL/MOL
REMARK 922        TOTAL FREE ENERGY PREDICTED BY IDOCK:   -7.76 KCAL/MOL
REMARK 923 INTER-LIGAND FREE ENERGY PREDICTED BY IDOCK:   -6.55 KCAL/MOL
REMARK 924 INTRA-LIGAND FREE ENERGY PREDICTED BY IDOCK:   -1.22 KCAL/MOL
REMARK 927      BINDING AFFINITY PREDICTED BY RF-SCORE:    0.00 PKD
ROOT
HETATM    1  O   UNL     1     -11.460  15.928  69.153  1.00  0.00    -0.338 OA 
HETATM    2  H   UNL     1     -11.976  16.405  69.792  1.00  0.00     0.000 HD 
HETATM    3  C   UNL     1     -12.045  14.673  68.821  1.00  0.00    -0.202 C  
HETATM    4  C   UNL     1     -11.221  13.910  67.800  1.00  0.00    -0.293 C  
HETATM    5  C   UNL     1     -11.769  12.476  67.998  1.00  0.00    -0.355 C  
HETATM    6  O   UNL     1      -9.825  14.025  68.146  1.00  0.00    -0.221 OA 
HETATM    7  O   UNL     1     -12.029  12.366  69.410  1.00  0.00    -0.300 OA 
HETATM    8  C   UNL     1     -12.012  13.695  69.982  1.00  0.00    -0.343 C  
HETATM    9  H   UNL     1      -9.309  13.548  67.506  1.00  0.00     0.000 HD 
ENDROOT
BRANCH   5  10
HETATM   10  O   UNL     1     -10.823  11.561  67.496  1.00  0.00    -0.211 OA 
BRANCH  10  11
HETATM   11  P   UNL     1     -10.039  10.337  68.432  1.00  0.00    -0.178 P  
HETATM   12  O   UNL     1      -9.635   9.537  67.066  1.00  0.00    -0.151 OA 
HETATM   13  O   UNL     1      -8.888  11.310  68.724  1.00  0.00    -0.160 OA 
BRANCH  11  14
HETATM   14  O   UNL     1      -9.253   9.111  69.368  1.00  0.00    -0.148 OA 
HETATM   15  P   UNL     1     -10.082   8.916  70.873  1.00  0.00    -0.291 P  
HETATM   16  O   UNL     1     -10.824   8.741  72.222  1.00  0.00    -0.352 OA 
HETATM   17  O   UNL     1     -11.006   7.815  70.081  1.00  0.00    -0.256 OA 
HETATM   18  O   UNL     1      -8.896   7.832  71.223  1.00  0.00    -0.129 OA 
ENDBRANCH  11  14
ENDBRANCH  10  11
ENDBRANCH   5  10
BRANCH   8  19
HETATM   19  C   UNL     1     -13.195  13.878  70.931  1.00  0.00    -0.130 C  
BRANCH  19  20
HETATM   20  O   UNL     1     -12.655  14.085  72.223  1.00  0.00    -0.272 OA 
HETATM   21  P   UNL     1     -12.609  15.567  72.794  1.00  0.00    -0.535 P  
HETATM   22  O   UNL     1     -12.254  15.294  74.325  1.00  0.00    -0.630 OA 
HETATM   23  O   UNL     1     -11.721  16.523  72.085  1.00  0.00    -0.491 OA 
HETATM   24  O   UNL     1     -14.157  15.934  72.909  1.00  0.00    -0.561 OA 
ENDBRANCH  19  20
ENDBRANCH   8  19
TORSDOF 5
ENDMDL
MODEL       66
REMARK 921   NORMALIZED FREE ENERGY PREDICTED BY IDOCK:   -5.46 KCAL/MOL
REMARK 922        TOTAL FREE ENERGY PREDICTED BY IDOCK:   -7.75 KCAL/MOL
REMARK 923 INTER-LIGAND FREE ENERGY PREDICTED BY IDOCK:   -6.95 KCAL/MOL
REMARK 924 INTRA-LIGAND FREE ENERGY PREDICTED BY IDOCK:   -0.81 KCAL/MOL
REMARK 927      BINDING AFFINITY PREDICTED BY RF-SCORE:    0.00 PKD
ROOT
HETATM    1  O   UNL     1     -10.724   6.146  69.241  1.00  0.00    -0.247 OA 
HETATM    2  H   UNL     1     -10.816   6.105  70.186  1.00  0.00     0.000 HD 
HETATM    3  C   UNL     1      -9.831   7.179  68.834  1.00  0.00    -0.156 C  
HETATM    4  C   UNL     1      -9.684   7.245  67.325  1.00  0.00    -0.158 C  
HETATM    5  C   UNL     1      -9.113   8.673  67.153  1.00  0.00    -0.133 C  
HETATM    6  O   UNL     1     -10.985   7.089  66.721  1.00  0.00    -0.506 OA 
HETATM    7  O   UNL     1      -9.764   9.462  68.165  1.00  0.00    -0.141 OA 
HETATM    8  C   UNL     1     -10.385   8.564  69.114  1.00  0.00    -0.217 C  
HETATM    9  H   UNL     1     -10.893   7.130  65.776  1.00  0.00     0.000 HD 
ENDROOT
BRANCH   5  10
HETATM   10  O   UNL     1      -9.349   9.094  65.829  1.00  0.00    -0.216 OA 
BRANCH  10  11
HETATM   11  P   UNL     1      -9.818  10.693  65.370  1.00  0.00    -0.307 P  
HETATM   12  O   UNL     1      -8.327  11.248  65.738  1.00  0.00    -0.106 OA 
HETATM   13  O   UNL     1      -9.775  10.272  63.894  1.00  0.00    -0.307 OA 
BRANCH  11  14
HETATM   14  O   UNL     1     -10.287  12.294  64.910  1.00  0.00    -0.276 OA 
HETATM   15  P   UNL     1     -11.862  12.251  64.195  1.00  0.00    -0.452 P  
HETATM   16  O   UNL     1     -13.272  12.211  63.555  1.00  0.00    -0.744 OA 
HETATM   17  O   UNL     1     -12.427  12.451  65.723  1.00  0.00    -0.615 OA 
HETATM   18  O   UNL     1     -11.639  13.861  63.949  1.00  0.00    -0.290 OA 
ENDBRANCH  11  14
ENDBRANCH  10  11
ENDBRANCH   5  10
BRANCH   8  19
HETATM   19  C   UNL     1     -10.102   9.026  70.542  1.00  0.00    -0.215 C  
BRANCH  19  20
HETATM   20  O   UNL     1     -11.343   9.416  71.100  1.00  0.00    -0.291 OA 
HETATM   21  P   UNL     1     -12.221   8.316  71.837  1.00  0.00    -0.381 P  
HETATM   22  O   UNL     1     -13.312   9.229  72.560  1.00  0.00    -0.457 OA 
HETATM   23  O   UNL     1     -12.753   7.218  70.992  1.00  0.00    -0.322 OA 
HETATM   24  O   UNL     1     -11.297   7.922  73.076  1.00  0.00    -0.408 OA 
ENDBRANCH  19  20
ENDBRANCH   8  19
TORSDOF 5
ENDMDL
MODEL       67
REMARK 921   NORMALIZED FREE ENERGY PREDICTED BY IDOCK:   -5.45 KCAL/MOL
REMARK 922        TOTAL FREE ENERGY PREDICTED BY IDOCK:   -7.75 KCAL/MOL
REMARK 923 INTER-LIGAND FREE ENERGY PREDICTED BY IDOCK:   -7.13 KCAL/MOL
REMARK 924 INTRA-LIGAND FREE ENERGY PREDICTED BY IDOCK:   -0.62 KCAL/MOL
REMARK 927      BINDING AFFINITY PREDICTED BY RF-SCORE:    0.00 PKD
ROOT
HETATM    1  O   UNL     1     -10.830  15.191  65.957  1.00  0.00    -0.322 OA 
HETATM    2  H   UNL     1     -10.546  15.368  65.068  1.00  0.00     0.000 HD 
HETATM    3  C   UNL     1     -10.773  13.803  66.273  1.00  0.00    -0.285 C  
HETATM    4  C   UNL     1     -11.227  13.521  67.694  1.00  0.00    -0.279 C  
HETATM    5  C   UNL     1     -11.535  12.007  67.603  1.00  0.00    -0.322 C  
HETATM    6  O   UNL     1     -12.400  14.312  67.976  1.00  0.00    -0.582 OA 
HETATM    7  O   UNL     1     -12.079  11.814  66.284  1.00  0.00    -0.446 OA 
HETATM    8  C   UNL     1     -11.793  12.992  65.495  1.00  0.00    -0.395 C  
HETATM    9  H   UNL     1     -12.683  14.136  68.865  1.00  0.00     0.000 HD 
ENDROOT
BRANCH   5  10
HETATM   10  O   UNL     1     -12.402  11.662  68.658  1.00  0.00    -0.394 OA 
BRANCH  10  11
HETATM   11  P   UNL     1     -11.950  10.731  70.044  1.00  0.00    -0.364 P  
HETATM   12  O   UNL     1     -10.381  10.805  69.594  1.00  0.00    -0.201 OA 
HETATM   13  O   UNL     1     -12.205  11.953  70.937  1.00  0.00    -0.357 OA 
BRANCH  11  14
HETATM   14  O   UNL     1     -11.496   9.799  71.430  1.00  0.00    -0.371 OA 
HETATM   15  P   UNL     1     -12.513   8.405  71.545  1.00  0.00    -0.284 P  
HETATM   16  O   UNL     1     -13.424   7.156  71.648  1.00  0.00    -0.379 OA 
HETATM   17  O   UNL     1     -11.396   7.664  70.597  1.00  0.00    -0.276 OA 
HETATM   18  O   UNL     1     -11.695   8.099  72.938  1.00  0.00    -0.373 OA 
ENDBRANCH  11  14
ENDBRANCH  10  11
ENDBRANCH   5  10
BRANCH   8  19
HETATM   19  C   UNL     1     -11.285  12.592  64.111  1.00  0.00    -0.382 C  
BRANCH  19  20
HETATM   20  O   UNL     1      -9.936  12.194  64.270  1.00  0.00    -0.285 OA 
HETATM   21  P   UNL     1      -9.579  10.653  64.121  1.00  0.00    -0.343 P  
HETATM   22  O   UNL     1      -7.986  10.714  64.048  1.00  0.00    -0.051 OA 
HETATM   23  O   UNL     1     -10.145   9.740  65.145  1.00  0.00    -0.262 OA 
HETATM   24  O   UNL     1      -9.935  10.370  62.593  1.00  0.00    -0.173 OA 
ENDBRANCH  19  20
ENDBRANCH   8  19
TORSDOF 5
ENDMDL
MODEL       68
REMARK 921   NORMALIZED FREE ENERGY PREDICTED BY IDOCK:   -5.44 KCAL/MOL
REMARK 922        TOTAL FREE ENERGY PREDICTED BY IDOCK:   -7.74 KCAL/MOL
REMARK 923 INTER-LIGAND FREE ENERGY PREDICTED BY IDOCK:   -7.82 KCAL/MOL
REMARK 924 INTRA-LIGAND FREE ENERGY PREDICTED BY IDOCK:    0.08 KCAL/MOL
REMARK 927      BINDING AFFINITY PREDICTED BY RF-SCORE:    0.00 PKD
ROOT
HETATM    1  O   UNL     1     -11.103  13.305  69.650  1.00  0.00    -0.456 OA 
HETATM    2  H   UNL     1     -10.951  12.535  70.186  1.00  0.00     0.000 HD 
HETATM    3  C   UNL     1     -11.776  12.990  68.436  1.00  0.00    -0.351 C  
HETATM    4  C   UNL     1     -12.018  14.220  67.580  1.00  0.00    -0.376 C  
HETATM    5  C   UNL     1     -12.275  13.567  66.201  1.00  0.00    -0.433 C  
HETATM    6  O   UNL     1     -10.831  15.041  67.595  1.00  0.00    -0.275 OA 
HETATM    7  O   UNL     1     -11.394  12.430  66.154  1.00  0.00    -0.315 OA 
HETATM    8  C   UNL     1     -10.914  12.168  67.494  1.00  0.00    -0.257 C  
HETATM    9  H   UNL     1     -10.982  15.811  67.060  1.00  0.00     0.000 HD 
ENDROOT
BRANCH   5  10
HETATM   10  O   UNL     1     -12.053  14.532  65.199  1.00  0.00    -0.383 OA 
BRANCH  10  11
HETATM   11  P   UNL     1     -10.911  15.826  65.310  1.00  0.00    -0.315 P  
HETATM   12  O   UNL     1      -9.695  14.799  64.939  1.00  0.00    -0.076 OA 
HETATM   13  O   UNL     1     -11.430  16.386  63.978  1.00  0.00    -1.048 OA 
BRANCH  11  14
HETATM   14  O   UNL     1      -9.768  17.121  65.420  1.00  0.00    -0.425 OA 
HETATM   15  P   UNL     1     -10.404  18.367  66.437  1.00  0.00    -0.331 P  
HETATM   16  O   UNL     1     -10.974  19.482  67.348  1.00  0.00    -0.477 OA 
HETATM   17  O   UNL     1      -9.698  17.548  67.672  1.00  0.00    -0.265 OA 
HETATM   18  O   UNL     1      -9.031  19.186  66.051  1.00  0.00    -0.447 OA 
ENDBRANCH  11  14
ENDBRANCH  10  11
ENDBRANCH   5  10
BRANCH   8  19
HETATM   19  C   UNL     1     -10.983  10.673  67.798  1.00  0.00    -0.306 C  
BRANCH  19  20
HETATM   20  O   UNL     1     -10.067  10.427  68.848  1.00  0.00    -0.181 OA 
HETATM   21  P   UNL     1     -10.594   9.693  70.155  1.00  0.00    -0.313 P  
HETATM   22  O   UNL     1      -9.219   9.345  70.886  1.00  0.00    -0.244 OA 
HETATM   23  O   UNL     1     -11.592  10.429  70.970  1.00  0.00    -0.346 OA 
HETATM   24  O   UNL     1     -11.003   8.258  69.594  1.00  0.00    -0.199 OA 
ENDBRANCH  19  20
ENDBRANCH   8  19
TORSDOF 5
ENDMDL
MODEL       69
REMARK 921   NORMALIZED FREE ENERGY PREDICTED BY IDOCK:   -5.43 KCAL/MOL
REMARK 922        TOTAL FREE ENERGY PREDICTED BY IDOCK:   -7.72 KCAL/MOL
REMARK 923 INTER-LIGAND FREE ENERGY PREDICTED BY IDOCK:   -7.15 KCAL/MOL
REMARK 924 INTRA-LIGAND FREE ENERGY PREDICTED BY IDOCK:   -0.57 KCAL/MOL
REMARK 927      BINDING AFFINITY PREDICTED BY RF-SCORE:    0.00 PKD
ROOT
HETATM    1  O   UNL     1      -8.556   7.990  67.568  1.00  0.00    -0.125 OA 
HETATM    2  H   UNL     1      -8.256   7.494  68.321  1.00  0.00     0.000 HD 
HETATM    3  C   UNL     1      -9.205   9.200  67.945  1.00  0.00    -0.133 C  
HETATM    4  C   UNL     1      -9.685   9.992  66.742  1.00  0.00    -0.189 C  
HETATM    5  C   UNL     1     -10.726  10.924  67.406  1.00  0.00    -0.257 C  
HETATM    6  O   UNL     1     -10.276   9.082  65.791  1.00  0.00    -0.361 OA 
HETATM    7  O   UNL     1     -11.342  10.126  68.433  1.00  0.00    -0.219 OA 
HETATM    8  C   UNL     1     -10.525   8.952  68.652  1.00  0.00    -0.193 C  
HETATM    9  H   UNL     1     -10.576   9.578  65.038  1.00  0.00     0.000 HD 
ENDROOT
BRANCH   5  10
HETATM   10  O   UNL     1     -11.607  11.393  66.411  1.00  0.00    -0.369 OA 
BRANCH  10  11
HETATM   11  P   UNL     1     -11.414  12.874  65.540  1.00  0.00    -0.364 P  
HETATM   12  O   UNL     1     -10.735  12.064  64.293  1.00  0.00    -0.288 OA 
HETATM   13  O   UNL     1     -12.924  12.902  65.270  1.00  0.00    -0.703 OA 
BRANCH  11  14
HETATM   14  O   UNL     1     -11.220  14.355  64.666  1.00  0.00    -0.377 OA 
HETATM   15  P   UNL     1     -10.928  15.647  65.779  1.00  0.00    -0.131 P  
HETATM   16  O   UNL     1     -10.667  16.803  66.776  1.00  0.00    -0.242 OA 
HETATM   17  O   UNL     1      -9.341  15.264  65.616  1.00  0.00    -0.282 OA 
HETATM   18  O   UNL     1     -10.946  16.609  64.447  1.00  0.00    -0.924 OA 
ENDBRANCH  11  14
ENDBRANCH  10  11
ENDBRANCH   5  10
BRANCH   8  19
HETATM   19  C   UNL     1     -10.347   8.703  70.148  1.00  0.00    -0.207 C  
BRANCH  19  20
HETATM   20  O   UNL     1     -11.459   9.290  70.796  1.00  0.00    -0.268 OA 
HETATM   21  P   UNL     1     -12.327   8.388  71.775  1.00  0.00    -0.369 P  
HETATM   22  O   UNL     1     -13.221   9.494  72.499  1.00  0.00    -0.408 OA 
HETATM   23  O   UNL     1     -13.068   7.262  71.155  1.00  0.00    -0.341 OA 
HETATM   24  O   UNL     1     -11.285   8.046  72.932  1.00  0.00    -0.401 OA 
ENDBRANCH  19  20
ENDBRANCH   8  19
TORSDOF 5
ENDMDL
MODEL       70
REMARK 921   NORMALIZED FREE ENERGY PREDICTED BY IDOCK:   -5.41 KCAL/MOL
REMARK 922        TOTAL FREE ENERGY PREDICTED BY IDOCK:   -7.69 KCAL/MOL
REMARK 923 INTER-LIGAND FREE ENERGY PREDICTED BY IDOCK:   -7.24 KCAL/MOL
REMARK 924 INTRA-LIGAND FREE ENERGY PREDICTED BY IDOCK:   -0.45 KCAL/MOL
REMARK 927      BINDING AFFINITY PREDICTED BY RF-SCORE:    0.00 PKD
ROOT
HETATM    1  O   UNL     1     -11.932  12.526  70.314  1.00  0.00    -0.425 OA 
HETATM    2  H   UNL     1     -11.992  13.405  69.958  1.00  0.00     0.000 HD 
HETATM    3  C   UNL     1     -11.129  11.673  69.504  1.00  0.00    -0.164 C  
HETATM    4  C   UNL     1     -11.034  10.269  70.073  1.00  0.00    -0.311 C  
HETATM    5  C   UNL     1     -10.571   9.482  68.823  1.00  0.00    -0.214 C  
HETATM    6  O   UNL     1     -12.339   9.863  70.535  1.00  0.00    -0.424 OA 
HETATM    7  O   UNL     1     -11.245  10.108  67.716  1.00  0.00    -0.289 OA 
HETATM    8  C   UNL     1     -11.770  11.380  68.160  1.00  0.00    -0.284 C  
HETATM    9  H   UNL     1     -12.280   8.984  70.891  1.00  0.00     0.000 HD 
ENDROOT
BRANCH   5  10
HETATM   10  O   UNL     1     -10.878   8.120  69.011  1.00  0.00    -0.133 OA 
BRANCH  10  11
HETATM   11  P   UNL     1     -10.440   7.192  70.403  1.00  0.00    -0.229 P  
HETATM   12  O   UNL     1     -11.995   6.730  70.597  1.00  0.00    -0.386 OA 
HETATM   13  O   UNL     1      -9.786   6.147  69.489  1.00  0.00    -0.152 OA 
BRANCH  11  14
HETATM   14  O   UNL     1     -10.003   6.262  71.795  1.00  0.00    -0.171 OA 
HETATM   15  P   UNL     1      -9.252   7.293  72.964  1.00  0.00    -0.183 P  
HETATM   16  O   UNL     1      -8.580   8.216  74.010  1.00  0.00    -0.263 OA 
HETATM   17  O   UNL     1     -10.771   7.552  73.530  1.00  0.00    -0.378 OA 
HETATM   18  O   UNL     1      -9.045   5.914  73.836  1.00  0.00    -0.126 OA 
ENDBRANCH  11  14
ENDBRANCH  10  11
ENDBRANCH   5  10
BRANCH   8  19
HETATM   19  C   UNL     1     -11.476  12.465  67.126  1.00  0.00    -0.357 C  
BRANCH  19  20
HETATM   20  O   UNL     1     -12.157  12.096  65.941  1.00  0.00    -0.594 OA 
HETATM   21  P   UNL     1     -12.101  13.084  64.698  1.00  0.00    -0.449 P  
HETATM   22  O   UNL     1     -12.691  12.155  63.542  1.00  0.00    -0.718 OA 
HETATM   23  O   UNL     1     -12.763  14.402  64.870  1.00  0.00    -0.614 OA 
HETATM   24  O   UNL     1     -10.551  13.072  64.326  1.00  0.00    -0.381 OA 
ENDBRANCH  19  20
ENDBRANCH   8  19
TORSDOF 5
ENDMDL
MODEL       71
REMARK 921   NORMALIZED FREE ENERGY PREDICTED BY IDOCK:   -5.37 KCAL/MOL
REMARK 922        TOTAL FREE ENERGY PREDICTED BY IDOCK:   -7.65 KCAL/MOL
REMARK 923 INTER-LIGAND FREE ENERGY PREDICTED BY IDOCK:   -6.78 KCAL/MOL
REMARK 924 INTRA-LIGAND FREE ENERGY PREDICTED BY IDOCK:   -0.87 KCAL/MOL
REMARK 927      BINDING AFFINITY PREDICTED BY RF-SCORE:    0.00 PKD
ROOT
HETATM    1  O   UNL     1     -11.010  17.509  69.630  1.00  0.00    -0.194 OA 
HETATM    2  H   UNL     1     -10.618  18.267  69.212  1.00  0.00     0.000 HD 
HETATM    3  C   UNL     1     -10.549  16.286  69.063  1.00  0.00    -0.286 C  
HETATM    4  C   UNL     1     -11.175  15.075  69.731  1.00  0.00    -0.277 C  
HETATM    5  C   UNL     1     -10.917  13.989  68.659  1.00  0.00    -0.263 C  
HETATM    6  O   UNL     1     -12.580  15.330  69.938  1.00  0.00    -0.562 OA 
HETATM    7  O   UNL     1     -11.061  14.666  67.397  1.00  0.00    -0.304 OA 
HETATM    8  C   UNL     1     -11.033  16.092  67.637  1.00  0.00    -0.284 C  
HETATM    9  H   UNL     1     -12.972  14.571  70.356  1.00  0.00     0.000 HD 
ENDROOT
BRANCH   5  10
HETATM   10  O   UNL     1     -11.819  12.927  68.869  1.00  0.00    -0.302 OA 
BRANCH  10  11
HETATM   11  P   UNL     1     -11.404  11.250  68.800  1.00  0.00    -0.333 P  
HETATM   12  O   UNL     1     -12.774  10.868  69.604  1.00  0.00    -0.235 OA 
HETATM   13  O   UNL     1     -11.757  11.234  67.306  1.00  0.00    -0.566 OA 
BRANCH  11  14
HETATM   14  O   UNL     1     -10.991   9.571  68.730  1.00  0.00    -0.181 OA 
HETATM   15  P   UNL     1     -10.227   9.228  67.217  1.00  0.00    -0.270 P  
HETATM   16  O   UNL     1      -9.543   8.921  65.862  1.00  0.00    -0.253 OA 
HETATM   17  O   UNL     1      -8.824   9.612  67.978  1.00  0.00    -0.120 OA 
HETATM   18  O   UNL     1     -10.212   7.669  67.740  1.00  0.00    -0.177 OA 
ENDBRANCH  11  14
ENDBRANCH  10  11
ENDBRANCH   5  10
BRANCH   8  19
HETATM   19  C   UNL     1     -10.132  16.784  66.618  1.00  0.00    -0.300 C  
BRANCH  19  20
HETATM   20  O   UNL     1     -10.455  18.161  66.653  1.00  0.00    -0.362 OA 
HETATM   21  P   UNL     1      -9.306  19.199  67.008  1.00  0.00    -0.337 P  
HETATM   22  O   UNL     1     -10.009  20.578  66.621  1.00  0.00    -0.409 OA 
HETATM   23  O   UNL     1      -8.746  19.122  68.381  1.00  0.00    -0.325 OA 
HETATM   24  O   UNL     1      -8.302  19.024  65.783  1.00  0.00    -0.438 OA 
ENDBRANCH  19  20
ENDBRANCH   8  19
TORSDOF 5
ENDMDL
MODEL       72
REMARK 921   NORMALIZED FREE ENERGY PREDICTED BY IDOCK:   -5.35 KCAL/MOL
REMARK 922        TOTAL FREE ENERGY PREDICTED BY IDOCK:   -7.62 KCAL/MOL
REMARK 923 INTER-LIGAND FREE ENERGY PREDICTED BY IDOCK:   -7.09 KCAL/MOL
REMARK 924 INTRA-LIGAND FREE ENERGY PREDICTED BY IDOCK:   -0.53 KCAL/MOL
REMARK 927      BINDING AFFINITY PREDICTED BY RF-SCORE:    0.00 PKD
ROOT
HETATM    1  O   UNL     1     -12.245  13.101  70.117  1.00  0.00    -0.329 OA 
HETATM    2  H   UNL     1     -12.323  14.048  70.112  1.00  0.00     0.000 HD 
HETATM    3  C   UNL     1     -11.400  12.626  69.074  1.00  0.00    -0.292 C  
HETATM    4  C   UNL     1     -11.277  11.113  69.082  1.00  0.00    -0.264 C  
HETATM    5  C   UNL     1     -10.764  10.857  67.645  1.00  0.00    -0.242 C  
HETATM    6  O   UNL     1     -12.579  10.539  69.320  1.00  0.00    -0.726 OA 
HETATM    7  O   UNL     1     -11.431  11.837  66.829  1.00  0.00    -0.401 OA 
HETATM    8  C   UNL     1     -12.003  12.842  67.698  1.00  0.00    -0.289 C  
HETATM    9  H   UNL     1     -12.502   9.593  69.325  1.00  0.00     0.000 HD 
ENDROOT
BRANCH   5  10
HETATM   10  O   UNL     1     -11.035   9.517  67.304  1.00  0.00    -0.203 OA 
BRANCH  10  11
HETATM   11  P   UNL     1     -10.185   8.147  67.928  1.00  0.00    -0.211 P  
HETATM   12  O   UNL     1     -10.640   7.262  66.633  1.00  0.00    -0.249 OA 
HETATM   13  O   UNL     1      -8.854   8.814  67.554  1.00  0.00    -0.133 OA 
BRANCH  11  14
HETATM   14  O   UNL     1      -9.334   6.776  68.552  1.00  0.00    -0.128 OA 
HETATM   15  P   UNL     1      -9.662   6.613  70.243  1.00  0.00    -0.170 P  
HETATM   16  O   UNL     1      -9.956   6.469  71.756  1.00  0.00    -0.177 OA 
HETATM   17  O   UNL     1     -10.942   5.696  69.781  1.00  0.00    -0.345 OA 
HETATM   18  O   UNL     1      -8.600   5.359  70.183  1.00  0.00    -0.115 OA 
ENDBRANCH  11  14
ENDBRANCH  10  11
ENDBRANCH   5  10
BRANCH   8  19
HETATM   19  C   UNL     1     -11.718  14.239  67.151  1.00  0.00    -0.404 C  
BRANCH  19  20
HETATM   20  O   UNL     1     -12.455  14.366  65.949  1.00  0.00    -0.388 OA 
HETATM   21  P   UNL     1     -11.691  14.847  64.641  1.00  0.00    -0.276 P  
HETATM   22  O   UNL     1     -12.782  14.536  63.518  1.00  0.00    -0.707 OA 
HETATM   23  O   UNL     1     -11.156  16.231  64.658  1.00  0.00    -0.634 OA 
HETATM   24  O   UNL     1     -10.662  13.654  64.392  1.00  0.00    -0.410 OA 
ENDBRANCH  19  20
ENDBRANCH   8  19
TORSDOF 5
ENDMDL
MODEL       73
REMARK 921   NORMALIZED FREE ENERGY PREDICTED BY IDOCK:   -5.35 KCAL/MOL
REMARK 922        TOTAL FREE ENERGY PREDICTED BY IDOCK:   -7.62 KCAL/MOL
REMARK 923 INTER-LIGAND FREE ENERGY PREDICTED BY IDOCK:   -7.10 KCAL/MOL
REMARK 924 INTRA-LIGAND FREE ENERGY PREDICTED BY IDOCK:   -0.52 KCAL/MOL
REMARK 927      BINDING AFFINITY PREDICTED BY RF-SCORE:    0.00 PKD
ROOT
HETATM    1  O   UNL     1     -12.281  11.076  68.106  1.00  0.00    -0.765 OA 
HETATM    2  H   UNL     1     -11.929  10.203  68.234  1.00  0.00     0.000 HD 
HETATM    3  C   UNL     1     -11.439  11.877  67.283  1.00  0.00    -0.317 C  
HETATM    4  C   UNL     1     -12.000  13.273  67.078  1.00  0.00    -0.365 C  
HETATM    5  C   UNL     1     -10.731  14.029  66.616  1.00  0.00    -0.281 C  
HETATM    6  O   UNL     1     -12.511  13.760  68.336  1.00  0.00    -0.375 OA 
HETATM    7  O   UNL     1      -9.652  13.447  67.370  1.00  0.00    -0.212 OA 
HETATM    8  C   UNL     1     -10.119  12.210  67.956  1.00  0.00    -0.204 C  
HETATM    9  H   UNL     1     -12.863  14.633  68.208  1.00  0.00     0.000 HD 
ENDROOT
BRANCH   5  10
HETATM   10  O   UNL     1     -10.928  15.408  66.829  1.00  0.00    -0.314 OA 
BRANCH  10  11
HETATM   11  P   UNL     1      -9.829  16.650  66.341  1.00  0.00    -0.319 P  
HETATM   12  O   UNL     1     -10.482  16.654  64.843  1.00  0.00    -0.657 OA 
HETATM   13  O   UNL     1     -10.628  17.669  67.167  1.00  0.00    -0.339 OA 
BRANCH  11  14
HETATM   14  O   UNL     1      -8.730  17.894  65.852  1.00  0.00    -0.508 OA 
HETATM   15  P   UNL     1      -9.157  19.379  66.629  1.00  0.00    -0.376 P  
HETATM   16  O   UNL     1      -9.540  20.709  67.325  1.00  0.00    -0.451 OA 
HETATM   17  O   UNL     1      -8.167  18.886  67.841  1.00  0.00    -0.267 OA 
HETATM   18  O   UNL     1      -7.932  20.029  65.745  1.00  0.00    -0.326 OA 
ENDBRANCH  11  14
ENDBRANCH  10  11
ENDBRANCH   5  10
BRANCH   8  19
HETATM   19  C   UNL     1      -9.078  11.110  67.771  1.00  0.00    -0.149 C  
BRANCH  19  20
HETATM   20  O   UNL     1      -9.448  10.047  68.630  1.00  0.00    -0.147 OA 
HETATM   21  P   UNL     1      -9.630   8.598  68.005  1.00  0.00    -0.158 P  
HETATM   22  O   UNL     1      -9.713   7.704  69.324  1.00  0.00    -0.162 OA 
HETATM   23  O   UNL     1     -10.743   8.429  67.038  1.00  0.00    -0.289 OA 
HETATM   24  O   UNL     1      -8.154   8.256  67.508  1.00  0.00    -0.118 OA 
ENDBRANCH  19  20
ENDBRANCH   8  19
TORSDOF 5
ENDMDL
MODEL       74
REMARK 921   NORMALIZED FREE ENERGY PREDICTED BY IDOCK:   -5.33 KCAL/MOL
REMARK 922        TOTAL FREE ENERGY PREDICTED BY IDOCK:   -7.59 KCAL/MOL
REMARK 923 INTER-LIGAND FREE ENERGY PREDICTED BY IDOCK:   -6.94 KCAL/MOL
REMARK 924 INTRA-LIGAND FREE ENERGY PREDICTED BY IDOCK:   -0.65 KCAL/MOL
REMARK 927      BINDING AFFINITY PREDICTED BY RF-SCORE:    0.00 PKD
ROOT
HETATM    1  O   UNL     1     -11.842  13.217  62.765  1.00  0.00    -0.696 OA 
HETATM    2  H   UNL     1     -11.339  13.061  61.974  1.00  0.00     0.000 HD 
HETATM    3  C   UNL     1     -11.117  12.867  63.939  1.00  0.00    -0.411 C  
HETATM    4  C   UNL     1     -11.921  13.116  65.203  1.00  0.00    -0.394 C  
HETATM    5  C   UNL     1     -11.151  12.233  66.214  1.00  0.00    -0.302 C  
HETATM    6  O   UNL     1     -13.276  12.668  64.990  1.00  0.00    -0.753 OA 
HETATM    7  O   UNL     1     -10.735  11.078  65.462  1.00  0.00    -0.232 OA 
HETATM    8  C   UNL     1     -10.887  11.371  64.053  1.00  0.00    -0.383 C  
HETATM    9  H   UNL     1     -13.779  12.824  65.781  1.00  0.00     0.000 HD 
ENDROOT
BRANCH   5  10
HETATM   10  O   UNL     1     -11.999  11.956  67.304  1.00  0.00    -0.605 OA 
BRANCH  10  11
HETATM   11  P   UNL     1     -11.870  12.687  68.866  1.00  0.00    -0.196 P  
HETATM   12  O   UNL     1     -11.269  11.296  69.478  1.00  0.00    -0.252 OA 
HETATM   13  O   UNL     1     -10.667  13.503  68.375  1.00  0.00    -0.244 OA 
BRANCH  11  14
HETATM   14  O   UNL     1     -11.741  13.417  70.430  1.00  0.00    -0.240 OA 
HETATM   15  P   UNL     1     -11.377  15.099  70.252  1.00  0.00    -0.305 P  
HETATM   16  O   UNL     1     -11.051  16.605  70.092  1.00  0.00    -0.310 OA 
HETATM   17  O   UNL     1     -13.003  15.320  70.208  1.00  0.00    -0.303 OA 
HETATM   18  O   UNL     1     -11.310  15.112  71.895  1.00  0.00    -0.413 OA 
ENDBRANCH  11  14
ENDBRANCH  10  11
ENDBRANCH   5  10
BRANCH   8  19
HETATM   19  C   UNL     1      -9.653  10.912  63.281  1.00  0.00    -0.347 C  
BRANCH  19  20
HETATM   20  O   UNL     1      -9.423   9.562  63.641  1.00  0.00    -0.038 OA 
HETATM   21  P   UNL     1      -7.924   9.080  63.852  1.00  0.00    -0.162 P  
HETATM   22  O   UNL     1      -8.154   7.658  64.539  1.00  0.00    -0.141 OA 
HETATM   23  O   UNL     1      -7.052   9.085  62.651  1.00  0.00    -0.097 OA 
HETATM   24  O   UNL     1      -7.465   9.946  65.110  1.00  0.00    -0.120 OA 
ENDBRANCH  19  20
ENDBRANCH   8  19
TORSDOF 5
ENDMDL
MODEL       75
REMARK 921   NORMALIZED FREE ENERGY PREDICTED BY IDOCK:   -5.33 KCAL/MOL
REMARK 922        TOTAL FREE ENERGY PREDICTED BY IDOCK:   -7.59 KCAL/MOL
REMARK 923 INTER-LIGAND FREE ENERGY PREDICTED BY IDOCK:   -6.29 KCAL/MOL
REMARK 924 INTRA-LIGAND FREE ENERGY PREDICTED BY IDOCK:   -1.29 KCAL/MOL
REMARK 927      BINDING AFFINITY PREDICTED BY RF-SCORE:    0.00 PKD
ROOT
HETATM    1  O   UNL     1     -12.115  12.190  68.621  1.00  0.00    -0.282 OA 
HETATM    2  H   UNL     1     -11.745  11.385  68.965  1.00  0.00     0.000 HD 
HETATM    3  C   UNL     1     -11.384  12.681  67.502  1.00  0.00    -0.308 C  
HETATM    4  C   UNL     1     -11.975  13.967  66.954  1.00  0.00    -0.447 C  
HETATM    5  C   UNL     1     -10.777  14.512  66.140  1.00  0.00    -0.310 C  
HETATM    6  O   UNL     1     -12.335  14.825  68.057  1.00  0.00    -0.592 OA 
HETATM    7  O   UNL     1      -9.611  14.151  66.903  1.00  0.00    -0.250 OA 
HETATM    8  C   UNL     1      -9.996  13.161  67.885  1.00  0.00    -0.233 C  
HETATM    9  H   UNL     1     -12.705  15.629  67.714  1.00  0.00     0.000 HD 
ENDROOT
BRANCH   5  10
HETATM   10  O   UNL     1     -10.956  15.896  65.949  1.00  0.00    -0.264 OA 
BRANCH  10  11
HETATM   11  P   UNL     1      -9.903  17.123  66.562  1.00  0.00    -0.312 P  
HETATM   12  O   UNL     1     -10.494  18.189  65.474  1.00  0.00    -0.626 OA 
HETATM   13  O   UNL     1     -10.785  17.242  67.813  1.00  0.00    -0.368 OA 
BRANCH  11  14
HETATM   14  O   UNL     1      -8.849  18.351  67.176  1.00  0.00    -0.256 OA 
HETATM   15  P   UNL     1      -7.796  17.666  68.365  1.00  0.00    -0.275 P  
HETATM   16  O   UNL     1      -6.854  17.053  69.430  1.00  0.00    -0.235 OA 
HETATM   17  O   UNL     1      -6.793  17.337  67.109  1.00  0.00    -0.154 OA 
HETATM   18  O   UNL     1      -7.239  19.202  68.550  1.00  0.00    -0.279 OA 
ENDBRANCH  11  14
ENDBRANCH  10  11
ENDBRANCH   5  10
BRANCH   8  19
HETATM   19  C   UNL     1      -8.976  12.025  67.920  1.00  0.00    -0.182 C  
BRANCH  19  20
HETATM   20  O   UNL     1      -9.596  10.901  67.324  1.00  0.00    -0.163 OA 
HETATM   21  P   UNL     1      -9.571   9.519  68.107  1.00  0.00    -0.142 P  
HETATM   22  O   UNL     1     -10.622   8.668  67.261  1.00  0.00    -0.291 OA 
HETATM   23  O   UNL     1      -8.240   8.893  68.303  1.00  0.00    -0.118 OA 
HETATM   24  O   UNL     1     -10.436   9.851  69.405  1.00  0.00    -0.203 OA 
ENDBRANCH  19  20
ENDBRANCH   8  19
TORSDOF 5
ENDMDL
MODEL       76
REMARK 921   NORMALIZED FREE ENERGY PREDICTED BY IDOCK:   -5.31 KCAL/MOL
REMARK 922        TOTAL FREE ENERGY PREDICTED BY IDOCK:   -7.56 KCAL/MOL
REMARK 923 INTER-LIGAND FREE ENERGY PREDICTED BY IDOCK:   -7.05 KCAL/MOL
REMARK 924 INTRA-LIGAND FREE ENERGY PREDICTED BY IDOCK:   -0.51 KCAL/MOL
REMARK 927      BINDING AFFINITY PREDICTED BY RF-SCORE:    0.00 PKD
ROOT
HETATM    1  O   UNL     1      -6.929  12.130  66.583  1.00  0.00    -0.374 OA 
HETATM    2  H   UNL     1      -6.941  11.437  65.933  1.00  0.00     0.000 HD 
HETATM    3  C   UNL     1      -8.167  12.233  67.280  1.00  0.00    -0.182 C  
HETATM    4  C   UNL     1      -8.149  13.341  68.318  1.00  0.00    -0.156 C  
HETATM    5  C   UNL     1      -9.665  13.553  68.541  1.00  0.00    -0.168 C  
HETATM    6  O   UNL     1      -7.501  14.500  67.753  1.00  0.00    -0.134 OA 
HETATM    7  O   UNL     1     -10.265  13.356  67.247  1.00  0.00    -0.238 OA 
HETATM    8  C   UNL     1      -9.295  12.717  66.386  1.00  0.00    -0.198 C  
HETATM    9  H   UNL     1      -7.489  15.193  68.403  1.00  0.00     0.000 HD 
ENDROOT
BRANCH   5  10
HETATM   10  O   UNL     1      -9.862  14.832  69.097  1.00  0.00    -0.215 OA 
BRANCH  10  11
HETATM   11  P   UNL     1     -11.298  15.344  69.914  1.00  0.00    -0.370 P  
HETATM   12  O   UNL     1     -12.006  15.678  68.480  1.00  0.00    -0.313 OA 
HETATM   13  O   UNL     1     -11.628  13.880  70.232  1.00  0.00    -0.242 OA 
BRANCH  11  14
HETATM   14  O   UNL     1     -12.735  15.857  70.730  1.00  0.00    -0.409 OA 
HETATM   15  P   UNL     1     -12.849  15.053  72.257  1.00  0.00    -0.402 P  
HETATM   16  O   UNL     1     -12.950  14.332  73.624  1.00  0.00    -0.456 OA 
HETATM   17  O   UNL     1     -11.981  16.315  72.848  1.00  0.00    -0.509 OA 
HETATM   18  O   UNL     1     -14.288  15.833  72.401  1.00  0.00    -0.514 OA 
ENDBRANCH  11  14
ENDBRANCH  10  11
ENDBRANCH   5  10
BRANCH   8  19
HETATM   19  C   UNL     1      -9.948  11.578  65.606  1.00  0.00    -0.236 C  
BRANCH  19  20
HETATM   20  O   UNL     1     -11.340  11.834  65.597  1.00  0.00    -0.307 OA 
HETATM   21  P   UNL     1     -11.969  12.549  64.325  1.00  0.00    -0.469 P  
HETATM   22  O   UNL     1     -13.528  12.340  64.596  1.00  0.00    -0.620 OA 
HETATM   23  O   UNL     1     -11.539  13.947  64.072  1.00  0.00    -0.336 OA 
HETATM   24  O   UNL     1     -11.721  11.474  63.175  1.00  0.00    -0.199 OA 
ENDBRANCH  19  20
ENDBRANCH   8  19
TORSDOF 5
ENDMDL
MODEL       77
REMARK 921   NORMALIZED FREE ENERGY PREDICTED BY IDOCK:   -5.30 KCAL/MOL
REMARK 922        TOTAL FREE ENERGY PREDICTED BY IDOCK:   -7.56 KCAL/MOL
REMARK 923 INTER-LIGAND FREE ENERGY PREDICTED BY IDOCK:   -6.86 KCAL/MOL
REMARK 924 INTRA-LIGAND FREE ENERGY PREDICTED BY IDOCK:   -0.70 KCAL/MOL
REMARK 927      BINDING AFFINITY PREDICTED BY RF-SCORE:    0.00 PKD
ROOT
HETATM    1  O   UNL     1     -12.429  14.188  65.679  1.00  0.00    -0.457 OA 
HETATM    2  H   UNL     1     -12.621  15.100  65.493  1.00  0.00     0.000 HD 
HETATM    3  C   UNL     1     -12.045  13.985  67.035  1.00  0.00    -0.420 C  
HETATM    4  C   UNL     1     -11.738  12.528  67.331  1.00  0.00    -0.366 C  
HETATM    5  C   UNL     1     -10.911  12.666  68.632  1.00  0.00    -0.256 C  
HETATM    6  O   UNL     1     -10.970  11.981  66.239  1.00  0.00    -0.274 OA 
HETATM    7  O   UNL     1     -10.145  13.872  68.464  1.00  0.00    -0.232 OA 
HETATM    8  C   UNL     1     -10.702  14.617  67.356  1.00  0.00    -0.280 C  
HETATM    9  H   UNL     1     -10.778  11.069  66.424  1.00  0.00     0.000 HD 
ENDROOT
BRANCH   5  10
HETATM   10  O   UNL     1     -10.146  11.496  68.804  1.00  0.00    -0.213 OA 
BRANCH  10  11
HETATM   11  P   UNL     1     -10.742  10.014  69.466  1.00  0.00    -0.273 P  
HETATM   12  O   UNL     1     -10.607   9.294  68.005  1.00  0.00    -0.228 OA 
HETATM   13  O   UNL     1      -9.399   9.804  70.181  1.00  0.00    -0.234 OA 
BRANCH  11  14
HETATM   14  O   UNL     1     -11.337   8.530  70.129  1.00  0.00    -0.198 OA 
HETATM   15  P   UNL     1     -10.523   8.195  71.618  1.00  0.00    -0.265 P  
HETATM   16  O   UNL     1      -9.794   7.896  72.951  1.00  0.00    -0.232 OA 
HETATM   17  O   UNL     1     -11.718   9.071  72.325  1.00  0.00    -0.334 OA 
HETATM   18  O   UNL     1     -11.395   6.801  71.616  1.00  0.00    -0.244 OA 
ENDBRANCH  11  14
ENDBRANCH  10  11
ENDBRANCH   5  10
BRANCH   8  19
HETATM   19  C   UNL     1     -10.827  16.095  67.720  1.00  0.00    -0.318 C  
BRANCH  19  20
HETATM   20  O   UNL     1      -9.826  16.782  66.992  1.00  0.00    -0.247 OA 
HETATM   21  P   UNL     1     -10.274  17.937  65.997  1.00  0.00    -0.106 P  
HETATM   22  O   UNL     1      -8.869  18.618  65.667  1.00  0.00    -0.279 OA 
HETATM   23  O   UNL     1     -11.083  17.523  64.823  1.00  0.00    -0.959 OA 
HETATM   24  O   UNL     1     -10.901  19.015  66.990  1.00  0.00    -0.445 OA 
ENDBRANCH  19  20
ENDBRANCH   8  19
TORSDOF 5
ENDMDL
MODEL       78
REMARK 921   NORMALIZED FREE ENERGY PREDICTED BY IDOCK:   -5.30 KCAL/MOL
REMARK 922        TOTAL FREE ENERGY PREDICTED BY IDOCK:   -7.55 KCAL/MOL
REMARK 923 INTER-LIGAND FREE ENERGY PREDICTED BY IDOCK:   -6.77 KCAL/MOL
REMARK 924 INTRA-LIGAND FREE ENERGY PREDICTED BY IDOCK:   -0.78 KCAL/MOL
REMARK 927      BINDING AFFINITY PREDICTED BY RF-SCORE:    0.00 PKD
ROOT
HETATM    1  O   UNL     1      -8.908  13.240  66.275  1.00  0.00    -0.443 OA 
HETATM    2  H   UNL     1      -9.465  13.542  65.567  1.00  0.00     0.000 HD 
HETATM    3  C   UNL     1      -9.269  11.938  66.723  1.00  0.00    -0.194 C  
HETATM    4  C   UNL     1      -8.379  11.455  67.854  1.00  0.00    -0.137 C  
HETATM    5  C   UNL     1      -9.254  10.325  68.448  1.00  0.00    -0.136 C  
HETATM    6  O   UNL     1      -8.169  12.541  68.780  1.00  0.00    -0.322 OA 
HETATM    7  O   UNL     1     -10.608  10.795  68.325  1.00  0.00    -0.178 OA 
HETATM    8  C   UNL     1     -10.621  11.918  67.414  1.00  0.00    -0.225 C  
HETATM    9  H   UNL     1      -7.612  12.239  69.488  1.00  0.00     0.000 HD 
ENDROOT
BRANCH   5  10
HETATM   10  O   UNL     1      -8.829  10.075  69.768  1.00  0.00    -0.203 OA 
BRANCH  10  11
HETATM   11  P   UNL     1      -9.383   8.767  70.754  1.00  0.00    -0.250 P  
HETATM   12  O   UNL     1      -8.493   7.715  69.875  1.00  0.00    -0.133 OA 
HETATM   13  O   UNL     1      -8.478   9.255  71.894  1.00  0.00    -0.261 OA 
BRANCH  11  14
HETATM   14  O   UNL     1      -9.936   7.457  71.740  1.00  0.00    -0.171 OA 
HETATM   15  P   UNL     1     -11.662   7.375  71.675  1.00  0.00    -0.310 P  
HETATM   16  O   UNL     1     -13.208   7.303  71.617  1.00  0.00    -0.367 OA 
HETATM   17  O   UNL     1     -11.444   6.396  70.376  1.00  0.00    -0.361 OA 
HETATM   18  O   UNL     1     -11.503   6.152  72.762  1.00  0.00    -0.254 OA 
ENDBRANCH  11  14
ENDBRANCH  10  11
ENDBRANCH   5  10
BRANCH   8  19
HETATM   19  C   UNL     1     -11.777  11.785  66.426  1.00  0.00    -0.051 C  
BRANCH  19  20
HETATM   20  O   UNL     1     -11.879  13.023  65.746  1.00  0.00    -0.361 OA 
HETATM   21  P   UNL     1     -11.853  13.018  64.157  1.00  0.00    -0.482 P  
HETATM   22  O   UNL     1     -12.310  14.514  63.840  1.00  0.00    -0.730 OA 
HETATM   23  O   UNL     1     -10.589  12.578  63.517  1.00  0.00    -0.432 OA 
HETATM   24  O   UNL     1     -13.186  12.219  63.800  1.00  0.00    -0.771 OA 
ENDBRANCH  19  20
ENDBRANCH   8  19
TORSDOF 5
ENDMDL
MODEL       79
REMARK 921   NORMALIZED FREE ENERGY PREDICTED BY IDOCK:   -5.28 KCAL/MOL
REMARK 922        TOTAL FREE ENERGY PREDICTED BY IDOCK:   -7.53 KCAL/MOL
REMARK 923 INTER-LIGAND FREE ENERGY PREDICTED BY IDOCK:   -6.71 KCAL/MOL
REMARK 924 INTRA-LIGAND FREE ENERGY PREDICTED BY IDOCK:   -0.82 KCAL/MOL
REMARK 927      BINDING AFFINITY PREDICTED BY RF-SCORE:    0.00 PKD
ROOT
HETATM    1  O   UNL     1     -10.776  15.823  65.660  1.00  0.00    -0.334 OA 
HETATM    2  H   UNL     1     -10.715  16.769  65.595  1.00  0.00     0.000 HD 
HETATM    3  C   UNL     1     -11.184  15.400  66.958  1.00  0.00    -0.229 C  
HETATM    4  C   UNL     1     -11.280  13.889  67.062  1.00  0.00    -0.313 C  
HETATM    5  C   UNL     1     -11.238  13.702  68.598  1.00  0.00    -0.277 C  
HETATM    6  O   UNL     1     -10.142  13.301  66.398  1.00  0.00    -0.276 OA 
HETATM    7  O   UNL     1     -10.337  14.717  69.075  1.00  0.00    -0.234 OA 
HETATM    8  C   UNL     1     -10.129  15.679  68.014  1.00  0.00    -0.224 C  
HETATM    9  H   UNL     1     -10.202  12.355  66.463  1.00  0.00     0.000 HD 
ENDROOT
BRANCH   5  10
HETATM   10  O   UNL     1     -10.844  12.379  68.878  1.00  0.00    -0.230 OA 
BRANCH  10  11
HETATM   11  P   UNL     1     -11.572  11.362  70.073  1.00  0.00    -0.214 P  
HETATM   12  O   UNL     1     -12.238  12.669  70.793  1.00  0.00    -0.366 OA 
HETATM   13  O   UNL     1     -12.587  10.877  69.028  1.00  0.00    -0.350 OA 
BRANCH  11  14
HETATM   14  O   UNL     1     -12.301  10.346  71.268  1.00  0.00    -0.345 OA 
HETATM   15  P   UNL     1     -11.768   8.716  71.042  1.00  0.00    -0.219 P  
HETATM   16  O   UNL     1     -11.291   7.257  70.839  1.00  0.00    -0.264 OA 
HETATM   17  O   UNL     1     -10.527   9.114  72.039  1.00  0.00    -0.322 OA 
HETATM   18  O   UNL     1     -12.792   8.360  72.278  1.00  0.00    -0.342 OA 
ENDBRANCH  11  14
ENDBRANCH  10  11
ENDBRANCH   5  10
BRANCH   8  19
HETATM   19  C   UNL     1     -10.219  17.101  68.564  1.00  0.00    -0.346 C  
BRANCH  19  20
HETATM   20  O   UNL     1      -9.277  17.877  67.846  1.00  0.00    -0.254 OA 
HETATM   21  P   UNL     1      -9.799  19.142  67.038  1.00  0.00    -0.392 P  
HETATM   22  O   UNL     1      -8.422  19.866  66.683  1.00  0.00    -0.309 OA 
HETATM   23  O   UNL     1     -10.701  18.869  65.892  1.00  0.00    -0.448 OA 
HETATM   24  O   UNL     1     -10.339  20.088  68.202  1.00  0.00    -0.421 OA 
ENDBRANCH  19  20
ENDBRANCH   8  19
TORSDOF 5
ENDMDL
MODEL       80
REMARK 921   NORMALIZED FREE ENERGY PREDICTED BY IDOCK:   -5.27 KCAL/MOL
REMARK 922        TOTAL FREE ENERGY PREDICTED BY IDOCK:   -7.51 KCAL/MOL
REMARK 923 INTER-LIGAND FREE ENERGY PREDICTED BY IDOCK:   -6.47 KCAL/MOL
REMARK 924 INTRA-LIGAND FREE ENERGY PREDICTED BY IDOCK:   -1.04 KCAL/MOL
REMARK 927      BINDING AFFINITY PREDICTED BY RF-SCORE:    0.00 PKD
ROOT
HETATM    1  O   UNL     1     -10.035  14.126  66.492  1.00  0.00    -0.266 OA 
HETATM    2  H   UNL     1     -10.391  14.318  65.632  1.00  0.00     0.000 HD 
HETATM    3  C   UNL     1      -9.211  12.964  66.483  1.00  0.00    -0.182 C  
HETATM    4  C   UNL     1      -8.642  12.656  67.857  1.00  0.00    -0.181 C  
HETATM    5  C   UNL     1      -8.243  11.172  67.678  1.00  0.00    -0.118 C  
HETATM    6  O   UNL     1      -9.679  12.840  68.843  1.00  0.00    -0.411 OA 
HETATM    7  O   UNL     1      -9.260  10.610  66.829  1.00  0.00    -0.154 OA 
HETATM    8  C   UNL     1     -10.003  11.695  66.226  1.00  0.00    -0.217 C  
HETATM    9  H   UNL     1      -9.323  12.648  69.703  1.00  0.00     0.000 HD 
ENDROOT
BRANCH   5  10
HETATM   10  O   UNL     1      -8.140  10.579  68.952  1.00  0.00    -0.119 OA 
BRANCH  10  11
HETATM   11  P   UNL     1      -9.121   9.272  69.516  1.00  0.00    -0.184 P  
HETATM   12  O   UNL     1      -8.087   9.017  70.755  1.00  0.00    -0.134 OA 
HETATM   13  O   UNL     1     -10.162  10.282  70.018  1.00  0.00    -0.246 OA 
BRANCH  11  14
HETATM   14  O   UNL     1     -10.103   7.964  70.082  1.00  0.00    -0.190 OA 
HETATM   15  P   UNL     1     -10.647   7.027  68.734  1.00  0.00    -0.169 P  
HETATM   16  O   UNL     1     -11.135   6.189  67.526  1.00  0.00    -0.330 OA 
HETATM   17  O   UNL     1      -9.265   6.165  68.932  1.00  0.00    -0.126 OA 
HETATM   18  O   UNL     1     -11.479   6.159  69.855  1.00  0.00    -0.421 OA 
ENDBRANCH  11  14
ENDBRANCH  10  11
ENDBRANCH   5  10
BRANCH   8  19
HETATM   19  C   UNL     1     -10.211  11.431  64.736  1.00  0.00    -0.286 C  
BRANCH  19  20
HETATM   20  O   UNL     1     -10.733  12.623  64.179  1.00  0.00    -0.351 OA 
HETATM   21  P   UNL     1     -12.311  12.787  64.088  1.00  0.00    -0.385 P  
HETATM   22  O   UNL     1     -12.437  14.336  63.725  1.00  0.00    -0.810 OA 
HETATM   23  O   UNL     1     -13.023  11.850  63.183  1.00  0.00    -0.640 OA 
HETATM   24  O   UNL     1     -12.738  12.806  65.624  1.00  0.00    -0.549 OA 
ENDBRANCH  19  20
ENDBRANCH   8  19
TORSDOF 5
ENDMDL
MODEL       81
REMARK 921   NORMALIZED FREE ENERGY PREDICTED BY IDOCK:   -5.26 KCAL/MOL
REMARK 922        TOTAL FREE ENERGY PREDICTED BY IDOCK:   -7.50 KCAL/MOL
REMARK 923 INTER-LIGAND FREE ENERGY PREDICTED BY IDOCK:   -6.55 KCAL/MOL
REMARK 924 INTRA-LIGAND FREE ENERGY PREDICTED BY IDOCK:   -0.94 KCAL/MOL
REMARK 927      BINDING AFFINITY PREDICTED BY RF-SCORE:    0.00 PKD
ROOT
HETATM    1  O   UNL     1     -10.876  18.418  67.115  1.00  0.00    -0.373 OA 
HETATM    2  H   UNL     1     -11.701  18.446  66.643  1.00  0.00     0.000 HD 
HETATM    3  C   UNL     1      -9.862  17.739  66.381  1.00  0.00    -0.324 C  
HETATM    4  C   UNL     1      -8.544  17.694  67.135  1.00  0.00    -0.227 C  
HETATM    5  C   UNL     1      -7.827  16.541  66.394  1.00  0.00    -0.289 C  
HETATM    6  O   UNL     1      -8.809  17.388  68.520  1.00  0.00    -0.266 OA 
HETATM    7  O   UNL     1      -8.867  15.600  66.069  1.00  0.00    -0.318 OA 
HETATM    8  C   UNL     1     -10.145  16.254  66.240  1.00  0.00    -0.324 C  
HETATM    9  H   UNL     1      -7.984  17.360  68.991  1.00  0.00     0.000 HD 
ENDROOT
BRANCH   5  10
HETATM   10  O   UNL     1      -6.810  16.036  67.227  1.00  0.00    -0.172 OA 
BRANCH  10  11
HETATM   11  P   UNL     1      -6.852  14.499  68.019  1.00  0.00    -0.178 P  
HETATM   12  O   UNL     1      -5.308  14.213  67.569  1.00  0.00    -0.335 OA 
HETATM   13  O   UNL     1      -6.785  15.209  69.379  1.00  0.00    -0.136 OA 
BRANCH  11  14
HETATM   14  O   UNL     1      -6.894  12.962  68.812  1.00  0.00    -0.090 OA 
HETATM   15  P   UNL     1      -8.205  12.024  68.184  1.00  0.00    -0.169 P  
HETATM   16  O   UNL     1      -9.379  11.186  67.621  1.00  0.00    -0.162 OA 
HETATM   17  O   UNL     1      -7.128  11.495  67.064  1.00  0.00    -0.129 OA 
HETATM   18  O   UNL     1      -7.757  10.908  69.304  1.00  0.00    -0.135 OA 
ENDBRANCH  11  14
ENDBRANCH  10  11
ENDBRANCH   5  10
BRANCH   8  19
HETATM   19  C   UNL     1     -11.060  15.947  65.057  1.00  0.00    -0.360 C  
BRANCH  19  20
HETATM   20  O   UNL     1     -11.859  14.841  65.434  1.00  0.00    -0.330 OA 
HETATM   21  P   UNL     1     -11.867  13.558  64.496  1.00  0.00    -0.447 P  
HETATM   22  O   UNL     1     -12.598  12.496  65.436  1.00  0.00    -0.656 OA 
HETATM   23  O   UNL     1     -12.448  13.733  63.142  1.00  0.00    -0.786 OA 
HETATM   24  O   UNL     1     -10.357  13.056  64.599  1.00  0.00    -0.347 OA 
ENDBRANCH  19  20
ENDBRANCH   8  19
TORSDOF 5
ENDMDL
MODEL       82
REMARK 921   NORMALIZED FREE ENERGY PREDICTED BY IDOCK:   -5.25 KCAL/MOL
REMARK 922        TOTAL FREE ENERGY PREDICTED BY IDOCK:   -7.49 KCAL/MOL
REMARK 923 INTER-LIGAND FREE ENERGY PREDICTED BY IDOCK:   -7.00 KCAL/MOL
REMARK 924 INTRA-LIGAND FREE ENERGY PREDICTED BY IDOCK:   -0.49 KCAL/MOL
REMARK 927      BINDING AFFINITY PREDICTED BY RF-SCORE:    0.00 PKD
ROOT
HETATM    1  O   UNL     1     -10.372  14.081  66.445  1.00  0.00    -0.278 OA 
HETATM    2  H   UNL     1     -10.588  14.227  65.532  1.00  0.00     0.000 HD 
HETATM    3  C   UNL     1      -9.661  12.862  66.640  1.00  0.00    -0.257 C  
HETATM    4  C   UNL     1      -9.316  12.628  68.100  1.00  0.00    -0.210 C  
HETATM    5  C   UNL     1      -9.030  11.108  68.089  1.00  0.00    -0.159 C  
HETATM    6  O   UNL     1     -10.459  12.975  68.911  1.00  0.00    -0.377 OA 
HETATM    7  O   UNL     1      -9.966  10.557  67.145  1.00  0.00    -0.180 OA 
HETATM    8  C   UNL     1     -10.519  11.641  66.364  1.00  0.00    -0.244 C  
HETATM    9  H   UNL     1     -10.243  12.828  69.824  1.00  0.00     0.000 HD 
ENDROOT
BRANCH   5  10
HETATM   10  O   UNL     1      -9.156  10.618  69.404  1.00  0.00    -0.152 OA 
BRANCH  10  11
HETATM   11  P   UNL     1     -10.293   9.417  69.907  1.00  0.00    -0.264 P  
HETATM   12  O   UNL     1      -9.385   9.094  71.226  1.00  0.00    -0.254 OA 
HETATM   13  O   UNL     1     -11.272  10.527  70.313  1.00  0.00    -0.295 OA 
BRANCH  11  14
HETATM   14  O   UNL     1     -11.431   8.215  70.411  1.00  0.00    -0.234 OA 
HETATM   15  P   UNL     1     -11.135   7.797  72.063  1.00  0.00    -0.313 P  
HETATM   16  O   UNL     1     -10.869   7.424  73.542  1.00  0.00    -0.379 OA 
HETATM   17  O   UNL     1     -12.163   9.023  72.429  1.00  0.00    -0.337 OA 
HETATM   18  O   UNL     1     -12.342   6.701  71.854  1.00  0.00    -0.342 OA 
ENDBRANCH  11  14
ENDBRANCH  10  11
ENDBRANCH   5  10
BRANCH   8  19
HETATM   19  C   UNL     1     -10.543  11.269  64.883  1.00  0.00    -0.300 C  
BRANCH  19  20
HETATM   20  O   UNL     1     -10.953  12.426  64.178  1.00  0.00    -0.312 OA 
HETATM   21  P   UNL     1     -12.502  12.626  63.887  1.00  0.00    -0.349 P  
HETATM   22  O   UNL     1     -12.528  14.143  63.394  1.00  0.00    -0.797 OA 
HETATM   23  O   UNL     1     -13.138  11.639  62.978  1.00  0.00    -0.436 OA 
HETATM   24  O   UNL     1     -13.104  12.781  65.356  1.00  0.00    -0.529 OA 
ENDBRANCH  19  20
ENDBRANCH   8  19
TORSDOF 5
ENDMDL
MODEL       83
REMARK 921   NORMALIZED FREE ENERGY PREDICTED BY IDOCK:   -5.24 KCAL/MOL
REMARK 922        TOTAL FREE ENERGY PREDICTED BY IDOCK:   -7.47 KCAL/MOL
REMARK 923 INTER-LIGAND FREE ENERGY PREDICTED BY IDOCK:   -6.78 KCAL/MOL
REMARK 924 INTRA-LIGAND FREE ENERGY PREDICTED BY IDOCK:   -0.69 KCAL/MOL
REMARK 927      BINDING AFFINITY PREDICTED BY RF-SCORE:    0.00 PKD
ROOT
HETATM    1  O   UNL     1     -12.542  13.895  63.114  1.00  0.00    -1.057 OA 
HETATM    2  H   UNL     1     -12.705  14.831  63.124  1.00  0.00     0.000 HD 
HETATM    3  C   UNL     1     -12.047  13.423  64.363  1.00  0.00    -0.416 C  
HETATM    4  C   UNL     1     -11.786  11.928  64.348  1.00  0.00    -0.275 C  
HETATM    5  C   UNL     1     -10.840  11.787  65.564  1.00  0.00    -0.297 C  
HETATM    6  O   UNL     1     -11.147  11.579  63.102  1.00  0.00    -0.728 OA 
HETATM    7  O   UNL     1     -10.034  12.980  65.552  1.00  0.00    -0.276 OA 
HETATM    8  C   UNL     1     -10.652  13.940  64.665  1.00  0.00    -0.412 C  
HETATM    9  H   UNL     1     -10.984  10.643  63.092  1.00  0.00     0.000 HD 
ENDROOT
BRANCH   5  10
HETATM   10  O   UNL     1     -10.120  10.583  65.436  1.00  0.00    -0.271 OA 
BRANCH  10  11
HETATM   11  P   UNL     1      -9.479   9.669  66.756  1.00  0.00    -0.183 P  
HETATM   12  O   UNL     1     -10.992   9.334  67.272  1.00  0.00    -0.166 OA 
HETATM   13  O   UNL     1      -9.093   8.548  65.781  1.00  0.00    -0.193 OA 
BRANCH  11  14
HETATM   14  O   UNL     1      -8.838   8.754  68.078  1.00  0.00    -0.139 OA 
HETATM   15  P   UNL     1      -7.992   9.810  69.154  1.00  0.00    -0.127 P  
HETATM   16  O   UNL     1      -7.234  10.757  70.118  1.00  0.00    -0.155 OA 
HETATM   17  O   UNL     1      -9.439  10.007  69.902  1.00  0.00    -0.225 OA 
HETATM   18  O   UNL     1      -7.625   8.439  69.984  1.00  0.00    -0.065 OA 
ENDBRANCH  11  14
ENDBRANCH  10  11
ENDBRANCH   5  10
BRANCH   8  19
HETATM   19  C   UNL     1     -10.672  15.323  65.313  1.00  0.00    -0.415 C  
BRANCH  19  20
HETATM   20  O   UNL     1     -10.050  15.191  66.577  1.00  0.00    -0.253 OA 
HETATM   21  P   UNL     1     -10.883  15.581  67.874  1.00  0.00    -0.322 P  
HETATM   22  O   UNL     1      -9.952  14.986  69.025  1.00  0.00    -0.231 OA 
HETATM   23  O   UNL     1     -11.254  17.011  68.016  1.00  0.00    -0.251 OA 
HETATM   24  O   UNL     1     -12.059  14.504  67.856  1.00  0.00    -0.325 OA 
ENDBRANCH  19  20
ENDBRANCH   8  19
TORSDOF 5
ENDMDL
MODEL       84
REMARK 921   NORMALIZED FREE ENERGY PREDICTED BY IDOCK:   -5.21 KCAL/MOL
REMARK 922        TOTAL FREE ENERGY PREDICTED BY IDOCK:   -7.43 KCAL/MOL
REMARK 923 INTER-LIGAND FREE ENERGY PREDICTED BY IDOCK:   -7.32 KCAL/MOL
REMARK 924 INTRA-LIGAND FREE ENERGY PREDICTED BY IDOCK:   -0.11 KCAL/MOL
REMARK 927      BINDING AFFINITY PREDICTED BY RF-SCORE:    0.00 PKD
ROOT
HETATM    1  O   UNL     1      -9.479  12.358  66.405  1.00  0.00    -0.237 OA 
HETATM    2  H   UNL     1      -9.370  12.956  65.675  1.00  0.00     0.000 HD 
HETATM    3  C   UNL     1     -10.730  12.535  67.062  1.00  0.00    -0.242 C  
HETATM    4  C   UNL     1     -10.904  11.580  68.229  1.00  0.00    -0.216 C  
HETATM    5  C   UNL     1     -12.032  12.288  69.017  1.00  0.00    -0.248 C  
HETATM    6  O   UNL     1      -9.665  11.514  68.967  1.00  0.00    -0.394 OA 
HETATM    7  O   UNL     1     -11.772  13.695  68.861  1.00  0.00    -0.291 OA 
HETATM    8  C   UNL     1     -10.819  13.867  67.786  1.00  0.00    -0.250 C  
HETATM    9  H   UNL     1      -9.774  10.915  69.697  1.00  0.00     0.000 HD 
ENDROOT
BRANCH   5  10
HETATM   10  O   UNL     1     -12.009  11.824  70.347  1.00  0.00    -0.352 OA 
BRANCH  10  11
HETATM   11  P   UNL     1     -12.600  10.285  70.868  1.00  0.00    -0.378 P  
HETATM   12  O   UNL     1     -11.084   9.825  71.263  1.00  0.00    -0.355 OA 
HETATM   13  O   UNL     1     -13.195  10.947  72.119  1.00  0.00    -0.474 OA 
BRANCH  11  14
HETATM   14  O   UNL     1     -13.192   8.745  71.390  1.00  0.00    -0.316 OA 
HETATM   15  P   UNL     1     -11.865   7.651  71.574  1.00  0.00    -0.321 P  
HETATM   16  O   UNL     1     -10.677   6.671  71.739  1.00  0.00    -0.221 OA 
HETATM   17  O   UNL     1     -11.774   8.214  73.113  1.00  0.00    -0.245 OA 
HETATM   18  O   UNL     1     -13.019   6.536  71.933  1.00  0.00    -0.268 OA 
ENDBRANCH  11  14
ENDBRANCH  10  11
ENDBRANCH   5  10
BRANCH   8  19
HETATM   19  C   UNL     1     -11.261  15.001  66.863  1.00  0.00    -0.323 C  
BRANCH  19  20
HETATM   20  O   UNL     1     -10.082  15.621  66.384  1.00  0.00    -0.261 OA 
HETATM   21  P   UNL     1     -10.127  17.174  66.048  1.00  0.00    -0.175 P  
HETATM   22  O   UNL     1      -8.574  17.494  65.873  1.00  0.00    -0.528 OA 
HETATM   23  O   UNL     1     -11.003  17.582  64.921  1.00  0.00    -0.887 OA 
HETATM   24  O   UNL     1     -10.404  17.821  67.478  1.00  0.00    -0.340 OA 
ENDBRANCH  19  20
ENDBRANCH   8  19
TORSDOF 5
ENDMDL
MODEL       85
REMARK 921   NORMALIZED FREE ENERGY PREDICTED BY IDOCK:   -5.20 KCAL/MOL
REMARK 922        TOTAL FREE ENERGY PREDICTED BY IDOCK:   -7.43 KCAL/MOL
REMARK 923 INTER-LIGAND FREE ENERGY PREDICTED BY IDOCK:   -6.79 KCAL/MOL
REMARK 924 INTRA-LIGAND FREE ENERGY PREDICTED BY IDOCK:   -0.64 KCAL/MOL
REMARK 927      BINDING AFFINITY PREDICTED BY RF-SCORE:    0.00 PKD
ROOT
HETATM    1  O   UNL     1     -11.186  15.836  67.762  1.00  0.00    -0.336 OA 
HETATM    2  H   UNL     1     -11.664  16.275  67.067  1.00  0.00     0.000 HD 
HETATM    3  C   UNL     1     -10.908  14.476  67.444  1.00  0.00    -0.291 C  
HETATM    4  C   UNL     1     -10.145  13.774  68.554  1.00  0.00    -0.225 C  
HETATM    5  C   UNL     1     -10.413  12.293  68.197  1.00  0.00    -0.217 C  
HETATM    6  O   UNL     1     -10.715  14.153  69.824  1.00  0.00    -0.454 OA 
HETATM    7  O   UNL     1     -11.759  12.267  67.689  1.00  0.00    -0.340 OA 
HETATM    8  C   UNL     1     -12.164  13.625  67.398  1.00  0.00    -0.244 C  
HETATM    9  H   UNL     1     -10.238  13.714  70.519  1.00  0.00     0.000 HD 
ENDROOT
BRANCH   5  10
HETATM   10  O   UNL     1     -10.197  11.508  69.346  1.00  0.00    -0.014 OA 
BRANCH  10  11
HETATM   11  P   UNL     1     -10.663   9.851  69.514  1.00  0.00    -0.264 P  
HETATM   12  O   UNL     1      -9.644   9.431  68.308  1.00  0.00    -0.141 OA 
HETATM   13  O   UNL     1      -9.856   9.765  70.817  1.00  0.00    -0.218 OA 
BRANCH  11  14
HETATM   14  O   UNL     1     -11.129   8.193  69.682  1.00  0.00    -0.154 OA 
HETATM   15  P   UNL     1     -11.123   7.759  71.356  1.00  0.00    -0.250 P  
HETATM   16  O   UNL     1     -11.117   7.370  72.855  1.00  0.00    -0.319 OA 
HETATM   17  O   UNL     1     -12.682   8.270  71.368  1.00  0.00    -0.308 OA 
HETATM   18  O   UNL     1     -11.505   6.252  70.820  1.00  0.00    -0.333 OA 
ENDBRANCH  11  14
ENDBRANCH  10  11
ENDBRANCH   5  10
BRANCH   8  19
HETATM   19  C   UNL     1     -12.861  13.690  66.040  1.00  0.00    -0.184 C  
BRANCH  19  20
HETATM   20  O   UNL     1     -12.455  12.543  65.317  1.00  0.00    -0.608 OA 
HETATM   21  P   UNL     1     -11.696  12.748  63.936  1.00  0.00    -0.534 P  
HETATM   22  O   UNL     1     -11.163  11.271  63.657  1.00  0.00    -0.358 OA 
HETATM   23  O   UNL     1     -12.477  13.373  62.839  1.00  0.00    -0.563 OA 
HETATM   24  O   UNL     1     -10.349  13.468  64.395  1.00  0.00    -0.433 OA 
ENDBRANCH  19  20
ENDBRANCH   8  19
TORSDOF 5
ENDMDL
MODEL       86
REMARK 921   NORMALIZED FREE ENERGY PREDICTED BY IDOCK:   -5.20 KCAL/MOL
REMARK 922        TOTAL FREE ENERGY PREDICTED BY IDOCK:   -7.42 KCAL/MOL
REMARK 923 INTER-LIGAND FREE ENERGY PREDICTED BY IDOCK:   -6.91 KCAL/MOL
REMARK 924 INTRA-LIGAND FREE ENERGY PREDICTED BY IDOCK:   -0.51 KCAL/MOL
REMARK 927      BINDING AFFINITY PREDICTED BY RF-SCORE:    0.00 PKD
ROOT
HETATM    1  O   UNL     1     -11.013  10.398  70.805  1.00  0.00    -0.396 OA 
HETATM    2  H   UNL     1     -11.186   9.879  71.581  1.00  0.00     0.000 HD 
HETATM    3  C   UNL     1     -11.114   9.629  69.611  1.00  0.00    -0.193 C  
HETATM    4  C   UNL     1     -10.837  10.459  68.370  1.00  0.00    -0.245 C  
HETATM    5  C   UNL     1     -10.526   9.346  67.341  1.00  0.00    -0.278 C  
HETATM    6  O   UNL     1      -9.703  11.315  68.625  1.00  0.00    -0.196 OA 
HETATM    7  O   UNL     1      -9.827   8.331  68.086  1.00  0.00    -0.161 OA 
HETATM    8  C   UNL     1     -10.010   8.592  69.497  1.00  0.00    -0.196 C  
HETATM    9  H   UNL     1      -9.530  11.835  67.848  1.00  0.00     0.000 HD 
ENDROOT
BRANCH   5  10
HETATM   10  O   UNL     1      -9.795   9.910  66.277  1.00  0.00    -0.212 OA 
BRANCH  10  11
HETATM   11  P   UNL     1     -10.443  11.003  65.104  1.00  0.00    -0.187 P  
HETATM   12  O   UNL     1      -9.317  12.117  65.505  1.00  0.00    -0.131 OA 
HETATM   13  O   UNL     1      -9.832  10.149  63.984  1.00  0.00    -0.290 OA 
BRANCH  11  14
HETATM   14  O   UNL     1     -11.090  12.097  63.929  1.00  0.00    -0.333 OA 
HETATM   15  P   UNL     1     -12.242  13.141  64.687  1.00  0.00    -0.414 P  
HETATM   16  O   UNL     1     -13.273  14.076  65.367  1.00  0.00    -0.761 OA 
HETATM   17  O   UNL     1     -10.964  14.123  64.998  1.00  0.00    -0.342 OA 
HETATM   18  O   UNL     1     -12.478  13.744  63.176  1.00  0.00    -0.786 OA 
ENDBRANCH  11  14
ENDBRANCH  10  11
ENDBRANCH   5  10
BRANCH   8  19
HETATM   19  C   UNL     1     -10.348   7.299  70.235  1.00  0.00    -0.210 C  
BRANCH  19  20
HETATM   20  O   UNL     1     -11.743   7.316  70.471  1.00  0.00    -0.285 OA 
HETATM   21  P   UNL     1     -12.263   7.059  71.951  1.00  0.00    -0.275 P  
HETATM   22  O   UNL     1     -13.796   7.482  71.814  1.00  0.00    -0.360 OA 
HETATM   23  O   UNL     1     -12.012   5.709  72.515  1.00  0.00    -0.258 OA 
HETATM   24  O   UNL     1     -11.678   8.316  72.737  1.00  0.00    -0.397 OA 
ENDBRANCH  19  20
ENDBRANCH   8  19
TORSDOF 5
ENDMDL
MODEL       87
REMARK 921   NORMALIZED FREE ENERGY PREDICTED BY IDOCK:   -5.18 KCAL/MOL
REMARK 922        TOTAL FREE ENERGY PREDICTED BY IDOCK:   -7.39 KCAL/MOL
REMARK 923 INTER-LIGAND FREE ENERGY PREDICTED BY IDOCK:   -6.68 KCAL/MOL
REMARK 924 INTRA-LIGAND FREE ENERGY PREDICTED BY IDOCK:   -0.71 KCAL/MOL
REMARK 927      BINDING AFFINITY PREDICTED BY RF-SCORE:    0.00 PKD
ROOT
HETATM    1  O   UNL     1     -10.904  15.983  67.282  1.00  0.00    -0.313 OA 
HETATM    2  H   UNL     1     -10.673  16.134  66.373  1.00  0.00     0.000 HD 
HETATM    3  C   UNL     1     -10.838  14.604  67.631  1.00  0.00    -0.284 C  
HETATM    4  C   UNL     1     -11.207  14.362  69.084  1.00  0.00    -0.272 C  
HETATM    5  C   UNL     1     -11.531  12.850  69.052  1.00  0.00    -0.308 C  
HETATM    6  O   UNL     1     -12.354  15.172  69.415  1.00  0.00    -0.538 OA 
HETATM    7  O   UNL     1     -12.156  12.627  67.775  1.00  0.00    -0.362 OA 
HETATM    8  C   UNL     1     -11.910  13.781  66.938  1.00  0.00    -0.413 C  
HETATM    9  H   UNL     1     -12.585  15.021  70.324  1.00  0.00     0.000 HD 
ENDROOT
BRANCH   5  10
HETATM   10  O   UNL     1     -12.334  12.540  70.167  1.00  0.00    -0.239 OA 
BRANCH  10  11
HETATM   11  P   UNL     1     -12.319  11.029  71.008  1.00  0.00    -0.332 P  
HETATM   12  O   UNL     1     -13.430  11.593  72.064  1.00  0.00    -0.411 OA 
HETATM   13  O   UNL     1     -13.101  10.389  69.853  1.00  0.00    -0.038 OA 
BRANCH  11  14
HETATM   14  O   UNL     1     -12.304   9.517  71.849  1.00  0.00    -0.373 OA 
HETATM   15  P   UNL     1     -11.272   8.405  71.018  1.00  0.00    -0.278 P  
HETATM   16  O   UNL     1     -10.348   7.410  70.273  1.00  0.00    -0.205 OA 
HETATM   17  O   UNL     1     -10.068   9.014  71.952  1.00  0.00    -0.339 OA 
HETATM   18  O   UNL     1     -11.757   7.323  72.157  1.00  0.00    -0.276 OA 
ENDBRANCH  11  14
ENDBRANCH  10  11
ENDBRANCH   5  10
BRANCH   8  19
HETATM   19  C   UNL     1     -11.490  13.340  65.538  1.00  0.00    -0.311 C  
BRANCH  19  20
HETATM   20  O   UNL     1     -11.349  11.932  65.577  1.00  0.00    -0.322 OA 
HETATM   21  P   UNL     1      -9.995  11.293  65.046  1.00  0.00    -0.307 P  
HETATM   22  O   UNL     1     -10.140   9.792  65.567  1.00  0.00    -0.301 OA 
HETATM   23  O   UNL     1      -9.712  11.450  63.598  1.00  0.00    -0.270 OA 
HETATM   24  O   UNL     1      -8.923  11.863  66.081  1.00  0.00    -0.195 OA 
ENDBRANCH  19  20
ENDBRANCH   8  19
TORSDOF 5
ENDMDL
MODEL       88
REMARK 921   NORMALIZED FREE ENERGY PREDICTED BY IDOCK:   -5.16 KCAL/MOL
REMARK 922        TOTAL FREE ENERGY PREDICTED BY IDOCK:   -7.37 KCAL/MOL
REMARK 923 INTER-LIGAND FREE ENERGY PREDICTED BY IDOCK:   -6.62 KCAL/MOL
REMARK 924 INTRA-LIGAND FREE ENERGY PREDICTED BY IDOCK:   -0.75 KCAL/MOL
REMARK 927      BINDING AFFINITY PREDICTED BY RF-SCORE:    0.00 PKD
ROOT
HETATM    1  O   UNL     1     -12.115  15.766  68.489  1.00  0.00    -0.512 OA 
HETATM    2  H   UNL     1     -12.702  16.201  67.880  1.00  0.00     0.000 HD 
HETATM    3  C   UNL     1     -11.326  14.767  67.851  1.00  0.00    -0.316 C  
HETATM    4  C   UNL     1     -10.390  14.072  68.823  1.00  0.00    -0.222 C  
HETATM    5  C   UNL     1     -10.055  12.785  68.032  1.00  0.00    -0.230 C  
HETATM    6  O   UNL     1     -11.103  13.803  70.048  1.00  0.00    -0.472 OA 
HETATM    7  O   UNL     1     -11.271  12.443  67.341  1.00  0.00    -0.262 OA 
HETATM    8  C   UNL     1     -12.156  13.586  67.382  1.00  0.00    -0.318 C  
HETATM    9  H   UNL     1     -10.517  13.368  70.657  1.00  0.00     0.000 HD 
ENDROOT
BRANCH   5  10
HETATM   10  O   UNL     1      -9.593  11.809  68.937  1.00  0.00    -0.101 OA 
BRANCH  10  11
HETATM   11  P   UNL     1      -9.197  10.179  68.516  1.00  0.00    -0.156 P  
HETATM   12  O   UNL     1      -7.640  10.438  68.939  1.00  0.00    -0.087 OA 
HETATM   13  O   UNL     1      -9.915   9.688  69.781  1.00  0.00    -0.198 OA 
BRANCH  11  14
HETATM   14  O   UNL     1      -8.799   8.548  68.096  1.00  0.00    -0.141 OA 
HETATM   15  P   UNL     1     -10.121   7.509  68.504  1.00  0.00    -0.191 P  
HETATM   16  O   UNL     1     -11.304   6.580  68.870  1.00  0.00    -0.289 OA 
HETATM   17  O   UNL     1     -10.681   7.834  66.996  1.00  0.00    -0.347 OA 
HETATM   18  O   UNL     1      -9.137   6.294  67.996  1.00  0.00    -0.115 OA 
ENDBRANCH  11  14
ENDBRANCH  10  11
ENDBRANCH   5  10
BRANCH   8  19
HETATM   19  C   UNL     1     -12.779  13.823  66.008  1.00  0.00    -0.354 C  
BRANCH  19  20
HETATM   20  O   UNL     1     -12.476  12.686  65.220  1.00  0.00    -0.566 OA 
HETATM   21  P   UNL     1     -11.759  12.905  63.819  1.00  0.00    -0.502 P  
HETATM   22  O   UNL     1     -11.334  11.411  63.456  1.00  0.00    -0.376 OA 
HETATM   23  O   UNL     1     -12.539  13.626  62.782  1.00  0.00    -0.456 OA 
HETATM   24  O   UNL     1     -10.352  13.517  64.252  1.00  0.00    -0.406 OA 
ENDBRANCH  19  20
ENDBRANCH   8  19
TORSDOF 5
ENDMDL
MODEL       89
REMARK 921   NORMALIZED FREE ENERGY PREDICTED BY IDOCK:   -5.16 KCAL/MOL
REMARK 922        TOTAL FREE ENERGY PREDICTED BY IDOCK:   -7.37 KCAL/MOL
REMARK 923 INTER-LIGAND FREE ENERGY PREDICTED BY IDOCK:   -6.23 KCAL/MOL
REMARK 924 INTRA-LIGAND FREE ENERGY PREDICTED BY IDOCK:   -1.14 KCAL/MOL
REMARK 927      BINDING AFFINITY PREDICTED BY RF-SCORE:    0.00 PKD
ROOT
HETATM    1  O   UNL     1      -6.616   9.874  66.433  1.00  0.00    -0.070 OA 
HETATM    2  H   UNL     1      -6.609   8.973  66.132  1.00  0.00     0.000 HD 
HETATM    3  C   UNL     1      -7.789  10.181  67.180  1.00  0.00    -0.099 C  
HETATM    4  C   UNL     1      -7.799  11.621  67.662  1.00  0.00    -0.135 C  
HETATM    5  C   UNL     1      -9.303  11.811  67.972  1.00  0.00    -0.184 C  
HETATM    6  O   UNL     1      -7.338  12.475  66.593  1.00  0.00    -0.358 OA 
HETATM    7  O   UNL     1      -9.993  11.052  66.962  1.00  0.00    -0.183 OA 
HETATM    8  C   UNL     1      -9.040  10.173  66.320  1.00  0.00    -0.154 C  
HETATM    9  H   UNL     1      -7.345  13.376  66.895  1.00  0.00     0.000 HD 
ENDROOT
BRANCH   5  10
HETATM   10  O   UNL     1      -9.590  13.190  67.976  1.00  0.00    -0.207 OA 
BRANCH  10  11
HETATM   11  P   UNL     1     -10.602  13.993  66.826  1.00  0.00    -0.281 P  
HETATM   12  O   UNL     1     -10.969  15.137  67.933  1.00  0.00    -0.281 OA 
HETATM   13  O   UNL     1      -9.352  14.489  66.086  1.00  0.00    -0.277 OA 
BRANCH  11  14
HETATM   14  O   UNL     1     -11.614  14.798  65.676  1.00  0.00    -0.341 OA 
HETATM   15  P   UNL     1     -11.989  13.714  64.381  1.00  0.00    -0.429 P  
HETATM   16  O   UNL     1     -12.325  12.744  63.222  1.00  0.00    -0.630 OA 
HETATM   17  O   UNL     1     -13.273  13.260  65.297  1.00  0.00    -0.625 OA 
HETATM   18  O   UNL     1     -12.774  15.000  63.722  1.00  0.00    -0.741 OA 
ENDBRANCH  11  14
ENDBRANCH  10  11
ENDBRANCH   5  10
BRANCH   8  19
HETATM   19  C   UNL     1      -9.631   8.773  66.167  1.00  0.00    -0.253 C  
BRANCH  19  20
HETATM   20  O   UNL     1      -9.137   8.000  67.245  1.00  0.00    -0.131 OA 
HETATM   21  P   UNL     1     -10.135   7.620  68.422  1.00  0.00    -0.192 P  
HETATM   22  O   UNL     1      -9.281   6.523  69.205  1.00  0.00    -0.135 OA 
HETATM   23  O   UNL     1     -10.651   8.744  69.242  1.00  0.00    -0.225 OA 
HETATM   24  O   UNL     1     -11.197   6.693  67.677  1.00  0.00    -0.296 OA 
ENDBRANCH  19  20
ENDBRANCH   8  19
TORSDOF 5
ENDMDL
MODEL       90
REMARK 921   NORMALIZED FREE ENERGY PREDICTED BY IDOCK:   -5.13 KCAL/MOL
REMARK 922        TOTAL FREE ENERGY PREDICTED BY IDOCK:   -7.34 KCAL/MOL
REMARK 923 INTER-LIGAND FREE ENERGY PREDICTED BY IDOCK:   -6.73 KCAL/MOL
REMARK 924 INTRA-LIGAND FREE ENERGY PREDICTED BY IDOCK:   -0.61 KCAL/MOL
REMARK 927      BINDING AFFINITY PREDICTED BY RF-SCORE:    0.00 PKD
ROOT
HETATM    1  O   UNL     1      -7.988  15.816  69.538  1.00  0.00    -0.232 OA 
HETATM    2  H   UNL     1      -7.535  16.597  69.834  1.00  0.00     0.000 HD 
HETATM    3  C   UNL     1      -8.911  16.095  68.490  1.00  0.00    -0.200 C  
HETATM    4  C   UNL     1      -9.635  14.847  68.017  1.00  0.00    -0.207 C  
HETATM    5  C   UNL     1     -10.851  15.475  67.296  1.00  0.00    -0.313 C  
HETATM    6  O   UNL     1     -10.013  14.063  69.168  1.00  0.00    -0.422 OA 
HETATM    7  O   UNL     1     -11.191  16.636  68.075  1.00  0.00    -0.306 OA 
HETATM    8  C   UNL     1     -10.088  16.930  68.963  1.00  0.00    -0.292 C  
HETATM    9  H   UNL     1     -10.466  13.281  68.872  1.00  0.00     0.000 HD 
ENDROOT
BRANCH   5  10
HETATM   10  O   UNL     1     -11.868  14.504  67.204  1.00  0.00    -0.392 OA 
BRANCH  10  11
HETATM   11  P   UNL     1     -12.052  13.386  65.898  1.00  0.00    -0.449 P  
HETATM   12  O   UNL     1     -12.281  12.166  66.961  1.00  0.00    -0.522 OA 
HETATM   13  O   UNL     1     -13.439  13.972  65.602  1.00  0.00    -0.604 OA 
BRANCH  11  14
HETATM   14  O   UNL     1     -12.236  12.266  64.591  1.00  0.00    -0.411 OA 
HETATM   15  P   UNL     1     -10.734  12.114  63.747  1.00  0.00    -0.497 P  
HETATM   16  O   UNL     1      -9.390  11.978  62.990  1.00  0.00    -0.281 OA 
HETATM   17  O   UNL     1     -10.395  10.916  64.816  1.00  0.00    -0.308 OA 
HETATM   18  O   UNL     1     -11.568  11.123  62.733  1.00  0.00     0.535 OA 
ENDBRANCH  11  14
ENDBRANCH  10  11
ENDBRANCH   5  10
BRANCH   8  19
HETATM   19  C   UNL     1      -9.782  18.426  68.952  1.00  0.00    -0.291 C  
BRANCH  19  20
HETATM   20  O   UNL     1     -10.255  18.931  67.717  1.00  0.00    -0.351 OA 
HETATM   21  P   UNL     1      -9.256  19.772  66.812  1.00  0.00    -0.414 P  
HETATM   22  O   UNL     1     -10.071  19.844  65.442  1.00  0.00    -0.312 OA 
HETATM   23  O   UNL     1      -8.799  21.072  67.362  1.00  0.00    -0.184 OA 
HETATM   24  O   UNL     1      -8.145  18.690  66.439  1.00  0.00    -0.276 OA 
ENDBRANCH  19  20
ENDBRANCH   8  19
TORSDOF 5
ENDMDL
MODEL       91
REMARK 921   NORMALIZED FREE ENERGY PREDICTED BY IDOCK:   -5.12 KCAL/MOL
REMARK 922        TOTAL FREE ENERGY PREDICTED BY IDOCK:   -7.32 KCAL/MOL
REMARK 923 INTER-LIGAND FREE ENERGY PREDICTED BY IDOCK:   -6.27 KCAL/MOL
REMARK 924 INTRA-LIGAND FREE ENERGY PREDICTED BY IDOCK:   -1.05 KCAL/MOL
REMARK 927      BINDING AFFINITY PREDICTED BY RF-SCORE:    0.00 PKD
ROOT
HETATM    1  O   UNL     1     -11.756   6.516  69.265  1.00  0.00    -0.644 OA 
HETATM    2  H   UNL     1     -12.053   6.262  70.131  1.00  0.00     0.000 HD 
HETATM    3  C   UNL     1     -10.512   7.209  69.307  1.00  0.00    -0.211 C  
HETATM    4  C   UNL     1     -10.037   7.617  67.924  1.00  0.00    -0.185 C  
HETATM    5  C   UNL     1      -9.011   8.718  68.284  1.00  0.00    -0.141 C  
HETATM    6  O   UNL     1     -11.161   8.125  67.175  1.00  0.00    -0.419 OA 
HETATM    7  O   UNL     1      -9.569   9.391  69.427  1.00  0.00    -0.160 OA 
HETATM    8  C   UNL     1     -10.632   8.572  69.966  1.00  0.00    -0.227 C  
HETATM    9  H   UNL     1     -10.864   8.380  66.309  1.00  0.00     0.000 HD 
ENDROOT
BRANCH   5  10
HETATM   10  O   UNL     1      -8.814   9.534  67.152  1.00  0.00    -0.130 OA 
BRANCH  10  11
HETATM   11  P   UNL     1      -9.483  11.115  66.945  1.00  0.00    -0.192 P  
HETATM   12  O   UNL     1      -8.005  11.702  66.570  1.00  0.00    -0.141 OA 
HETATM   13  O   UNL     1     -10.120  10.662  65.624  1.00  0.00    -0.249 OA 
BRANCH  11  14
HETATM   14  O   UNL     1     -10.151  12.697  66.738  1.00  0.00    -0.230 OA 
HETATM   15  P   UNL     1     -11.635  12.585  65.856  1.00  0.00    -0.417 P  
HETATM   16  O   UNL     1     -12.964  12.484  65.067  1.00  0.00    -0.779 OA 
HETATM   17  O   UNL     1     -12.349  12.401  67.322  1.00  0.00    -0.366 OA 
HETATM   18  O   UNL     1     -11.642  14.227  65.937  1.00  0.00    -0.342 OA 
ENDBRANCH  11  14
ENDBRANCH  10  11
ENDBRANCH   5  10
BRANCH   8  19
HETATM   19  C   UNL     1     -10.522   8.494  71.487  1.00  0.00    -0.248 C  
BRANCH  19  20
HETATM   20  O   UNL     1      -9.804   7.311  71.785  1.00  0.00    -0.162 OA 
HETATM   21  P   UNL     1     -10.373   6.344  72.910  1.00  0.00    -0.236 P  
HETATM   22  O   UNL     1      -9.473   5.047  72.682  1.00  0.00    -0.139 OA 
HETATM   23  O   UNL     1     -10.398   6.880  74.294  1.00  0.00    -0.346 OA 
HETATM   24  O   UNL     1     -11.754   5.862  72.274  1.00  0.00    -0.307 OA 
ENDBRANCH  19  20
ENDBRANCH   8  19
TORSDOF 5
ENDMDL
MODEL       92
REMARK 921   NORMALIZED FREE ENERGY PREDICTED BY IDOCK:   -5.12 KCAL/MOL
REMARK 922        TOTAL FREE ENERGY PREDICTED BY IDOCK:   -7.32 KCAL/MOL
REMARK 923 INTER-LIGAND FREE ENERGY PREDICTED BY IDOCK:   -6.34 KCAL/MOL
REMARK 924 INTRA-LIGAND FREE ENERGY PREDICTED BY IDOCK:   -0.98 KCAL/MOL
REMARK 927      BINDING AFFINITY PREDICTED BY RF-SCORE:    0.00 PKD
ROOT
HETATM    1  O   UNL     1      -8.137  12.602  67.105  1.00  0.00    -0.211 OA 
HETATM    2  H   UNL     1      -7.935  13.305  66.499  1.00  0.00     0.000 HD 
HETATM    3  C   UNL     1      -9.478  12.142  66.965  1.00  0.00    -0.201 C  
HETATM    4  C   UNL     1      -9.802  11.020  67.934  1.00  0.00    -0.171 C  
HETATM    5  C   UNL     1     -11.349  11.065  67.922  1.00  0.00    -0.311 C  
HETATM    6  O   UNL     1      -9.244  11.342  69.225  1.00  0.00    -0.398 OA 
HETATM    7  O   UNL     1     -11.682  12.460  67.806  1.00  0.00    -0.335 OA 
HETATM    8  C   UNL     1     -10.494  13.182  67.403  1.00  0.00    -0.242 C  
HETATM    9  H   UNL     1      -9.447  10.639  69.832  1.00  0.00     0.000 HD 
ENDROOT
BRANCH   5  10
HETATM   10  O   UNL     1     -11.824  10.437  69.090  1.00  0.00    -0.186 OA 
BRANCH  10  11
HETATM   11  P   UNL     1     -12.484  11.264  70.458  1.00  0.00    -0.245 P  
HETATM   12  O   UNL     1     -13.704  10.180  70.538  1.00  0.00     0.012 OA 
HETATM   13  O   UNL     1     -11.349  10.708  71.330  1.00  0.00    -0.001 OA 
BRANCH  11  14
HETATM   14  O   UNL     1     -13.144  12.090  71.828  1.00  0.00    -0.445 OA 
HETATM   15  P   UNL     1     -12.755  13.773  71.729  1.00  0.00    -0.186 P  
HETATM   16  O   UNL     1     -12.406  15.279  71.639  1.00  0.00    -0.310 OA 
HETATM   17  O   UNL     1     -14.152  13.920  70.880  1.00  0.00     0.173 OA 
HETATM   18  O   UNL     1     -13.502  13.886  73.189  1.00  0.00    -0.555 OA 
ENDBRANCH  11  14
ENDBRANCH  10  11
ENDBRANCH   5  10
BRANCH   8  19
HETATM   19  C   UNL     1     -10.828  14.174  66.292  1.00  0.00    -0.300 C  
BRANCH  19  20
HETATM   20  O   UNL     1     -10.804  13.449  65.076  1.00  0.00    -0.298 OA 
HETATM   21  P   UNL     1     -12.151  13.323  64.243  1.00  0.00    -0.409 P  
HETATM   22  O   UNL     1     -11.603  12.745  62.860  1.00  0.00    -0.124 OA 
HETATM   23  O   UNL     1     -13.251  12.554  64.876  1.00  0.00    -0.787 OA 
HETATM   24  O   UNL     1     -12.440  14.838  63.837  1.00  0.00    -0.811 OA 
ENDBRANCH  19  20
ENDBRANCH   8  19
TORSDOF 5
ENDMDL
MODEL       93
REMARK 921   NORMALIZED FREE ENERGY PREDICTED BY IDOCK:   -5.10 KCAL/MOL
REMARK 922        TOTAL FREE ENERGY PREDICTED BY IDOCK:   -7.30 KCAL/MOL
REMARK 923 INTER-LIGAND FREE ENERGY PREDICTED BY IDOCK:   -6.49 KCAL/MOL
REMARK 924 INTRA-LIGAND FREE ENERGY PREDICTED BY IDOCK:   -0.81 KCAL/MOL
REMARK 927      BINDING AFFINITY PREDICTED BY RF-SCORE:    0.00 PKD
ROOT
HETATM    1  O   UNL     1     -10.697  15.971  65.024  1.00  0.00    -0.513 OA 
HETATM    2  H   UNL     1     -10.946  16.877  65.163  1.00  0.00     0.000 HD 
HETATM    3  C   UNL     1     -11.079  15.137  66.114  1.00  0.00    -0.311 C  
HETATM    4  C   UNL     1     -10.681  13.689  65.893  1.00  0.00    -0.281 C  
HETATM    5  C   UNL     1     -10.745  13.147  67.341  1.00  0.00    -0.253 C  
HETATM    6  O   UNL     1      -9.348  13.650  65.342  1.00  0.00    -0.427 OA 
HETATM    7  O   UNL     1     -10.287  14.232  68.168  1.00  0.00    -0.224 OA 
HETATM    8  C   UNL     1     -10.297  15.444  67.378  1.00  0.00    -0.262 C  
HETATM    9  H   UNL     1      -9.099  12.743  65.203  1.00  0.00     0.000 HD 
ENDROOT
BRANCH   5  10
HETATM   10  O   UNL     1      -9.968  11.975  67.416  1.00  0.00    -0.190 OA 
BRANCH  10  11
HETATM   11  P   UNL     1     -10.560  10.426  67.908  1.00  0.00    -0.272 P  
HETATM   12  O   UNL     1     -12.096  10.978  67.834  1.00  0.00    -0.600 OA 
HETATM   13  O   UNL     1     -10.230   9.868  66.517  1.00  0.00    -0.231 OA 
BRANCH  11  14
HETATM   14  O   UNL     1     -11.153   8.877  68.401  1.00  0.00     0.052 OA 
HETATM   15  P   UNL     1     -10.064   7.645  67.863  1.00  0.00    -0.208 P  
HETATM   16  O   UNL     1      -9.089   6.543  67.381  1.00  0.00    -0.114 OA 
HETATM   17  O   UNL     1      -9.290   7.878  69.291  1.00  0.00    -0.149 OA 
HETATM   18  O   UNL     1     -11.159   6.598  68.502  1.00  0.00    -0.256 OA 
ENDBRANCH  11  14
ENDBRANCH  10  11
ENDBRANCH   5  10
BRANCH   8  19
HETATM   19  C   UNL     1     -10.910  16.592  68.177  1.00  0.00    -0.348 C  
BRANCH  19  20
HETATM   20  O   UNL     1      -9.867  17.514  68.435  1.00  0.00    -0.291 OA 
HETATM   21  P   UNL     1      -9.600  18.669  67.377  1.00  0.00    -0.314 P  
HETATM   22  O   UNL     1      -8.613  19.616  68.200  1.00  0.00    -0.315 OA 
HETATM   23  O   UNL     1      -9.122  18.243  66.038  1.00  0.00    -0.510 OA 
HETATM   24  O   UNL     1     -10.951  19.514  67.451  1.00  0.00    -0.477 OA 
ENDBRANCH  19  20
ENDBRANCH   8  19
TORSDOF 5
ENDMDL
MODEL       94
REMARK 921   NORMALIZED FREE ENERGY PREDICTED BY IDOCK:   -5.09 KCAL/MOL
REMARK 922        TOTAL FREE ENERGY PREDICTED BY IDOCK:   -7.28 KCAL/MOL
REMARK 923 INTER-LIGAND FREE ENERGY PREDICTED BY IDOCK:   -6.52 KCAL/MOL
REMARK 924 INTRA-LIGAND FREE ENERGY PREDICTED BY IDOCK:   -0.76 KCAL/MOL
REMARK 927      BINDING AFFINITY PREDICTED BY RF-SCORE:    0.00 PKD
ROOT
HETATM    1  O   UNL     1     -12.530  10.763  68.672  1.00  0.00    -0.793 OA 
HETATM    2  H   UNL     1     -12.465   9.975  68.146  1.00  0.00     0.000 HD 
HETATM    3  C   UNL     1     -11.856  11.865  68.072  1.00  0.00    -0.253 C  
HETATM    4  C   UNL     1     -11.960  13.125  68.913  1.00  0.00    -0.277 C  
HETATM    5  C   UNL     1     -10.794  13.959  68.329  1.00  0.00    -0.249 C  
HETATM    6  O   UNL     1     -11.758  12.780  70.299  1.00  0.00    -0.521 OA 
HETATM    7  O   UNL     1      -9.765  13.001  68.022  1.00  0.00    -0.211 OA 
HETATM    8  C   UNL     1     -10.350  11.678  68.047  1.00  0.00    -0.192 C  
HETATM    9  H   UNL     1     -11.823  13.568  70.825  1.00  0.00     0.000 HD 
ENDROOT
BRANCH   5  10
HETATM   10  O   UNL     1     -10.429  14.940  69.271  1.00  0.00    -0.235 OA 
BRANCH  10  11
HETATM   11  P   UNL     1      -9.562  16.390  68.902  1.00  0.00    -0.244 P  
HETATM   12  O   UNL     1      -8.143  15.605  69.102  1.00  0.00    -0.203 OA 
HETATM   13  O   UNL     1      -9.943  16.231  67.423  1.00  0.00    -0.241 OA 
BRANCH  11  14
HETATM   14  O   UNL     1      -8.693  17.841  68.532  1.00  0.00    -0.282 OA 
HETATM   15  P   UNL     1      -9.734  18.939  67.694  1.00  0.00    -0.344 P  
HETATM   16  O   UNL     1     -10.667  19.921  66.944  1.00  0.00    -0.459 OA 
HETATM   17  O   UNL     1     -10.152  19.487  69.184  1.00  0.00    -0.424 OA 
HETATM   18  O   UNL     1      -8.404  19.900  67.593  1.00  0.00    -0.307 OA 
ENDBRANCH  11  14
ENDBRANCH  10  11
ENDBRANCH   5  10
BRANCH   8  19
HETATM   19  C   UNL     1      -9.884  10.869  66.839  1.00  0.00    -0.189 C  
BRANCH  19  20
HETATM   20  O   UNL     1     -10.567   9.630  66.888  1.00  0.00    -0.228 OA 
HETATM   21  P   UNL     1      -9.710   8.292  66.857  1.00  0.00    -0.273 P  
HETATM   22  O   UNL     1     -10.816   7.212  67.251  1.00  0.00    -0.311 OA 
HETATM   23  O   UNL     1      -8.953   8.019  65.610  1.00  0.00    -0.146 OA 
HETATM   24  O   UNL     1      -8.888   8.386  68.221  1.00  0.00    -0.138 OA 
ENDBRANCH  19  20
ENDBRANCH   8  19
TORSDOF 5
ENDMDL
MODEL       95
REMARK 921   NORMALIZED FREE ENERGY PREDICTED BY IDOCK:   -5.09 KCAL/MOL
REMARK 922        TOTAL FREE ENERGY PREDICTED BY IDOCK:   -7.28 KCAL/MOL
REMARK 923 INTER-LIGAND FREE ENERGY PREDICTED BY IDOCK:   -6.42 KCAL/MOL
REMARK 924 INTRA-LIGAND FREE ENERGY PREDICTED BY IDOCK:   -0.87 KCAL/MOL
REMARK 927      BINDING AFFINITY PREDICTED BY RF-SCORE:    0.00 PKD
ROOT
HETATM    1  O   UNL     1     -12.018  13.090  68.005  1.00  0.00    -0.350 OA 
HETATM    2  H   UNL     1     -12.927  13.101  68.280  1.00  0.00     0.000 HD 
HETATM    3  C   UNL     1     -11.167  13.748  68.939  1.00  0.00    -0.272 C  
HETATM    4  C   UNL     1      -9.714  13.731  68.500  1.00  0.00    -0.193 C  
HETATM    5  C   UNL     1      -9.136  14.874  69.369  1.00  0.00    -0.040 C  
HETATM    6  O   UNL     1      -9.649  14.018  67.087  1.00  0.00    -0.230 OA 
HETATM    7  O   UNL     1     -10.185  15.857  69.441  1.00  0.00    -0.227 OA 
HETATM    8  C   UNL     1     -11.417  15.244  68.995  1.00  0.00    -0.324 C  
HETATM    9  H   UNL     1      -8.740  14.007  66.813  1.00  0.00     0.000 HD 
ENDROOT
BRANCH   5  10
HETATM   10  O   UNL     1      -7.939  15.325  68.779  1.00  0.00    -0.136 OA 
BRANCH  10  11
HETATM   11  P   UNL     1      -7.784  16.766  67.835  1.00  0.00    -0.180 P  
HETATM   12  O   UNL     1      -6.623  17.314  68.845  1.00  0.00    -0.190 OA 
HETATM   13  O   UNL     1      -7.067  15.962  66.742  1.00  0.00    -0.193 OA 
BRANCH  11  14
HETATM   14  O   UNL     1      -7.628  18.208  66.892  1.00  0.00    -0.205 OA 
HETATM   15  P   UNL     1      -9.175  18.968  66.740  1.00  0.00    -0.343 P  
HETATM   16  O   UNL     1     -10.560  19.647  66.604  1.00  0.00    -0.450 OA 
HETATM   17  O   UNL     1      -8.789  19.752  68.129  1.00  0.00    -0.320 OA 
HETATM   18  O   UNL     1      -8.391  20.049  65.782  1.00  0.00    -0.282 OA 
ENDBRANCH  11  14
ENDBRANCH  10  11
ENDBRANCH   5  10
BRANCH   8  19
HETATM   19  C   UNL     1     -12.561  15.608  69.938  1.00  0.00    -0.073 C  
BRANCH  19  20
HETATM   20  O   UNL     1     -12.797  14.474  70.752  1.00  0.00    -0.342 OA 
HETATM   21  P   UNL     1     -13.037  14.695  72.307  1.00  0.00    -0.439 P  
HETATM   22  O   UNL     1     -13.566  13.255  72.743  1.00  0.00    -0.634 OA 
HETATM   23  O   UNL     1     -11.890  15.226  73.085  1.00  0.00    -0.433 OA 
HETATM   24  O   UNL     1     -14.397  15.528  72.324  1.00  0.00    -0.562 OA 
ENDBRANCH  19  20
ENDBRANCH   8  19
TORSDOF 5
ENDMDL
MODEL       96
REMARK 921   NORMALIZED FREE ENERGY PREDICTED BY IDOCK:   -5.09 KCAL/MOL
REMARK 922        TOTAL FREE ENERGY PREDICTED BY IDOCK:   -7.28 KCAL/MOL
REMARK 923 INTER-LIGAND FREE ENERGY PREDICTED BY IDOCK:   -6.89 KCAL/MOL
REMARK 924 INTRA-LIGAND FREE ENERGY PREDICTED BY IDOCK:   -0.38 KCAL/MOL
REMARK 927      BINDING AFFINITY PREDICTED BY RF-SCORE:    0.00 PKD
ROOT
HETATM    1  O   UNL     1     -10.825  17.422  69.369  1.00  0.00    -0.336 OA 
HETATM    2  H   UNL     1     -10.475  18.016  68.715  1.00  0.00     0.000 HD 
HETATM    3  C   UNL     1     -10.558  16.059  69.053  1.00  0.00    -0.257 C  
HETATM    4  C   UNL     1     -11.117  15.110  70.098  1.00  0.00    -0.274 C  
HETATM    5  C   UNL     1     -11.136  13.784  69.302  1.00  0.00    -0.208 C  
HETATM    6  O   UNL     1     -12.438  15.554  70.473  1.00  0.00    -0.399 OA 
HETATM    7  O   UNL     1     -11.478  14.159  67.955  1.00  0.00    -0.279 OA 
HETATM    8  C   UNL     1     -11.317  15.591  67.825  1.00  0.00    -0.286 C  
HETATM    9  H   UNL     1     -12.788  14.961  71.127  1.00  0.00     0.000 HD 
ENDROOT
BRANCH   5  10
HETATM   10  O   UNL     1     -12.045  12.902  69.921  1.00  0.00    -0.309 OA 
BRANCH  10  11
HETATM   11  P   UNL     1     -11.790  11.205  70.129  1.00  0.00    -0.383 P  
HETATM   12  O   UNL     1     -13.179  11.090  70.981  1.00  0.00    -0.237 OA 
HETATM   13  O   UNL     1     -12.162  10.978  68.657  1.00  0.00    -0.571 OA 
BRANCH  11  14
HETATM   14  O   UNL     1     -11.535   9.506  70.337  1.00  0.00    -0.254 OA 
HETATM   15  P   UNL     1     -10.346   8.958  69.206  1.00  0.00    -0.200 P  
HETATM   16  O   UNL     1      -9.281   8.469  68.194  1.00  0.00    -0.138 OA 
HETATM   17  O   UNL     1      -9.248   9.335  70.366  1.00  0.00    -0.208 OA 
HETATM   18  O   UNL     1     -10.651   7.466  69.825  1.00  0.00    -0.227 OA 
ENDBRANCH  11  14
ENDBRANCH  10  11
ENDBRANCH   5  10
BRANCH   8  19
HETATM   19  C   UNL     1     -10.587  15.926  66.527  1.00  0.00    -0.297 C  
BRANCH  19  20
HETATM   20  O   UNL     1     -10.699  14.790  65.690  1.00  0.00    -0.302 OA 
HETATM   21  P   UNL     1     -11.938  14.700  64.698  1.00  0.00    -0.368 P  
HETATM   22  O   UNL     1     -11.495  13.483  63.765  1.00  0.00    -0.313 OA 
HETATM   23  O   UNL     1     -13.279  14.582  65.323  1.00  0.00    -0.512 OA 
HETATM   24  O   UNL     1     -11.678  15.933  63.720  1.00  0.00    -0.537 OA 
ENDBRANCH  19  20
ENDBRANCH   8  19
TORSDOF 5
ENDMDL
MODEL       97
REMARK 921   NORMALIZED FREE ENERGY PREDICTED BY IDOCK:   -5.08 KCAL/MOL
REMARK 922        TOTAL FREE ENERGY PREDICTED BY IDOCK:   -7.26 KCAL/MOL
REMARK 923 INTER-LIGAND FREE ENERGY PREDICTED BY IDOCK:   -6.34 KCAL/MOL
REMARK 924 INTRA-LIGAND FREE ENERGY PREDICTED BY IDOCK:   -0.92 KCAL/MOL
REMARK 927      BINDING AFFINITY PREDICTED BY RF-SCORE:    0.00 PKD
ROOT
HETATM    1  O   UNL     1     -11.104  14.414  69.043  1.00  0.00    -0.241 OA 
HETATM    2  H   UNL     1     -11.260  15.292  68.716  1.00  0.00     0.000 HD 
HETATM    3  C   UNL     1     -10.804  13.496  67.996  1.00  0.00    -0.250 C  
HETATM    4  C   UNL     1     -10.556  12.093  68.519  1.00  0.00    -0.233 C  
HETATM    5  C   UNL     1     -10.751  11.264  67.227  1.00  0.00    -0.251 C  
HETATM    6  O   UNL     1     -11.540  11.790  69.530  1.00  0.00    -0.287 OA 
HETATM    7  O   UNL     1     -11.807  11.931  66.510  1.00  0.00    -0.579 OA 
HETATM    8  C   UNL     1     -11.995  13.243  67.090  1.00  0.00    -0.348 C  
HETATM    9  H   UNL     1     -11.385  10.912  69.857  1.00  0.00     0.000 HD 
ENDROOT
BRANCH   5  10
HETATM   10  O   UNL     1     -11.029   9.931  67.586  1.00  0.00    -0.289 OA 
BRANCH  10  11
HETATM   11  P   UNL     1      -9.839   8.762  68.044  1.00  0.00    -0.186 P  
HETATM   12  O   UNL     1     -10.325   8.862  69.600  1.00  0.00    -0.201 OA 
HETATM   13  O   UNL     1     -10.685   7.660  67.393  1.00  0.00    -0.281 OA 
BRANCH  11  14
HETATM   14  O   UNL     1      -8.649   7.593  68.502  1.00  0.00    -0.128 OA 
HETATM   15  P   UNL     1      -8.728   6.239  67.428  1.00  0.00    -0.102 P  
HETATM   16  O   UNL     1      -8.799   5.027  66.467  1.00  0.00    -0.112 OA 
HETATM   17  O   UNL     1      -7.656   7.067  66.502  1.00  0.00    -0.085 OA 
HETATM   18  O   UNL     1      -7.562   5.590  68.390  1.00  0.00    -0.082 OA 
ENDBRANCH  11  14
ENDBRANCH  10  11
ENDBRANCH   5  10
BRANCH   8  19
HETATM   19  C   UNL     1     -12.124  14.295  65.991  1.00  0.00    -0.408 C  
BRANCH  19  20
HETATM   20  O   UNL     1     -10.815  14.749  65.704  1.00  0.00    -0.309 OA 
HETATM   21  P   UNL     1     -10.554  16.315  65.641  1.00  0.00    -0.215 P  
HETATM   22  O   UNL     1      -8.959  16.359  65.625  1.00  0.00    -0.427 OA 
HETATM   23  O   UNL     1     -11.233  17.056  64.549  1.00  0.00    -1.091 OA 
HETATM   24  O   UNL     1     -10.848  16.767  67.142  1.00  0.00    -0.236 OA 
ENDBRANCH  19  20
ENDBRANCH   8  19
TORSDOF 5
ENDMDL
MODEL       98
REMARK 921   NORMALIZED FREE ENERGY PREDICTED BY IDOCK:   -5.07 KCAL/MOL
REMARK 922        TOTAL FREE ENERGY PREDICTED BY IDOCK:   -7.25 KCAL/MOL
REMARK 923 INTER-LIGAND FREE ENERGY PREDICTED BY IDOCK:   -6.53 KCAL/MOL
REMARK 924 INTRA-LIGAND FREE ENERGY PREDICTED BY IDOCK:   -0.72 KCAL/MOL
REMARK 927      BINDING AFFINITY PREDICTED BY RF-SCORE:    0.00 PKD
ROOT
HETATM    1  O   UNL     1     -11.930  13.080  62.730  1.00  0.00    -0.667 OA 
HETATM    2  H   UNL     1     -11.479  12.768  61.954  1.00  0.00     0.000 HD 
HETATM    3  C   UNL     1     -11.137  12.939  63.905  1.00  0.00    -0.411 C  
HETATM    4  C   UNL     1     -11.858  13.436  65.145  1.00  0.00    -0.350 C  
HETATM    5  C   UNL     1     -11.036  12.738  66.255  1.00  0.00    -0.288 C  
HETATM    6  O   UNL     1     -13.228  12.987  65.100  1.00  0.00    -0.703 OA 
HETATM    7  O   UNL     1     -10.681  11.455  65.709  1.00  0.00    -0.267 OA 
HETATM    8  C   UNL     1     -10.917  11.485  64.282  1.00  0.00    -0.341 C  
HETATM    9  H   UNL     1     -13.679  13.299  65.876  1.00  0.00     0.000 HD 
ENDROOT
BRANCH   5  10
HETATM   10  O   UNL     1     -11.818  12.689  67.427  1.00  0.00    -0.364 OA 
BRANCH  10  11
HETATM   11  P   UNL     1     -11.380  11.846  68.872  1.00  0.00    -0.328 P  
HETATM   12  O   UNL     1     -12.218  12.925  69.767  1.00  0.00    -0.255 OA 
HETATM   13  O   UNL     1     -12.363  10.726  68.506  1.00  0.00    -0.417 OA 
BRANCH  11  14
HETATM   14  O   UNL     1     -10.942  11.003  70.318  1.00  0.00    -0.142 OA 
HETATM   15  P   UNL     1     -10.384   9.417  69.915  1.00  0.00    -0.264 P  
HETATM   16  O   UNL     1      -9.884   7.996  69.553  1.00  0.00    -0.176 OA 
HETATM   17  O   UNL     1      -8.900  10.106  69.786  1.00  0.00    -0.193 OA 
HETATM   18  O   UNL     1     -10.263   9.201  71.540  1.00  0.00    -0.323 OA 
ENDBRANCH  11  14
ENDBRANCH  10  11
ENDBRANCH   5  10
BRANCH   8  19
HETATM   19  C   UNL     1      -9.738  10.862  63.537  1.00  0.00    -0.342 C  
BRANCH  19  20
HETATM   20  O   UNL     1      -9.492   9.605  64.139  1.00  0.00    -0.192 OA 
HETATM   21  P   UNL     1      -7.985   9.175  64.404  1.00  0.00    -0.155 P  
HETATM   22  O   UNL     1      -8.191   7.907  65.351  1.00  0.00    -0.126 OA 
HETATM   23  O   UNL     1      -7.139   8.957  63.205  1.00  0.00    -0.090 OA 
HETATM   24  O   UNL     1      -7.505  10.264  65.466  1.00  0.00    -0.140 OA 
ENDBRANCH  19  20
ENDBRANCH   8  19
TORSDOF 5
ENDMDL
MODEL       99
REMARK 921   NORMALIZED FREE ENERGY PREDICTED BY IDOCK:   -5.06 KCAL/MOL
REMARK 922        TOTAL FREE ENERGY PREDICTED BY IDOCK:   -7.24 KCAL/MOL
REMARK 923 INTER-LIGAND FREE ENERGY PREDICTED BY IDOCK:   -6.28 KCAL/MOL
REMARK 924 INTRA-LIGAND FREE ENERGY PREDICTED BY IDOCK:   -0.96 KCAL/MOL
REMARK 927      BINDING AFFINITY PREDICTED BY RF-SCORE:    0.00 PKD
ROOT
HETATM    1  O   UNL     1     -10.237   9.150  65.979  1.00  0.00    -0.332 OA 
HETATM    2  H   UNL     1      -9.981   8.368  66.455  1.00  0.00     0.000 HD 
HETATM    3  C   UNL     1      -9.513  10.299  66.408  1.00  0.00    -0.174 C  
HETATM    4  C   UNL     1      -9.922  11.549  65.648  1.00  0.00    -0.236 C  
HETATM    5  C   UNL     1      -9.396  12.650  66.599  1.00  0.00    -0.236 C  
HETATM    6  O   UNL     1     -11.359  11.566  65.516  1.00  0.00    -0.214 OA 
HETATM    7  O   UNL     1      -9.602  12.131  67.925  1.00  0.00    -0.185 OA 
HETATM    8  C   UNL     1      -9.871  10.713  67.824  1.00  0.00    -0.165 C  
HETATM    9  H   UNL     1     -11.614  12.347  65.040  1.00  0.00     0.000 HD 
ENDROOT
BRANCH   5  10
HETATM   10  O   UNL     1     -10.080  13.849  66.318  1.00  0.00    -0.283 OA 
BRANCH  10  11
HETATM   11  P   UNL     1     -11.050  14.722  67.452  1.00  0.00    -0.342 P  
HETATM   12  O   UNL     1     -10.710  16.122  66.680  1.00  0.00    -0.306 OA 
HETATM   13  O   UNL     1     -12.315  14.157  66.791  1.00  0.00    -0.438 OA 
BRANCH  11  14
HETATM   14  O   UNL     1     -12.022  15.597  68.586  1.00  0.00    -0.336 OA 
HETATM   15  P   UNL     1     -12.035  14.760  70.099  1.00  0.00    -0.355 P  
HETATM   16  O   UNL     1     -12.047  14.010  71.454  1.00  0.00    -0.319 OA 
HETATM   17  O   UNL     1     -10.699  15.643  70.459  1.00  0.00    -0.320 OA 
HETATM   18  O   UNL     1     -13.077  15.938  70.580  1.00  0.00    -0.421 OA 
ENDBRANCH  11  14
ENDBRANCH  10  11
ENDBRANCH   5  10
BRANCH   8  19
HETATM   19  C   UNL     1      -9.070   9.946  68.874  1.00  0.00    -0.156 C  
BRANCH  19  20
HETATM   20  O   UNL     1      -9.939   8.970  69.419  1.00  0.00    -0.181 OA 
HETATM   21  P   UNL     1     -10.448   9.160  70.912  1.00  0.00    -0.330 P  
HETATM   22  O   UNL     1     -11.605   8.064  70.982  1.00  0.00    -0.282 OA 
HETATM   23  O   UNL     1      -9.418   9.083  71.978  1.00  0.00    -0.339 OA 
HETATM   24  O   UNL     1     -11.312  10.496  70.807  1.00  0.00    -0.327 OA 
ENDBRANCH  19  20
ENDBRANCH   8  19
TORSDOF 5
ENDMDL
MODEL      100
REMARK 921   NORMALIZED FREE ENERGY PREDICTED BY IDOCK:   -5.05 KCAL/MOL
REMARK 922        TOTAL FREE ENERGY PREDICTED BY IDOCK:   -7.23 KCAL/MOL
REMARK 923 INTER-LIGAND FREE ENERGY PREDICTED BY IDOCK:   -6.80 KCAL/MOL
REMARK 924 INTRA-LIGAND FREE ENERGY PREDICTED BY IDOCK:   -0.43 KCAL/MOL
REMARK 927      BINDING AFFINITY PREDICTED BY RF-SCORE:    0.00 PKD
ROOT
HETATM    1  O   UNL     1     -12.214  11.540  67.637  1.00  0.00    -0.513 OA 
HETATM    2  H   UNL     1     -11.886  10.668  67.822  1.00  0.00     0.000 HD 
HETATM    3  C   UNL     1     -11.353  12.263  66.763  1.00  0.00    -0.339 C  
HETATM    4  C   UNL     1     -11.878  13.657  66.467  1.00  0.00    -0.404 C  
HETATM    5  C   UNL     1     -10.591  14.347  65.956  1.00  0.00    -0.302 C  
HETATM    6  O   UNL     1     -12.373  14.238  67.691  1.00  0.00    -0.598 OA 
HETATM    7  O   UNL     1      -9.526  13.787  66.745  1.00  0.00    -0.257 OA 
HETATM    8  C   UNL     1     -10.024  12.604  67.412  1.00  0.00    -0.204 C  
HETATM    9  H   UNL     1     -12.702  15.110  67.506  1.00  0.00     0.000 HD 
ENDROOT
BRANCH   5  10
HETATM   10  O   UNL     1     -10.751  15.741  66.078  1.00  0.00    -0.323 OA 
BRANCH  10  11
HETATM   11  P   UNL     1      -9.837  16.751  67.144  1.00  0.00    -0.275 P  
HETATM   12  O   UNL     1      -9.849  17.950  66.035  1.00  0.00    -0.500 OA 
HETATM   13  O   UNL     1     -11.087  16.949  68.013  1.00  0.00    -0.336 OA 
BRANCH  11  14
HETATM   14  O   UNL     1      -8.924  17.762  68.211  1.00  0.00    -0.263 OA 
HETATM   15  P   UNL     1      -8.935  19.386  67.616  1.00  0.00    -0.319 P  
HETATM   16  O   UNL     1      -8.946  20.840  67.083  1.00  0.00    -0.295 OA 
HETATM   17  O   UNL     1     -10.304  19.571  68.503  1.00  0.00    -0.419 OA 
HETATM   18  O   UNL     1      -7.939  19.707  68.884  1.00  0.00    -0.339 OA 
ENDBRANCH  11  14
ENDBRANCH  10  11
ENDBRANCH   5  10
BRANCH   8  19
HETATM   19  C   UNL     1      -9.012  11.466  67.299  1.00  0.00    -0.159 C  
BRANCH  19  20
HETATM   20  O   UNL     1      -9.002  11.061  65.942  1.00  0.00    -0.186 OA 
HETATM   21  P   UNL     1      -8.710   9.535  65.611  1.00  0.00    -0.172 P  
HETATM   22  O   UNL     1      -9.111   9.475  64.067  1.00  0.00    -0.228 OA 
HETATM   23  O   UNL     1      -7.354   9.033  65.947  1.00  0.00    -0.091 OA 
HETATM   24  O   UNL     1      -9.961   8.800  66.271  1.00  0.00    -0.283 OA 
ENDBRANCH  19  20
ENDBRANCH   8  19
TORSDOF 5
ENDMDL
MODEL      101
REMARK 921   NORMALIZED FREE ENERGY PREDICTED BY IDOCK:   -5.03 KCAL/MOL
REMARK 922        TOTAL FREE ENERGY PREDICTED BY IDOCK:   -7.21 KCAL/MOL
REMARK 923 INTER-LIGAND FREE ENERGY PREDICTED BY IDOCK:   -6.47 KCAL/MOL
REMARK 924 INTRA-LIGAND FREE ENERGY PREDICTED BY IDOCK:   -0.74 KCAL/MOL
REMARK 927      BINDING AFFINITY PREDICTED BY RF-SCORE:    0.00 PKD
ROOT
HETATM    1  O   UNL     1      -8.765  13.287  66.460  1.00  0.00    -0.431 OA 
HETATM    2  H   UNL     1      -9.280  13.553  65.707  1.00  0.00     0.000 HD 
HETATM    3  C   UNL     1      -9.069  11.959  66.875  1.00  0.00    -0.196 C  
HETATM    4  C   UNL     1      -8.247  11.535  68.079  1.00  0.00    -0.143 C  
HETATM    5  C   UNL     1      -9.085  10.341  68.595  1.00  0.00    -0.152 C  
HETATM    6  O   UNL     1      -8.196  12.628  69.019  1.00  0.00    -0.336 OA 
HETATM    7  O   UNL     1     -10.455  10.714  68.356  1.00  0.00    -0.170 OA 
HETATM    8  C   UNL     1     -10.470  11.839  67.447  1.00  0.00    -0.211 C  
HETATM    9  H   UNL     1      -7.681  12.362  69.772  1.00  0.00     0.000 HD 
ENDROOT
BRANCH   5  10
HETATM   10  O   UNL     1      -8.759  10.115  69.947  1.00  0.00    -0.173 OA 
BRANCH  10  11
HETATM   11  P   UNL     1      -9.233   8.725  70.859  1.00  0.00    -0.253 P  
HETATM   12  O   UNL     1      -7.917   8.889  71.813  1.00  0.00    -0.303 OA 
HETATM   13  O   UNL     1     -10.352   9.547  71.514  1.00  0.00    -0.278 OA 
BRANCH  11  14
HETATM   14  O   UNL     1      -9.707   7.333  71.772  1.00  0.00    -0.155 OA 
HETATM   15  P   UNL     1     -10.006   6.012  70.697  1.00  0.00    -0.200 P  
HETATM   16  O   UNL     1     -10.274   4.830  69.733  1.00  0.00    -0.246 OA 
HETATM   17  O   UNL     1      -8.411   5.669  70.871  1.00  0.00    -0.119 OA 
HETATM   18  O   UNL     1     -10.444   5.192  72.053  1.00  0.00    -0.211 OA 
ENDBRANCH  11  14
ENDBRANCH  10  11
ENDBRANCH   5  10
BRANCH   8  19
HETATM   19  C   UNL     1     -11.525  11.630  66.363  1.00  0.00    -0.165 C  
BRANCH  19  20
HETATM   20  O   UNL     1     -11.741  12.889  65.754  1.00  0.00    -0.348 OA 
HETATM   21  P   UNL     1     -11.974  12.940  64.183  1.00  0.00    -0.485 P  
HETATM   22  O   UNL     1     -12.482  14.441  63.997  1.00  0.00    -0.748 OA 
HETATM   23  O   UNL     1     -10.828  12.534  63.331  1.00  0.00    -0.439 OA 
HETATM   24  O   UNL     1     -13.343  12.140  64.018  1.00  0.00    -0.706 OA 
ENDBRANCH  19  20
ENDBRANCH   8  19
TORSDOF 5
ENDMDL
MODEL      102
REMARK 921   NORMALIZED FREE ENERGY PREDICTED BY IDOCK:   -5.03 KCAL/MOL
REMARK 922        TOTAL FREE ENERGY PREDICTED BY IDOCK:   -7.20 KCAL/MOL
REMARK 923 INTER-LIGAND FREE ENERGY PREDICTED BY IDOCK:   -6.29 KCAL/MOL
REMARK 924 INTRA-LIGAND FREE ENERGY PREDICTED BY IDOCK:   -0.91 KCAL/MOL
REMARK 927      BINDING AFFINITY PREDICTED BY RF-SCORE:    0.00 PKD
ROOT
HETATM    1  O   UNL     1     -12.197  12.561  67.677  1.00  0.00    -0.401 OA 
HETATM    2  H   UNL     1     -11.966  12.965  66.849  1.00  0.00     0.000 HD 
HETATM    3  C   UNL     1     -11.146  11.748  68.190  1.00  0.00    -0.243 C  
HETATM    4  C   UNL     1     -11.517  11.103  69.513  1.00  0.00    -0.303 C  
HETATM    5  C   UNL     1     -10.479   9.957  69.576  1.00  0.00    -0.241 C  
HETATM    6  O   UNL     1     -12.875  10.621  69.434  1.00  0.00    -0.629 OA 
HETATM    7  O   UNL     1     -10.326   9.515  68.215  1.00  0.00    -0.189 OA 
HETATM    8  C   UNL     1     -10.905  10.512  67.342  1.00  0.00    -0.291 C  
HETATM    9  H   UNL     1     -13.106  10.217  70.262  1.00  0.00     0.000 HD 
ENDROOT
BRANCH   5  10
HETATM   10  O   UNL     1     -10.949   8.974  70.470  1.00  0.00    -0.234 OA 
BRANCH  10  11
HETATM   11  P   UNL     1      -9.941   7.952  71.434  1.00  0.00    -0.180 P  
HETATM   12  O   UNL     1      -8.937   9.206  71.732  1.00  0.00    -0.345 OA 
HETATM   13  O   UNL     1     -11.001   7.969  72.544  1.00  0.00    -0.309 OA 
BRANCH  11  14
HETATM   14  O   UNL     1      -8.932   6.930  72.399  1.00  0.00    -0.133 OA 
HETATM   15  P   UNL     1      -9.919   5.839  73.309  1.00  0.00    -0.200 P  
HETATM   16  O   UNL     1     -10.803   4.862  74.123  1.00  0.00    -0.295 OA 
HETATM   17  O   UNL     1      -9.801   4.843  72.009  1.00  0.00    -0.163 OA 
HETATM   18  O   UNL     1      -8.501   5.328  73.966  1.00  0.00    -0.113 OA 
ENDBRANCH  11  14
ENDBRANCH  10  11
ENDBRANCH   5  10
BRANCH   8  19
HETATM   19  C   UNL     1      -9.975  10.789  66.163  1.00  0.00    -0.232 C  
BRANCH  19  20
HETATM   20  O   UNL     1     -10.057  12.176  65.893  1.00  0.00    -0.234 OA 
HETATM   21  P   UNL     1     -10.685  12.642  64.511  1.00  0.00    -0.392 P  
HETATM   22  O   UNL     1     -10.873  14.205  64.771  1.00  0.00    -0.387 OA 
HETATM   23  O   UNL     1      -9.933  12.276  63.285  1.00  0.00    -0.403 OA 
HETATM   24  O   UNL     1     -12.193  12.137  64.637  1.00  0.00    -0.369 OA 
ENDBRANCH  19  20
ENDBRANCH   8  19
TORSDOF 5
ENDMDL
MODEL      103
REMARK 921   NORMALIZED FREE ENERGY PREDICTED BY IDOCK:   -5.02 KCAL/MOL
REMARK 922        TOTAL FREE ENERGY PREDICTED BY IDOCK:   -7.19 KCAL/MOL
REMARK 923 INTER-LIGAND FREE ENERGY PREDICTED BY IDOCK:   -5.87 KCAL/MOL
REMARK 924 INTRA-LIGAND FREE ENERGY PREDICTED BY IDOCK:   -1.32 KCAL/MOL
REMARK 927      BINDING AFFINITY PREDICTED BY RF-SCORE:    0.00 PKD
ROOT
HETATM    1  O   UNL     1     -12.911  10.599  69.388  1.00  0.00    -0.629 OA 
HETATM    2  H   UNL     1     -12.817  11.286  68.738  1.00  0.00     0.000 HD 
HETATM    3  C   UNL     1     -11.738  10.449  70.182  1.00  0.00    -0.312 C  
HETATM    4  C   UNL     1     -11.886   9.350  71.219  1.00  0.00    -0.360 C  
HETATM    5  C   UNL     1     -10.403   9.076  71.564  1.00  0.00    -0.342 C  
HETATM    6  O   UNL     1     -12.536   8.215  70.608  1.00  0.00    -0.490 OA 
HETATM    7  O   UNL     1      -9.694   9.238  70.322  1.00  0.00    -0.198 OA 
HETATM    8  C   UNL     1     -10.564   9.912  69.383  1.00  0.00    -0.229 C  
HETATM    9  H   UNL     1     -12.629   7.528  71.258  1.00  0.00     0.000 HD 
ENDROOT
BRANCH   5  10
HETATM   10  O   UNL     1     -10.306   7.793  72.139  1.00  0.00    -0.202 OA 
BRANCH  10  11
HETATM   11  P   UNL     1      -9.502   6.444  71.416  1.00  0.00    -0.152 P  
HETATM   12  O   UNL     1      -9.499   5.664  72.852  1.00  0.00    -0.148 OA 
HETATM   13  O   UNL     1     -10.808   6.054  70.711  1.00  0.00    -0.261 OA 
BRANCH  11  14
HETATM   14  O   UNL     1      -8.697   5.093  70.694  1.00  0.00    -0.122 OA 
HETATM   15  P   UNL     1      -9.401   4.762  69.149  1.00  0.00    -0.162 P  
HETATM   16  O   UNL     1     -10.032   4.465  67.766  1.00  0.00    -0.130 OA 
HETATM   17  O   UNL     1      -8.298   5.823  68.556  1.00  0.00    -0.107 OA 
HETATM   18  O   UNL     1      -8.360   3.489  69.107  1.00  0.00    -0.059 OA 
ENDBRANCH  11  14
ENDBRANCH  10  11
ENDBRANCH   5  10
BRANCH   8  19
HETATM   19  C   UNL     1      -9.802  11.017  68.654  1.00  0.00    -0.193 C  
BRANCH  19  20
HETATM   20  O   UNL     1     -10.577  12.195  68.774  1.00  0.00    -0.229 OA 
HETATM   21  P   UNL     1     -11.040  12.934  67.446  1.00  0.00    -0.302 P  
HETATM   22  O   UNL     1     -12.113  13.963  68.026  1.00  0.00    -0.367 OA 
HETATM   23  O   UNL     1      -9.966  13.523  66.608  1.00  0.00    -0.267 OA 
HETATM   24  O   UNL     1     -12.000  11.853  66.774  1.00  0.00    -0.613 OA 
ENDBRANCH  19  20
ENDBRANCH   8  19
TORSDOF 5
ENDMDL
MODEL      104
REMARK 921   NORMALIZED FREE ENERGY PREDICTED BY IDOCK:   -5.02 KCAL/MOL
REMARK 922        TOTAL FREE ENERGY PREDICTED BY IDOCK:   -7.19 KCAL/MOL
REMARK 923 INTER-LIGAND FREE ENERGY PREDICTED BY IDOCK:   -6.91 KCAL/MOL
REMARK 924 INTRA-LIGAND FREE ENERGY PREDICTED BY IDOCK:   -0.28 KCAL/MOL
REMARK 927      BINDING AFFINITY PREDICTED BY RF-SCORE:    0.00 PKD
ROOT
HETATM    1  O   UNL     1     -10.248  10.451  68.002  1.00  0.00    -0.158 OA 
HETATM    2  H   UNL     1     -10.638   9.777  67.457  1.00  0.00     0.000 HD 
HETATM    3  C   UNL     1     -10.433  11.754  67.458  1.00  0.00    -0.202 C  
HETATM    4  C   UNL     1      -9.810  12.831  68.327  1.00  0.00    -0.224 C  
HETATM    5  C   UNL     1      -9.715  13.999  67.317  1.00  0.00    -0.237 C  
HETATM    6  O   UNL     1      -8.516  12.377  68.777  1.00  0.00    -0.348 OA 
HETATM    7  O   UNL     1      -9.406  13.379  66.055  1.00  0.00    -0.140 OA 
HETATM    8  C   UNL     1      -9.655  11.959  66.170  1.00  0.00    -0.234 C  
HETATM    9  H   UNL     1      -8.126  13.051  69.322  1.00  0.00     0.000 HD 
ENDROOT
BRANCH   5  10
HETATM   10  O   UNL     1      -8.750  14.915  67.780  1.00  0.00    -0.158 OA 
BRANCH  10  11
HETATM   11  P   UNL     1      -8.939  16.634  67.778  1.00  0.00    -0.215 P  
HETATM   12  O   UNL     1      -9.704  16.559  66.336  1.00  0.00    -0.253 OA 
HETATM   13  O   UNL     1     -10.025  16.507  68.855  1.00  0.00    -0.238 OA 
BRANCH  11  14
HETATM   14  O   UNL     1      -9.128  18.354  67.776  1.00  0.00    -0.271 OA 
HETATM   15  P   UNL     1     -10.127  18.822  66.443  1.00  0.00    -0.415 P  
HETATM   16  O   UNL     1     -11.020  19.241  65.250  1.00  0.00    -0.487 OA 
HETATM   17  O   UNL     1     -11.387  18.616  67.474  1.00  0.00     0.020 OA 
HETATM   18  O   UNL     1      -9.827  20.360  66.943  1.00  0.00    -0.441 OA 
ENDBRANCH  11  14
ENDBRANCH  10  11
ENDBRANCH   5  10
BRANCH   8  19
HETATM   19  C   UNL     1     -10.413  11.453  64.945  1.00  0.00    -0.305 C  
BRANCH  19  20
HETATM   20  O   UNL     1     -10.840  12.595  64.228  1.00  0.00    -0.328 OA 
HETATM   21  P   UNL     1     -12.398  12.805  63.998  1.00  0.00    -0.387 P  
HETATM   22  O   UNL     1     -12.429  14.310  63.468  1.00  0.00    -0.798 OA 
HETATM   23  O   UNL     1     -13.082  11.803  63.143  1.00  0.00    -0.568 OA 
HETATM   24  O   UNL     1     -12.935  13.005  65.486  1.00  0.00    -0.524 OA 
ENDBRANCH  19  20
ENDBRANCH   8  19
TORSDOF 5
ENDMDL
MODEL      105
REMARK 921   NORMALIZED FREE ENERGY PREDICTED BY IDOCK:   -5.00 KCAL/MOL
REMARK 922        TOTAL FREE ENERGY PREDICTED BY IDOCK:   -7.16 KCAL/MOL
REMARK 923 INTER-LIGAND FREE ENERGY PREDICTED BY IDOCK:   -6.20 KCAL/MOL
REMARK 924 INTRA-LIGAND FREE ENERGY PREDICTED BY IDOCK:   -0.97 KCAL/MOL
REMARK 927      BINDING AFFINITY PREDICTED BY RF-SCORE:    0.00 PKD
ROOT
HETATM    1  O   UNL     1     -13.190  10.652  69.495  1.00  0.00    -0.416 OA 
HETATM    2  H   UNL     1     -13.449  11.373  68.933  1.00  0.00     0.000 HD 
HETATM    3  C   UNL     1     -11.786  10.632  69.730  1.00  0.00    -0.310 C  
HETATM    4  C   UNL     1     -11.373   9.479  70.628  1.00  0.00    -0.301 C  
HETATM    5  C   UNL     1      -9.860   9.398  70.317  1.00  0.00    -0.243 C  
HETATM    6  O   UNL     1     -12.089   8.293  70.226  1.00  0.00    -0.434 OA 
HETATM    7  O   UNL     1      -9.748   9.711  68.916  1.00  0.00    -0.154 OA 
HETATM    8  C   UNL     1     -10.995  10.297  68.478  1.00  0.00    -0.247 C  
HETATM    9  H   UNL     1     -11.831   7.572  70.788  1.00  0.00     0.000 HD 
ENDROOT
BRANCH   5  10
HETATM   10  O   UNL     1      -9.395   8.118  70.678  1.00  0.00    -0.152 OA 
BRANCH  10  11
HETATM   11  P   UNL     1      -8.876   6.904  69.561  1.00  0.00    -0.131 P  
HETATM   12  O   UNL     1      -8.109   6.110  70.766  1.00  0.00    -0.119 OA 
HETATM   13  O   UNL     1     -10.306   6.348  69.514  1.00  0.00    -0.183 OA 
BRANCH  11  14
HETATM   14  O   UNL     1      -8.356   5.688  68.445  1.00  0.00    -0.105 OA 
HETATM   15  P   UNL     1      -9.629   5.355  67.321  1.00  0.00    -0.154 P  
HETATM   16  O   UNL     1     -10.768   5.058  66.316  1.00  0.00    -0.312 OA 
HETATM   17  O   UNL     1      -8.979   6.561  66.417  1.00  0.00    -0.140 OA 
HETATM   18  O   UNL     1      -8.610   4.210  66.725  1.00  0.00    -0.107 OA 
ENDBRANCH  11  14
ENDBRANCH  10  11
ENDBRANCH   5  10
BRANCH   8  19
HETATM   19  C   UNL     1     -10.727  11.527  67.614  1.00  0.00    -0.211 C  
BRANCH  19  20
HETATM   20  O   UNL     1     -11.833  11.662  66.740  1.00  0.00    -0.557 OA 
HETATM   21  P   UNL     1     -11.820  12.846  65.680  1.00  0.00    -0.457 P  
HETATM   22  O   UNL     1     -13.039  12.428  64.740  1.00  0.00    -0.806 OA 
HETATM   23  O   UNL     1     -11.868  14.225  66.228  1.00  0.00    -0.380 OA 
HETATM   24  O   UNL     1     -10.583  12.456  64.753  1.00  0.00    -0.278 OA 
ENDBRANCH  19  20
ENDBRANCH   8  19
TORSDOF 5
ENDMDL
MODEL      106
REMARK 921   NORMALIZED FREE ENERGY PREDICTED BY IDOCK:   -5.00 KCAL/MOL
REMARK 922        TOTAL FREE ENERGY PREDICTED BY IDOCK:   -7.16 KCAL/MOL
REMARK 923 INTER-LIGAND FREE ENERGY PREDICTED BY IDOCK:   -6.25 KCAL/MOL
REMARK 924 INTRA-LIGAND FREE ENERGY PREDICTED BY IDOCK:   -0.92 KCAL/MOL
REMARK 927      BINDING AFFINITY PREDICTED BY RF-SCORE:    0.00 PKD
ROOT
HETATM    1  O   UNL     1      -7.972   9.166  67.749  1.00  0.00    -0.100 OA 
HETATM    2  H   UNL     1      -7.638   8.711  68.514  1.00  0.00     0.000 HD 
HETATM    3  C   UNL     1      -9.022  10.070  68.079  1.00  0.00    -0.128 C  
HETATM    4  C   UNL     1      -9.557  10.796  66.858  1.00  0.00    -0.171 C  
HETATM    5  C   UNL     1     -10.926  11.285  67.388  1.00  0.00    -0.282 C  
HETATM    6  O   UNL     1      -9.684   9.853  65.772  1.00  0.00    -0.226 OA 
HETATM    7  O   UNL     1     -11.390  10.232  68.253  1.00  0.00    -0.266 OA 
HETATM    8  C   UNL     1     -10.278   9.353  68.541  1.00  0.00    -0.199 C  
HETATM    9  H   UNL     1     -10.018  10.308  65.008  1.00  0.00     0.000 HD 
ENDROOT
BRANCH   5  10
HETATM   10  O   UNL     1     -11.761  11.560  66.287  1.00  0.00    -0.384 OA 
BRANCH  10  11
HETATM   11  P   UNL     1     -11.725  13.020  65.361  1.00  0.00    -0.414 P  
HETATM   12  O   UNL     1     -10.782  12.296  64.239  1.00  0.00    -0.301 OA 
HETATM   13  O   UNL     1     -13.178  12.774  64.933  1.00  0.00    -0.808 OA 
BRANCH  11  14
HETATM   14  O   UNL     1     -11.688  14.480  64.433  1.00  0.00    -0.404 OA 
HETATM   15  P   UNL     1     -11.068  15.767  65.407  1.00  0.00    -0.103 P  
HETATM   16  O   UNL     1     -10.513  16.920  66.280  1.00  0.00    -0.313 OA 
HETATM   17  O   UNL     1      -9.591  15.304  64.863  1.00  0.00    -0.007 OA 
HETATM   18  O   UNL     1     -11.375  16.715  64.099  1.00  0.00    -1.141 OA 
ENDBRANCH  11  14
ENDBRANCH  10  11
ENDBRANCH   5  10
BRANCH   8  19
HETATM   19  C   UNL     1     -10.242   9.015  70.030  1.00  0.00    -0.203 C  
BRANCH  19  20
HETATM   20  O   UNL     1      -8.919   9.257  70.471  1.00  0.00    -0.214 OA 
HETATM   21  P   UNL     1      -8.291   8.276  71.552  1.00  0.00    -0.165 P  
HETATM   22  O   UNL     1      -6.756   8.707  71.502  1.00  0.00    -0.066 OA 
HETATM   23  O   UNL     1      -8.921   8.281  72.896  1.00  0.00    -0.233 OA 
HETATM   24  O   UNL     1      -8.236   6.892  70.761  1.00  0.00    -0.119 OA 
ENDBRANCH  19  20
ENDBRANCH   8  19
TORSDOF 5
ENDMDL
MODEL      107
REMARK 921   NORMALIZED FREE ENERGY PREDICTED BY IDOCK:   -4.99 KCAL/MOL
REMARK 922        TOTAL FREE ENERGY PREDICTED BY IDOCK:   -7.16 KCAL/MOL
REMARK 923 INTER-LIGAND FREE ENERGY PREDICTED BY IDOCK:   -6.46 KCAL/MOL
REMARK 924 INTRA-LIGAND FREE ENERGY PREDICTED BY IDOCK:   -0.70 KCAL/MOL
REMARK 927      BINDING AFFINITY PREDICTED BY RF-SCORE:    0.00 PKD
ROOT
HETATM    1  O   UNL     1     -12.435   5.610  72.753  1.00  0.00    -0.505 OA 
HETATM    2  H   UNL     1     -11.808   5.033  73.175  1.00  0.00     0.000 HD 
HETATM    3  C   UNL     1     -11.797   6.665  72.040  1.00  0.00    -0.324 C  
HETATM    4  C   UNL     1     -12.797   7.586  71.366  1.00  0.00    -0.342 C  
HETATM    5  C   UNL     1     -11.919   8.836  71.120  1.00  0.00    -0.285 C  
HETATM    6  O   UNL     1     -13.886   7.841  72.278  1.00  0.00    -0.527 OA 
HETATM    7  O   UNL     1     -11.047   8.913  72.263  1.00  0.00    -0.339 OA 
HETATM    8  C   UNL     1     -11.100   7.648  72.964  1.00  0.00    -0.381 C  
HETATM    9  H   UNL     1     -14.512   8.417  71.856  1.00  0.00     0.000 HD 
ENDROOT
BRANCH   5  10
HETATM   10  O   UNL     1     -12.763   9.950  70.943  1.00  0.00    -0.321 OA 
BRANCH  10  11
HETATM   11  P   UNL     1     -12.388  11.329  69.969  1.00  0.00    -0.171 P  
HETATM   12  O   UNL     1     -12.562  12.306  71.267  1.00  0.00    -0.343 OA 
HETATM   13  O   UNL     1     -10.916  10.898  69.942  1.00  0.00    -0.257 OA 
BRANCH  11  14
HETATM   14  O   UNL     1     -12.013  12.710  68.996  1.00  0.00    -0.290 OA 
HETATM   15  P   UNL     1     -10.812  12.282  67.827  1.00  0.00    -0.247 P  
HETATM   16  O   UNL     1      -9.736  11.898  66.782  1.00  0.00    -0.197 OA 
HETATM   17  O   UNL     1     -12.073  11.861  66.865  1.00  0.00    -0.599 OA 
HETATM   18  O   UNL     1     -10.870  13.868  67.397  1.00  0.00    -0.279 OA 
ENDBRANCH  11  14
ENDBRANCH  10  11
ENDBRANCH   5  10
BRANCH   8  19
HETATM   19  C   UNL     1      -9.693   7.193  73.342  1.00  0.00    -0.232 C  
BRANCH  19  20
HETATM   20  O   UNL     1      -8.811   8.235  72.968  1.00  0.00    -0.226 OA 
HETATM   21  P   UNL     1      -7.589   7.886  72.014  1.00  0.00    -0.098 P  
HETATM   22  O   UNL     1      -7.091   9.347  71.608  1.00  0.00    -0.320 OA 
HETATM   23  O   UNL     1      -6.553   6.981  72.570  1.00  0.00    -0.056 OA 
HETATM   24  O   UNL     1      -8.325   7.440  70.672  1.00  0.00    -0.124 OA 
ENDBRANCH  19  20
ENDBRANCH   8  19
TORSDOF 5
ENDMDL
MODEL      108
REMARK 921   NORMALIZED FREE ENERGY PREDICTED BY IDOCK:   -4.98 KCAL/MOL
REMARK 922        TOTAL FREE ENERGY PREDICTED BY IDOCK:   -7.14 KCAL/MOL
REMARK 923 INTER-LIGAND FREE ENERGY PREDICTED BY IDOCK:   -6.14 KCAL/MOL
REMARK 924 INTRA-LIGAND FREE ENERGY PREDICTED BY IDOCK:   -1.00 KCAL/MOL
REMARK 927      BINDING AFFINITY PREDICTED BY RF-SCORE:    0.00 PKD
ROOT
HETATM    1  O   UNL     1      -8.368   8.961  70.859  1.00  0.00    -0.149 OA 
HETATM    2  H   UNL     1      -8.601   8.290  71.491  1.00  0.00     0.000 HD 
HETATM    3  C   UNL     1      -9.502   9.445  70.147  1.00  0.00    -0.240 C  
HETATM    4  C   UNL     1      -9.129  10.516  69.138  1.00  0.00    -0.166 C  
HETATM    5  C   UNL     1     -10.373  10.492  68.218  1.00  0.00    -0.168 C  
HETATM    6  O   UNL     1      -7.923  10.115  68.455  1.00  0.00    -0.098 OA 
HETATM    7  O   UNL     1     -10.771   9.110  68.162  1.00  0.00    -0.206 OA 
HETATM    8  C   UNL     1     -10.096   8.396  69.224  1.00  0.00    -0.202 C  
HETATM    9  H   UNL     1      -7.689  10.785  67.824  1.00  0.00     0.000 HD 
ENDROOT
BRANCH   5  10
HETATM   10  O   UNL     1     -10.024  11.060  66.977  1.00  0.00    -0.183 OA 
BRANCH  10  11
HETATM   11  P   UNL     1     -10.648  12.550  66.361  1.00  0.00    -0.260 P  
HETATM   12  O   UNL     1     -11.575  12.724  67.695  1.00  0.00    -0.315 OA 
HETATM   13  O   UNL     1      -9.306  13.229  66.671  1.00  0.00    -0.251 OA 
BRANCH  11  14
HETATM   14  O   UNL     1     -11.272  14.042  65.746  1.00  0.00    -0.298 OA 
HETATM   15  P   UNL     1     -12.031  13.763  64.217  1.00  0.00    -0.370 P  
HETATM   16  O   UNL     1     -12.709  13.512  62.847  1.00  0.00    -0.569 OA 
HETATM   17  O   UNL     1     -13.393  13.471  65.084  1.00  0.00    -0.655 OA 
HETATM   18  O   UNL     1     -12.262  15.390  64.194  1.00  0.00    -0.598 OA 
ENDBRANCH  11  14
ENDBRANCH  10  11
ENDBRANCH   5  10
BRANCH   8  19
HETATM   19  C   UNL     1     -11.074   7.473  69.946  1.00  0.00    -0.171 C  
BRANCH  19  20
HETATM   20  O   UNL     1     -10.997   7.791  71.323  1.00  0.00    -0.231 OA 
HETATM   21  P   UNL     1     -10.708   6.619  72.356  1.00  0.00    -0.244 P  
HETATM   22  O   UNL     1     -10.389   7.449  73.681  1.00  0.00    -0.351 OA 
HETATM   23  O   UNL     1     -11.755   5.575  72.483  1.00  0.00    -0.272 OA 
HETATM   24  O   UNL     1      -9.241   6.154  71.937  1.00  0.00    -0.148 OA 
ENDBRANCH  19  20
ENDBRANCH   8  19
TORSDOF 5
ENDMDL
MODEL      109
REMARK 921   NORMALIZED FREE ENERGY PREDICTED BY IDOCK:   -4.98 KCAL/MOL
REMARK 922        TOTAL FREE ENERGY PREDICTED BY IDOCK:   -7.14 KCAL/MOL
REMARK 923 INTER-LIGAND FREE ENERGY PREDICTED BY IDOCK:   -7.15 KCAL/MOL
REMARK 924 INTRA-LIGAND FREE ENERGY PREDICTED BY IDOCK:    0.01 KCAL/MOL
REMARK 927      BINDING AFFINITY PREDICTED BY RF-SCORE:    0.00 PKD
ROOT
HETATM    1  O   UNL     1     -12.813  14.334  65.405  1.00  0.00    -0.588 OA 
HETATM    2  H   UNL     1     -13.461  13.850  65.904  1.00  0.00     0.000 HD 
HETATM    3  C   UNL     1     -11.499  14.167  65.928  1.00  0.00    -0.338 C  
HETATM    4  C   UNL     1     -10.463  14.939  65.130  1.00  0.00    -0.417 C  
HETATM    5  C   UNL     1      -9.298  14.993  66.146  1.00  0.00    -0.292 C  
HETATM    6  O   UNL     1     -10.992  16.245  64.819  1.00  0.00    -0.631 OA 
HETATM    7  O   UNL     1      -9.928  15.131  67.433  1.00  0.00    -0.225 OA 
HETATM    8  C   UNL     1     -11.332  14.815  67.290  1.00  0.00    -0.357 C  
HETATM    9  H   UNL     1     -10.345  16.728  64.319  1.00  0.00     0.000 HD 
ENDROOT
BRANCH   5  10
HETATM   10  O   UNL     1      -8.440  16.053  65.789  1.00  0.00    -0.096 OA 
BRANCH  10  11
HETATM   11  P   UNL     1      -7.982  17.350  66.837  1.00  0.00    -0.266 P  
HETATM   12  O   UNL     1      -6.445  17.263  66.288  1.00  0.00    -0.224 OA 
HETATM   13  O   UNL     1      -8.717  18.338  65.921  1.00  0.00    -0.500 OA 
BRANCH  11  14
HETATM   14  O   UNL     1      -7.522  18.648  67.885  1.00  0.00    -0.232 OA 
HETATM   15  P   UNL     1      -6.517  19.758  67.020  1.00  0.00    -0.195 P  
HETATM   16  O   UNL     1      -5.616  20.752  66.246  1.00  0.00    -0.176 OA 
HETATM   17  O   UNL     1      -7.916  20.504  66.597  1.00  0.00    -0.236 OA 
HETATM   18  O   UNL     1      -6.401  20.550  68.456  1.00  0.00    -0.306 OA 
ENDBRANCH  11  14
ENDBRANCH  10  11
ENDBRANCH   5  10
BRANCH   8  19
HETATM   19  C   UNL     1     -11.788  13.904  68.428  1.00  0.00    -0.374 C  
BRANCH  19  20
HETATM   20  O   UNL     1     -12.657  14.670  69.241  1.00  0.00    -0.089 OA 
HETATM   21  P   UNL     1     -12.503  14.566  70.820  1.00  0.00    -0.398 P  
HETATM   22  O   UNL     1     -13.412  15.788  71.297  1.00  0.00    -0.555 OA 
HETATM   23  O   UNL     1     -12.817  13.250  71.430  1.00  0.00    -0.357 OA 
HETATM   24  O   UNL     1     -11.047  15.169  71.058  1.00  0.00    -0.304 OA 
ENDBRANCH  19  20
ENDBRANCH   8  19
TORSDOF 5
ENDMDL
MODEL      110
REMARK 921   NORMALIZED FREE ENERGY PREDICTED BY IDOCK:   -4.97 KCAL/MOL
REMARK 922        TOTAL FREE ENERGY PREDICTED BY IDOCK:   -7.13 KCAL/MOL
REMARK 923 INTER-LIGAND FREE ENERGY PREDICTED BY IDOCK:   -6.48 KCAL/MOL
REMARK 924 INTRA-LIGAND FREE ENERGY PREDICTED BY IDOCK:   -0.65 KCAL/MOL
REMARK 927      BINDING AFFINITY PREDICTED BY RF-SCORE:    0.00 PKD
ROOT
HETATM    1  O   UNL     1     -11.130  13.752  65.565  1.00  0.00    -0.293 OA 
HETATM    2  H   UNL     1     -11.575  14.591  65.601  1.00  0.00     0.000 HD 
HETATM    3  C   UNL     1     -11.602  12.852  66.563  1.00  0.00    -0.371 C  
HETATM    4  C   UNL     1     -10.891  11.511  66.505  1.00  0.00    -0.288 C  
HETATM    5  C   UNL     1     -11.205  10.957  67.915  1.00  0.00    -0.321 C  
HETATM    6  O   UNL     1      -9.482  11.738  66.296  1.00  0.00    -0.214 OA 
HETATM    7  O   UNL     1     -11.181  12.105  68.783  1.00  0.00    -0.228 OA 
HETATM    8  C   UNL     1     -11.228  13.297  67.965  1.00  0.00    -0.276 C  
HETATM    9  H   UNL     1      -9.038  10.899  66.260  1.00  0.00     0.000 HD 
ENDROOT
BRANCH   5  10
HETATM   10  O   UNL     1     -10.261   9.959  68.226  1.00  0.00    -0.162 OA 
BRANCH  10  11
HETATM   11  P   UNL     1     -10.232   9.048  69.695  1.00  0.00    -0.222 P  
HETATM   12  O   UNL     1     -10.083   7.661  68.845  1.00  0.00    -0.186 OA 
HETATM   13  O   UNL     1      -8.806   9.548  69.967  1.00  0.00    -0.186 OA 
BRANCH  11  14
HETATM   14  O   UNL     1     -10.203   8.136  71.165  1.00  0.00    -0.191 OA 
HETATM   15  P   UNL     1     -11.630   8.473  72.082  1.00  0.00    -0.359 P  
HETATM   16  O   UNL     1     -12.908   8.776  72.902  1.00  0.00    -0.313 OA 
HETATM   17  O   UNL     1     -12.311   7.235  71.247  1.00  0.00    -0.336 OA 
HETATM   18  O   UNL     1     -10.963   7.487  73.216  1.00  0.00    -0.393 OA 
ENDBRANCH  11  14
ENDBRANCH  10  11
ENDBRANCH   5  10
BRANCH   8  19
HETATM   19  C   UNL     1     -12.227  14.297  68.543  1.00  0.00    -0.159 C  
BRANCH  19  20
HETATM   20  O   UNL     1     -11.656  14.803  69.735  1.00  0.00    -0.265 OA 
HETATM   21  P   UNL     1     -12.558  14.856  71.043  1.00  0.00    -0.409 P  
HETATM   22  O   UNL     1     -11.460  15.164  72.159  1.00  0.00    -0.420 OA 
HETATM   23  O   UNL     1     -13.721  15.778  71.008  1.00  0.00    -0.539 OA 
HETATM   24  O   UNL     1     -12.840  13.312  71.322  1.00  0.00    -0.353 OA 
ENDBRANCH  19  20
ENDBRANCH   8  19
TORSDOF 5
ENDMDL
MODEL      111
REMARK 921   NORMALIZED FREE ENERGY PREDICTED BY IDOCK:   -4.97 KCAL/MOL
REMARK 922        TOTAL FREE ENERGY PREDICTED BY IDOCK:   -7.12 KCAL/MOL
REMARK 923 INTER-LIGAND FREE ENERGY PREDICTED BY IDOCK:   -7.00 KCAL/MOL
REMARK 924 INTRA-LIGAND FREE ENERGY PREDICTED BY IDOCK:   -0.13 KCAL/MOL
REMARK 927      BINDING AFFINITY PREDICTED BY RF-SCORE:    0.00 PKD
ROOT
HETATM    1  O   UNL     1     -12.405  10.778  68.400  1.00  0.00    -0.813 OA 
HETATM    2  H   UNL     1     -12.337   9.837  68.518  1.00  0.00     0.000 HD 
HETATM    3  C   UNL     1     -11.241  11.327  67.789  1.00  0.00    -0.291 C  
HETATM    4  C   UNL     1     -11.349  12.829  67.601  1.00  0.00    -0.310 C  
HETATM    5  C   UNL     1      -9.860  13.205  67.412  1.00  0.00    -0.226 C  
HETATM    6  O   UNL     1     -11.924  13.409  68.790  1.00  0.00    -0.335 OA 
HETATM    7  O   UNL     1      -9.137  12.321  68.287  1.00  0.00    -0.194 OA 
HETATM    8  C   UNL     1     -10.024  11.253  68.694  1.00  0.00    -0.204 C  
HETATM    9  H   UNL     1     -11.992  14.350  68.672  1.00  0.00     0.000 HD 
ENDROOT
BRANCH   5  10
HETATM   10  O   UNL     1      -9.704  14.576  67.693  1.00  0.00    -0.211 OA 
BRANCH  10  11
HETATM   11  P   UNL     1     -10.121  15.861  66.612  1.00  0.00    -0.305 P  
HETATM   12  O   UNL     1     -10.351  16.866  67.880  1.00  0.00    -0.304 OA 
HETATM   13  O   UNL     1      -8.645  15.992  66.214  1.00  0.00    -0.308 OA 
BRANCH  11  14
HETATM   14  O   UNL     1     -10.538  17.146  65.532  1.00  0.00    -0.563 OA 
HETATM   15  P   UNL     1     -10.413  18.659  66.361  1.00  0.00    -0.303 P  
HETATM   16  O   UNL     1     -10.302  20.014  67.104  1.00  0.00    -0.425 OA 
HETATM   17  O   UNL     1      -8.848  18.661  65.867  1.00  0.00    -0.475 OA 
HETATM   18  O   UNL     1     -10.971  19.312  64.958  1.00  0.00    -0.370 OA 
ENDBRANCH  11  14
ENDBRANCH  10  11
ENDBRANCH   5  10
BRANCH   8  19
HETATM   19  C   UNL     1      -9.310   9.906  68.600  1.00  0.00    -0.149 C  
BRANCH  19  20
HETATM   20  O   UNL     1      -9.046   9.490  69.927  1.00  0.00    -0.182 OA 
HETATM   21  P   UNL     1     -10.237   8.871  70.777  1.00  0.00    -0.272 P  
HETATM   22  O   UNL     1      -9.443   8.267  72.022  1.00  0.00    -0.187 OA 
HETATM   23  O   UNL     1     -11.360   9.784  71.107  1.00  0.00    -0.344 OA 
HETATM   24  O   UNL     1     -10.574   7.540  69.966  1.00  0.00    -0.226 OA 
ENDBRANCH  19  20
ENDBRANCH   8  19
TORSDOF 5
ENDMDL
MODEL      112
REMARK 921   NORMALIZED FREE ENERGY PREDICTED BY IDOCK:   -4.96 KCAL/MOL
REMARK 922        TOTAL FREE ENERGY PREDICTED BY IDOCK:   -7.11 KCAL/MOL
REMARK 923 INTER-LIGAND FREE ENERGY PREDICTED BY IDOCK:   -6.00 KCAL/MOL
REMARK 924 INTRA-LIGAND FREE ENERGY PREDICTED BY IDOCK:   -1.12 KCAL/MOL
REMARK 927      BINDING AFFINITY PREDICTED BY RF-SCORE:    0.00 PKD
ROOT
HETATM    1  O   UNL     1      -7.873  11.954  67.321  1.00  0.00    -0.151 OA 
HETATM    2  H   UNL     1      -8.036  12.486  66.551  1.00  0.00     0.000 HD 
HETATM    3  C   UNL     1      -8.530  10.693  67.251  1.00  0.00    -0.126 C  
HETATM    4  C   UNL     1      -8.269   9.843  68.482  1.00  0.00    -0.106 C  
HETATM    5  C   UNL     1      -9.430   8.825  68.382  1.00  0.00    -0.141 C  
HETATM    6  O   UNL     1      -8.360  10.679  69.655  1.00  0.00    -0.370 OA 
HETATM    7  O   UNL     1     -10.541   9.575  67.858  1.00  0.00    -0.231 OA 
HETATM    8  C   UNL     1     -10.041  10.823  67.326  1.00  0.00    -0.196 C  
HETATM    9  H   UNL     1      -8.197  10.147  70.425  1.00  0.00     0.000 HD 
ENDROOT
BRANCH   5  10
HETATM   10  O   UNL     1      -9.643   8.261  69.655  1.00  0.00    -0.166 OA 
BRANCH  10  11
HETATM   11  P   UNL     1     -11.132   8.332  70.532  1.00  0.00    -0.194 P  
HETATM   12  O   UNL     1     -10.771   6.926  71.280  1.00  0.00    -0.220 OA 
HETATM   13  O   UNL     1     -10.552   9.453  71.406  1.00  0.00    -0.331 OA 
BRANCH  11  14
HETATM   14  O   UNL     1     -12.621   8.404  71.410  1.00  0.00    -0.307 OA 
HETATM   15  P   UNL     1     -12.984  10.050  71.798  1.00  0.00    -0.455 P  
HETATM   16  O   UNL     1     -13.307  11.524  72.146  1.00  0.00    -0.477 OA 
HETATM   17  O   UNL     1     -13.755  10.093  70.350  1.00  0.00     0.101 OA 
HETATM   18  O   UNL     1     -14.280   9.428  72.595  1.00  0.00    -0.432 OA 
ENDBRANCH  11  14
ENDBRANCH  10  11
ENDBRANCH   5  10
BRANCH   8  19
HETATM   19  C   UNL     1     -10.668  11.108  65.963  1.00  0.00    -0.211 C  
BRANCH  19  20
HETATM   20  O   UNL     1     -10.280  12.421  65.601  1.00  0.00    -0.253 OA 
HETATM   21  P   UNL     1     -11.228  13.249  64.631  1.00  0.00    -0.388 P  
HETATM   22  O   UNL     1     -10.598  14.709  64.761  1.00  0.00    -0.421 OA 
HETATM   23  O   UNL     1     -11.376  12.729  63.249  1.00  0.00    -0.446 OA 
HETATM   24  O   UNL     1     -12.548  13.416  65.509  1.00  0.00    -0.475 OA 
ENDBRANCH  19  20
ENDBRANCH   8  19
TORSDOF 5
ENDMDL
MODEL      113
REMARK 921   NORMALIZED FREE ENERGY PREDICTED BY IDOCK:   -4.96 KCAL/MOL
REMARK 922        TOTAL FREE ENERGY PREDICTED BY IDOCK:   -7.11 KCAL/MOL
REMARK 923 INTER-LIGAND FREE ENERGY PREDICTED BY IDOCK:   -6.50 KCAL/MOL
REMARK 924 INTRA-LIGAND FREE ENERGY PREDICTED BY IDOCK:   -0.61 KCAL/MOL
REMARK 927      BINDING AFFINITY PREDICTED BY RF-SCORE:    0.00 PKD
ROOT
HETATM    1  O   UNL     1      -8.046  12.640  66.744  1.00  0.00    -0.386 OA 
HETATM    2  H   UNL     1      -8.354  13.066  65.953  1.00  0.00     0.000 HD 
HETATM    3  C   UNL     1      -8.834  11.502  67.082  1.00  0.00    -0.168 C  
HETATM    4  C   UNL     1      -8.342  10.821  68.346  1.00  0.00    -0.132 C  
HETATM    5  C   UNL     1      -9.592   9.996  68.735  1.00  0.00    -0.168 C  
HETATM    6  O   UNL     1      -8.015  11.831  69.324  1.00  0.00    -0.347 OA 
HETATM    7  O   UNL     1     -10.714  10.822  68.373  1.00  0.00    -0.189 OA 
HETATM    8  C   UNL     1     -10.242  11.879  67.506  1.00  0.00    -0.196 C  
HETATM    9  H   UNL     1      -7.707  11.405  70.115  1.00  0.00     0.000 HD 
ENDROOT
BRANCH   5  10
HETATM   10  O   UNL     1      -9.509   9.675  70.104  1.00  0.00    -0.229 OA 
BRANCH  10  11
HETATM   11  P   UNL     1     -10.405   8.415  70.879  1.00  0.00    -0.212 P  
HETATM   12  O   UNL     1     -11.523   9.500  71.373  1.00  0.00    -0.342 OA 
HETATM   13  O   UNL     1     -10.865   7.909  69.505  1.00  0.00    -0.221 OA 
BRANCH  11  14
HETATM   14  O   UNL     1     -11.302   7.155  71.655  1.00  0.00    -0.240 OA 
HETATM   15  P   UNL     1     -10.282   6.331  72.782  1.00  0.00    -0.203 P  
HETATM   16  O   UNL     1      -9.367   5.593  73.791  1.00  0.00    -0.136 OA 
HETATM   17  O   UNL     1     -10.784   7.452  73.870  1.00  0.00    -0.319 OA 
HETATM   18  O   UNL     1     -11.580   5.352  73.025  1.00  0.00    -0.296 OA 
ENDBRANCH  11  14
ENDBRANCH  10  11
ENDBRANCH   5  10
BRANCH   8  19
HETATM   19  C   UNL     1     -11.183  12.047  66.315  1.00  0.00    -0.342 C  
BRANCH  19  20
HETATM   20  O   UNL     1     -10.917  13.322  65.759  1.00  0.00    -0.271 OA 
HETATM   21  P   UNL     1     -11.842  13.840  64.576  1.00  0.00    -0.439 P  
HETATM   22  O   UNL     1     -11.410  15.374  64.498  1.00  0.00    -0.385 OA 
HETATM   23  O   UNL     1     -11.772  13.082  63.301  1.00  0.00    -0.497 OA 
HETATM   24  O   UNL     1     -13.263  13.967  65.289  1.00  0.00    -0.782 OA 
ENDBRANCH  19  20
ENDBRANCH   8  19
TORSDOF 5
ENDMDL
MODEL      114
REMARK 921   NORMALIZED FREE ENERGY PREDICTED BY IDOCK:   -4.95 KCAL/MOL
REMARK 922        TOTAL FREE ENERGY PREDICTED BY IDOCK:   -7.11 KCAL/MOL
REMARK 923 INTER-LIGAND FREE ENERGY PREDICTED BY IDOCK:   -6.67 KCAL/MOL
REMARK 924 INTRA-LIGAND FREE ENERGY PREDICTED BY IDOCK:   -0.44 KCAL/MOL
REMARK 927      BINDING AFFINITY PREDICTED BY RF-SCORE:    0.00 PKD
ROOT
HETATM    1  O   UNL     1      -8.017  15.885  69.074  1.00  0.00    -0.193 OA 
HETATM    2  H   UNL     1      -7.700  16.738  69.346  1.00  0.00     0.000 HD 
HETATM    3  C   UNL     1      -9.144  15.983  68.208  1.00  0.00    -0.191 C  
HETATM    4  C   UNL     1      -9.652  14.620  67.774  1.00  0.00    -0.213 C  
HETATM    5  C   UNL     1     -11.080  14.981  67.301  1.00  0.00    -0.334 C  
HETATM    6  O   UNL     1      -9.649  13.735  68.914  1.00  0.00    -0.398 OA 
HETATM    7  O   UNL     1     -11.523  16.012  68.201  1.00  0.00    -0.338 OA 
HETATM    8  C   UNL     1     -10.374  16.518  68.919  1.00  0.00    -0.292 C  
HETATM    9  H   UNL     1      -9.966  12.882  68.642  1.00  0.00     0.000 HD 
ENDROOT
BRANCH   5  10
HETATM   10  O   UNL     1     -11.864  13.810  67.307  1.00  0.00    -0.360 OA 
BRANCH  10  11
HETATM   11  P   UNL     1     -11.330  12.260  66.757  1.00  0.00    -0.352 P  
HETATM   12  O   UNL     1     -11.989  11.555  68.075  1.00  0.00    -0.595 OA 
HETATM   13  O   UNL     1     -12.422  12.276  65.679  1.00  0.00    -0.591 OA 
BRANCH  11  14
HETATM   14  O   UNL     1     -10.796  10.709  66.208  1.00  0.00    -0.150 OA 
HETATM   15  P   UNL     1      -9.067  10.666  66.191  1.00  0.00    -0.184 P  
HETATM   16  O   UNL     1      -7.519  10.629  66.176  1.00  0.00    -0.130 OA 
HETATM   17  O   UNL     1      -9.187  10.151  67.745  1.00  0.00    -0.137 OA 
HETATM   18  O   UNL     1      -9.252   9.159  65.561  1.00  0.00    -0.216 OA 
ENDBRANCH  11  14
ENDBRANCH  10  11
ENDBRANCH   5  10
BRANCH   8  19
HETATM   19  C   UNL     1     -10.404  18.044  68.961  1.00  0.00    -0.157 C  
BRANCH  19  20
HETATM   20  O   UNL     1      -9.242  18.494  68.291  1.00  0.00    -0.302 OA 
HETATM   21  P   UNL     1      -9.417  19.324  66.947  1.00  0.00    -0.366 P  
HETATM   22  O   UNL     1      -7.936  19.881  66.736  1.00  0.00    -0.286 OA 
HETATM   23  O   UNL     1     -10.006  18.599  65.794  1.00  0.00    -0.504 OA 
HETATM   24  O   UNL     1     -10.159  20.640  67.457  1.00  0.00    -0.380 OA 
ENDBRANCH  19  20
ENDBRANCH   8  19
TORSDOF 5
ENDMDL
MODEL      115
REMARK 921   NORMALIZED FREE ENERGY PREDICTED BY IDOCK:   -4.94 KCAL/MOL
REMARK 922        TOTAL FREE ENERGY PREDICTED BY IDOCK:   -7.09 KCAL/MOL
REMARK 923 INTER-LIGAND FREE ENERGY PREDICTED BY IDOCK:   -6.56 KCAL/MOL
REMARK 924 INTRA-LIGAND FREE ENERGY PREDICTED BY IDOCK:   -0.53 KCAL/MOL
REMARK 927      BINDING AFFINITY PREDICTED BY RF-SCORE:    0.00 PKD
ROOT
HETATM    1  O   UNL     1      -9.836  13.026  64.118  1.00  0.00    -0.663 OA 
HETATM    2  H   UNL     1      -9.856  13.797  63.562  1.00  0.00     0.000 HD 
HETATM    3  C   UNL     1     -10.431  13.267  65.389  1.00  0.00    -0.297 C  
HETATM    4  C   UNL     1     -10.400  12.035  66.277  1.00  0.00    -0.221 C  
HETATM    5  C   UNL     1     -10.621  12.676  67.668  1.00  0.00    -0.218 C  
HETATM    6  O   UNL     1      -9.109  11.403  66.154  1.00  0.00    -0.199 OA 
HETATM    7  O   UNL     1      -9.923  13.934  67.617  1.00  0.00    -0.230 OA 
HETATM    8  C   UNL     1      -9.619  14.232  66.234  1.00  0.00    -0.288 C  
HETATM    9  H   UNL     1      -9.089  10.633  66.709  1.00  0.00     0.000 HD 
ENDROOT
BRANCH   5  10
HETATM   10  O   UNL     1     -10.160  11.781  68.653  1.00  0.00    -0.216 OA 
BRANCH  10  11
HETATM   11  P   UNL     1     -11.176  10.832  69.681  1.00  0.00    -0.311 P  
HETATM   12  O   UNL     1     -12.484  11.259  68.798  1.00  0.00    -0.444 OA 
HETATM   13  O   UNL     1     -10.617   9.555  69.040  1.00  0.00    -0.215 OA 
BRANCH  11  14
HETATM   14  O   UNL     1     -12.194   9.883  70.708  1.00  0.00    -0.293 OA 
HETATM   15  P   UNL     1     -11.509   8.307  70.902  1.00  0.00    -0.219 P  
HETATM   16  O   UNL     1     -10.895   6.895  71.075  1.00  0.00    -0.231 OA 
HETATM   17  O   UNL     1     -10.702   8.949  72.179  1.00  0.00    -0.342 OA 
HETATM   18  O   UNL     1     -12.861   7.982  71.779  1.00  0.00    -0.318 OA 
ENDBRANCH  11  14
ENDBRANCH  10  11
ENDBRANCH   5  10
BRANCH   8  19
HETATM   19  C   UNL     1      -9.943  15.691  65.923  1.00  0.00    -0.351 C  
BRANCH  19  20
HETATM   20  O   UNL     1      -9.402  16.464  66.979  1.00  0.00    -0.220 OA 
HETATM   21  P   UNL     1      -7.941  17.064  66.806  1.00  0.00    -0.297 P  
HETATM   22  O   UNL     1      -7.883  18.085  68.030  1.00  0.00    -0.242 OA 
HETATM   23  O   UNL     1      -6.829  16.084  66.727  1.00  0.00    -0.241 OA 
HETATM   24  O   UNL     1      -8.132  18.073  65.586  1.00  0.00    -0.500 OA 
ENDBRANCH  19  20
ENDBRANCH   8  19
TORSDOF 5
ENDMDL
MODEL      116
REMARK 921   NORMALIZED FREE ENERGY PREDICTED BY IDOCK:   -4.93 KCAL/MOL
REMARK 922        TOTAL FREE ENERGY PREDICTED BY IDOCK:   -7.07 KCAL/MOL
REMARK 923 INTER-LIGAND FREE ENERGY PREDICTED BY IDOCK:   -6.54 KCAL/MOL
REMARK 924 INTRA-LIGAND FREE ENERGY PREDICTED BY IDOCK:   -0.54 KCAL/MOL
REMARK 927      BINDING AFFINITY PREDICTED BY RF-SCORE:    0.00 PKD
ROOT
HETATM    1  O   UNL     1     -12.996  11.181  71.413  1.00  0.00    -0.408 OA 
HETATM    2  H   UNL     1     -13.210  10.443  71.972  1.00  0.00     0.000 HD 
HETATM    3  C   UNL     1     -12.503  10.766  70.143  1.00  0.00    -0.285 C  
HETATM    4  C   UNL     1     -12.160  11.945  69.249  1.00  0.00    -0.210 C  
HETATM    5  C   UNL     1     -11.234  11.263  68.214  1.00  0.00    -0.267 C  
HETATM    6  O   UNL     1     -11.478  12.943  70.035  1.00  0.00    -0.506 OA 
HETATM    7  O   UNL     1     -10.494  10.281  68.962  1.00  0.00    -0.191 OA 
HETATM    8  C   UNL     1     -11.144  10.095  70.241  1.00  0.00    -0.317 C  
HETATM    9  H   UNL     1     -11.263  13.681  69.476  1.00  0.00     0.000 HD 
ENDROOT
BRANCH   5  10
HETATM   10  O   UNL     1     -10.448  12.254  67.595  1.00  0.00    -0.209 OA 
BRANCH  10  11
HETATM   11  P   UNL     1     -10.972  13.260  66.290  1.00  0.00    -0.291 P  
HETATM   12  O   UNL     1     -12.304  12.334  66.098  1.00  0.00    -0.588 OA 
HETATM   13  O   UNL     1     -11.345  14.357  67.297  1.00  0.00    -0.313 OA 
BRANCH  11  14
HETATM   14  O   UNL     1     -11.498  14.267  64.984  1.00  0.00    -0.333 OA 
HETATM   15  P   UNL     1     -11.091  15.913  65.325  1.00  0.00    -0.120 P  
HETATM   16  O   UNL     1     -10.727  17.387  65.632  1.00  0.00    -0.458 OA 
HETATM   17  O   UNL     1      -9.663  15.584  64.587  1.00  0.00     0.084 OA 
HETATM   18  O   UNL     1     -11.868  16.248  63.916  1.00  0.00    -0.994 OA 
ENDBRANCH  11  14
ENDBRANCH  10  11
ENDBRANCH   5  10
BRANCH   8  19
HETATM   19  C   UNL     1     -11.253   8.607  70.568  1.00  0.00    -0.241 C  
BRANCH  19  20
HETATM   20  O   UNL     1     -10.451   7.921  69.624  1.00  0.00    -0.219 OA 
HETATM   21  P   UNL     1      -9.548   6.717  70.132  1.00  0.00    -0.159 P  
HETATM   22  O   UNL     1      -9.102   6.063  68.746  1.00  0.00    -0.124 OA 
HETATM   23  O   UNL     1      -8.449   7.062  71.068  1.00  0.00    -0.130 OA 
HETATM   24  O   UNL     1     -10.638   5.660  70.621  1.00  0.00    -0.256 OA 
ENDBRANCH  19  20
ENDBRANCH   8  19
TORSDOF 5
ENDMDL
MODEL      117
REMARK 921   NORMALIZED FREE ENERGY PREDICTED BY IDOCK:   -4.92 KCAL/MOL
REMARK 922        TOTAL FREE ENERGY PREDICTED BY IDOCK:   -7.06 KCAL/MOL
REMARK 923 INTER-LIGAND FREE ENERGY PREDICTED BY IDOCK:   -6.40 KCAL/MOL
REMARK 924 INTRA-LIGAND FREE ENERGY PREDICTED BY IDOCK:   -0.67 KCAL/MOL
REMARK 927      BINDING AFFINITY PREDICTED BY RF-SCORE:    0.00 PKD
ROOT
HETATM    1  O   UNL     1      -9.780   9.644  68.291  1.00  0.00    -0.143 OA 
HETATM    2  H   UNL     1     -10.127   8.977  68.871  1.00  0.00     0.000 HD 
HETATM    3  C   UNL     1     -10.050  10.960  68.764  1.00  0.00    -0.194 C  
HETATM    4  C   UNL     1      -9.496  12.027  67.836  1.00  0.00    -0.196 C  
HETATM    5  C   UNL     1     -10.320  13.257  68.285  1.00  0.00    -0.249 C  
HETATM    6  O   UNL     1      -9.764  11.644  66.471  1.00  0.00    -0.197 OA 
HETATM    7  O   UNL     1     -11.624  12.739  68.604  1.00  0.00    -0.270 OA 
HETATM    8  C   UNL     1     -11.529  11.299  68.715  1.00  0.00    -0.293 C  
HETATM    9  H   UNL     1      -9.417  12.311  65.891  1.00  0.00     0.000 HD 
ENDROOT
BRANCH   5  10
HETATM   10  O   UNL     1     -10.298  14.213  67.251  1.00  0.00    -0.264 OA 
BRANCH  10  11
HETATM   11  P   UNL     1     -10.584  15.905  67.462  1.00  0.00    -0.306 P  
HETATM   12  O   UNL     1     -10.935  16.055  65.874  1.00  0.00    -0.242 OA 
HETATM   13  O   UNL     1     -11.906  15.584  68.173  1.00  0.00    -0.301 OA 
BRANCH  11  14
HETATM   14  O   UNL     1     -10.870  17.599  67.674  1.00  0.00    -0.350 OA 
HETATM   15  P   UNL     1      -9.438  18.354  68.281  1.00  0.00    -0.350 P  
HETATM   16  O   UNL     1      -8.155  19.031  68.825  1.00  0.00    -0.350 OA 
HETATM   17  O   UNL     1      -9.022  18.552  66.705  1.00  0.00    -0.275 OA 
HETATM   18  O   UNL     1     -10.350  19.722  68.325  1.00  0.00    -0.435 OA 
ENDBRANCH  11  14
ENDBRANCH  10  11
ENDBRANCH   5  10
BRANCH   8  19
HETATM   19  C   UNL     1     -12.279  10.813  69.953  1.00  0.00    -0.313 C  
BRANCH  19  20
HETATM   20  O   UNL     1     -11.303  10.343  70.864  1.00  0.00    -0.335 OA 
HETATM   21  P   UNL     1     -11.549   8.949  71.584  1.00  0.00    -0.387 P  
HETATM   22  O   UNL     1     -10.114   8.678  72.227  1.00  0.00    -0.311 OA 
HETATM   23  O   UNL     1     -12.700   8.881  72.519  1.00  0.00    -0.390 OA 
HETATM   24  O   UNL     1     -11.523   7.927  70.360  1.00  0.00    -0.246 OA 
ENDBRANCH  19  20
ENDBRANCH   8  19
TORSDOF 5
ENDMDL
MODEL      118
REMARK 921   NORMALIZED FREE ENERGY PREDICTED BY IDOCK:   -4.90 KCAL/MOL
REMARK 922        TOTAL FREE ENERGY PREDICTED BY IDOCK:   -7.04 KCAL/MOL
REMARK 923 INTER-LIGAND FREE ENERGY PREDICTED BY IDOCK:   -6.59 KCAL/MOL
REMARK 924 INTRA-LIGAND FREE ENERGY PREDICTED BY IDOCK:   -0.44 KCAL/MOL
REMARK 927      BINDING AFFINITY PREDICTED BY RF-SCORE:    0.00 PKD
ROOT
HETATM    1  O   UNL     1      -9.448  10.655  65.143  1.00  0.00    -0.194 OA 
HETATM    2  H   UNL     1      -9.764  11.431  64.694  1.00  0.00     0.000 HD 
HETATM    3  C   UNL     1     -10.299  10.274  66.219  1.00  0.00    -0.186 C  
HETATM    4  C   UNL     1      -9.793   9.036  66.937  1.00  0.00    -0.224 C  
HETATM    5  C   UNL     1     -10.562   9.144  68.276  1.00  0.00    -0.174 C  
HETATM    6  O   UNL     1      -8.364   9.144  67.105  1.00  0.00    -0.115 OA 
HETATM    7  O   UNL     1     -10.623  10.553  68.561  1.00  0.00    -0.182 OA 
HETATM    8  C   UNL     1     -10.274  11.278  67.358  1.00  0.00    -0.188 C  
HETATM    9  H   UNL     1      -8.048   8.369  67.554  1.00  0.00     0.000 HD 
ENDROOT
BRANCH   5  10
HETATM   10  O   UNL     1      -9.889   8.372  69.243  1.00  0.00    -0.178 OA 
BRANCH  10  11
HETATM   11  P   UNL     1     -10.660   7.317  70.376  1.00  0.00    -0.236 P  
HETATM   12  O   UNL     1      -9.247   7.126  71.174  1.00  0.00    -0.156 OA 
HETATM   13  O   UNL     1     -11.360   8.526  71.012  1.00  0.00    -0.259 OA 
BRANCH  11  14
HETATM   14  O   UNL     1     -11.430   6.261  71.511  1.00  0.00    -0.287 OA 
HETATM   15  P   UNL     1     -10.324   5.878  72.784  1.00  0.00    -0.219 P  
HETATM   16  O   UNL     1      -9.333   5.535  73.924  1.00  0.00    -0.132 OA 
HETATM   17  O   UNL     1     -10.909   7.218  73.529  1.00  0.00    -0.375 OA 
HETATM   18  O   UNL     1     -11.527   4.907  73.344  1.00  0.00    -0.336 OA 
ENDBRANCH  11  14
ENDBRANCH  10  11
ENDBRANCH   5  10
BRANCH   8  19
HETATM   19  C   UNL     1     -11.247  12.434  67.136  1.00  0.00    -0.298 C  
BRANCH  19  20
HETATM   20  O   UNL     1     -12.099  12.052  66.072  1.00  0.00    -0.561 OA 
HETATM   21  P   UNL     1     -12.332  13.081  64.883  1.00  0.00    -0.438 P  
HETATM   22  O   UNL     1     -13.051  12.147  63.807  1.00  0.00    -0.774 OA 
HETATM   23  O   UNL     1     -13.042  14.339  65.226  1.00  0.00    -0.707 OA 
HETATM   24  O   UNL     1     -10.875  13.198  64.247  1.00  0.00    -0.374 OA 
ENDBRANCH  19  20
ENDBRANCH   8  19
TORSDOF 5
ENDMDL
MODEL      119
REMARK 921   NORMALIZED FREE ENERGY PREDICTED BY IDOCK:   -4.87 KCAL/MOL
REMARK 922        TOTAL FREE ENERGY PREDICTED BY IDOCK:   -7.00 KCAL/MOL
REMARK 923 INTER-LIGAND FREE ENERGY PREDICTED BY IDOCK:   -6.21 KCAL/MOL
REMARK 924 INTRA-LIGAND FREE ENERGY PREDICTED BY IDOCK:   -0.80 KCAL/MOL
REMARK 927      BINDING AFFINITY PREDICTED BY RF-SCORE:    0.00 PKD
ROOT
HETATM    1  O   UNL     1      -8.157  15.272  66.494  1.00  0.00    -0.346 OA 
HETATM    2  H   UNL     1      -7.961  16.128  66.131  1.00  0.00     0.000 HD 
HETATM    3  C   UNL     1      -9.543  14.958  66.411  1.00  0.00    -0.293 C  
HETATM    4  C   UNL     1      -9.856  13.591  66.992  1.00  0.00    -0.251 C  
HETATM    5  C   UNL     1     -11.380  13.718  67.227  1.00  0.00    -0.321 C  
HETATM    6  O   UNL     1      -9.114  13.424  68.218  1.00  0.00    -0.189 OA 
HETATM    7  O   UNL     1     -11.584  15.084  67.629  1.00  0.00    -0.339 OA 
HETATM    8  C   UNL     1     -10.390  15.837  67.315  1.00  0.00    -0.290 C  
HETATM    9  H   UNL     1      -9.310  12.568  68.582  1.00  0.00     0.000 HD 
ENDROOT
BRANCH   5  10
HETATM   10  O   UNL     1     -11.768  12.755  68.179  1.00  0.00    -0.312 OA 
BRANCH  10  11
HETATM   11  P   UNL     1     -12.481  13.113  69.713  1.00  0.00     0.305 P  
HETATM   12  O   UNL     1     -12.493  11.523  70.090  1.00  0.00    -0.240 OA 
HETATM   13  O   UNL     1     -11.135  13.666  70.199  1.00  0.00     0.083 OA 
BRANCH  11  14
HETATM   14  O   UNL     1     -13.195  13.471  71.248  1.00  0.00    -0.300 OA 
HETATM   15  P   UNL     1     -12.314  14.750  72.009  1.00  0.00    -0.297 P  
HETATM   16  O   UNL     1     -11.524  15.896  72.690  1.00  0.00    -0.352 OA 
HETATM   17  O   UNL     1     -13.340  15.760  71.220  1.00  0.00    -0.532 OA 
HETATM   18  O   UNL     1     -13.341  14.515  73.271  1.00  0.00    -0.611 OA 
ENDBRANCH  11  14
ENDBRANCH  10  11
ENDBRANCH   5  10
BRANCH   8  19
HETATM   19  C   UNL     1     -10.758  17.165  66.656  1.00  0.00    -0.082 C  
BRANCH  19  20
HETATM   20  O   UNL     1     -10.740  18.146  67.676  1.00  0.00    -0.416 OA 
HETATM   21  P   UNL     1      -9.690  19.333  67.566  1.00  0.00    -0.362 P  
HETATM   22  O   UNL     1     -10.230  20.326  68.692  1.00  0.00    -0.343 OA 
HETATM   23  O   UNL     1      -8.257  18.960  67.665  1.00  0.00    -0.262 OA 
HETATM   24  O   UNL     1     -10.172  20.090  66.248  1.00  0.00    -0.459 OA 
ENDBRANCH  19  20
ENDBRANCH   8  19
TORSDOF 5
ENDMDL
MODEL      120
REMARK 921   NORMALIZED FREE ENERGY PREDICTED BY IDOCK:   -4.87 KCAL/MOL
REMARK 922        TOTAL FREE ENERGY PREDICTED BY IDOCK:   -6.99 KCAL/MOL
REMARK 923 INTER-LIGAND FREE ENERGY PREDICTED BY IDOCK:   -6.50 KCAL/MOL
REMARK 924 INTRA-LIGAND FREE ENERGY PREDICTED BY IDOCK:   -0.49 KCAL/MOL
REMARK 927      BINDING AFFINITY PREDICTED BY RF-SCORE:    0.00 PKD
ROOT
HETATM    1  O   UNL     1     -11.361  16.559  63.978  1.00  0.00    -1.475 OA 
HETATM    2  H   UNL     1     -11.032  17.449  63.932  1.00  0.00     0.000 HD 
HETATM    3  C   UNL     1     -11.424  16.078  65.317  1.00  0.00     0.135 C  
HETATM    4  C   UNL     1     -11.950  14.656  65.390  1.00  0.00    -0.275 C  
HETATM    5  C   UNL     1     -11.460  14.239  66.797  1.00  0.00    -0.367 C  
HETATM    6  O   UNL     1     -11.344  13.879  64.336  1.00  0.00    -0.428 OA 
HETATM    7  O   UNL     1     -10.181  14.879  66.954  1.00  0.00    -0.249 OA 
HETATM    8  C   UNL     1     -10.048  15.891  65.929  1.00  0.00    -0.352 C  
HETATM    9  H   UNL     1     -11.673  12.989  64.382  1.00  0.00     0.000 HD 
ENDROOT
BRANCH   5  10
HETATM   10  O   UNL     1     -11.432  12.832  66.864  1.00  0.00    -0.303 OA 
BRANCH  10  11
HETATM   11  P   UNL     1     -11.372  11.912  68.327  1.00  0.00    -0.330 P  
HETATM   12  O   UNL     1     -12.591  12.805  68.950  1.00  0.00     0.303 OA 
HETATM   13  O   UNL     1     -12.027  10.730  67.599  1.00  0.00    -0.411 OA 
BRANCH  11  14
HETATM   14  O   UNL     1     -11.314  10.992  69.791  1.00  0.00    -0.255 OA 
HETATM   15  P   UNL     1     -10.651   9.428  69.463  1.00  0.00    -0.212 P  
HETATM   16  O   UNL     1     -10.058   8.028  69.169  1.00  0.00    -0.190 OA 
HETATM   17  O   UNL     1      -9.193  10.120  69.759  1.00  0.00    -0.208 OA 
HETATM   18  O   UNL     1     -10.952   9.125  71.051  1.00  0.00    -0.254 OA 
ENDBRANCH  11  14
ENDBRANCH  10  11
ENDBRANCH   5  10
BRANCH   8  19
HETATM   19  C   UNL     1      -9.497  17.183  66.529  1.00  0.00    -0.273 C  
BRANCH  19  20
HETATM   20  O   UNL     1      -8.142  17.273  66.133  1.00  0.00    -0.397 OA 
HETATM   21  P   UNL     1      -7.296  18.532  66.609  1.00  0.00    -0.246 P  
HETATM   22  O   UNL     1      -5.817  18.068  66.231  1.00  0.00    -0.150 OA 
HETATM   23  O   UNL     1      -7.717  19.852  66.075  1.00  0.00    -0.319 OA 
HETATM   24  O   UNL     1      -7.271  18.343  68.192  1.00  0.00    -0.246 OA 
ENDBRANCH  19  20
ENDBRANCH   8  19
TORSDOF 5
ENDMDL
MODEL      121
REMARK 921   NORMALIZED FREE ENERGY PREDICTED BY IDOCK:   -4.86 KCAL/MOL
REMARK 922        TOTAL FREE ENERGY PREDICTED BY IDOCK:   -6.99 KCAL/MOL
REMARK 923 INTER-LIGAND FREE ENERGY PREDICTED BY IDOCK:   -6.01 KCAL/MOL
REMARK 924 INTRA-LIGAND FREE ENERGY PREDICTED BY IDOCK:   -0.98 KCAL/MOL
REMARK 927      BINDING AFFINITY PREDICTED BY RF-SCORE:    0.00 PKD
ROOT
HETATM    1  O   UNL     1      -9.066  12.763  68.587  1.00  0.00    -0.377 OA 
HETATM    2  H   UNL     1      -9.535  13.502  68.216  1.00  0.00     0.000 HD 
HETATM    3  C   UNL     1      -9.357  11.547  67.905  1.00  0.00    -0.171 C  
HETATM    4  C   UNL     1      -8.609  10.366  68.496  1.00  0.00    -0.134 C  
HETATM    5  C   UNL     1      -9.444   9.188  67.943  1.00  0.00    -0.141 C  
HETATM    6  O   UNL     1      -8.657  10.456  69.936  1.00  0.00    -0.378 OA 
HETATM    7  O   UNL     1     -10.804   9.658  67.946  1.00  0.00    -0.259 OA 
HETATM    8  C   UNL     1     -10.791  11.094  68.117  1.00  0.00    -0.219 C  
HETATM    9  H   UNL     1      -8.188   9.718  70.306  1.00  0.00     0.000 HD 
ENDROOT
BRANCH   5  10
HETATM   10  O   UNL     1      -9.206   8.054  68.744  1.00  0.00    -0.144 OA 
BRANCH  10  11
HETATM   11  P   UNL     1     -10.384   7.297  69.760  1.00  0.00    -0.230 P  
HETATM   12  O   UNL     1     -10.783   6.273  68.551  1.00  0.00    -0.231 OA 
HETATM   13  O   UNL     1      -9.254   6.620  70.549  1.00  0.00    -0.155 OA 
BRANCH  11  14
HETATM   14  O   UNL     1     -11.562   6.539  70.776  1.00  0.00    -0.343 OA 
HETATM   15  P   UNL     1     -11.050   6.637  72.425  1.00  0.00    -0.275 P  
HETATM   16  O   UNL     1     -10.591   6.725  73.902  1.00  0.00    -0.350 OA 
HETATM   17  O   UNL     1     -11.845   8.073  72.458  1.00  0.00    -0.367 OA 
HETATM   18  O   UNL     1     -12.400   5.757  72.748  1.00  0.00    -0.045 OA 
ENDBRANCH  11  14
ENDBRANCH  10  11
ENDBRANCH   5  10
BRANCH   8  19
HETATM   19  C   UNL     1     -11.760  11.754  67.139  1.00  0.00    -0.188 C  
BRANCH  19  20
HETATM   20  O   UNL     1     -10.995  12.634  66.336  1.00  0.00    -0.260 OA 
HETATM   21  P   UNL     1     -11.557  14.096  66.069  1.00  0.00    -0.385 P  
HETATM   22  O   UNL     1     -10.277  14.805  65.433  1.00  0.00    -0.341 OA 
HETATM   23  O   UNL     1     -12.809  14.189  65.277  1.00  0.00    -0.670 OA 
HETATM   24  O   UNL     1     -11.552  14.731  67.532  1.00  0.00    -0.347 OA 
ENDBRANCH  19  20
ENDBRANCH   8  19
TORSDOF 5
ENDMDL
MODEL      122
REMARK 921   NORMALIZED FREE ENERGY PREDICTED BY IDOCK:   -4.86 KCAL/MOL
REMARK 922        TOTAL FREE ENERGY PREDICTED BY IDOCK:   -6.98 KCAL/MOL
REMARK 923 INTER-LIGAND FREE ENERGY PREDICTED BY IDOCK:   -6.16 KCAL/MOL
REMARK 924 INTRA-LIGAND FREE ENERGY PREDICTED BY IDOCK:   -0.82 KCAL/MOL
REMARK 927      BINDING AFFINITY PREDICTED BY RF-SCORE:    0.00 PKD
ROOT
HETATM    1  O   UNL     1      -8.804   8.818  65.279  1.00  0.00    -0.215 OA 
HETATM    2  H   UNL     1      -8.456   8.052  65.719  1.00  0.00     0.000 HD 
HETATM    3  C   UNL     1      -9.363   9.755  66.194  1.00  0.00    -0.191 C  
HETATM    4  C   UNL     1      -9.919  10.980  65.491  1.00  0.00    -0.256 C  
HETATM    5  C   UNL     1     -10.854  11.543  66.587  1.00  0.00    -0.287 C  
HETATM    6  O   UNL     1     -10.634  10.558  64.311  1.00  0.00    -0.369 OA 
HETATM    7  O   UNL     1     -11.405  10.386  67.241  1.00  0.00    -0.327 OA 
HETATM    8  C   UNL     1     -10.621   9.230  66.862  1.00  0.00    -0.169 C  
HETATM    9  H   UNL     1     -10.982  11.324  63.871  1.00  0.00     0.000 HD 
ENDROOT
BRANCH   5  10
HETATM   10  O   UNL     1     -11.802  12.388  65.977  1.00  0.00    -0.444 OA 
BRANCH  10  11
HETATM   11  P   UNL     1     -11.515  14.032  65.523  1.00  0.00    -0.343 P  
HETATM   12  O   UNL     1     -11.228  13.566  63.983  1.00  0.00    -0.353 OA 
HETATM   13  O   UNL     1     -13.021  14.313  65.620  1.00  0.00    -0.535 OA 
BRANCH  11  14
HETATM   14  O   UNL     1     -11.227  15.676  65.067  1.00  0.00    -0.368 OA 
HETATM   15  P   UNL     1     -10.443  16.506  66.367  1.00  0.00    -0.179 P  
HETATM   16  O   UNL     1      -9.742  17.248  67.531  1.00  0.00    -0.255 OA 
HETATM   17  O   UNL     1      -9.041  15.999  65.682  1.00  0.00    -0.357 OA 
HETATM   18  O   UNL     1     -10.562  17.832  65.403  1.00  0.00    -0.659 OA 
ENDBRANCH  11  14
ENDBRANCH  10  11
ENDBRANCH   5  10
BRANCH   8  19
HETATM   19  C   UNL     1     -10.315   8.373  68.088  1.00  0.00    -0.204 C  
BRANCH  19  20
HETATM   20  O   UNL     1      -9.326   7.439  67.697  1.00  0.00    -0.132 OA 
HETATM   21  P   UNL     1      -9.260   6.045  68.455  1.00  0.00    -0.113 P  
HETATM   22  O   UNL     1      -8.270   5.227  67.508  1.00  0.00    -0.100 OA 
HETATM   23  O   UNL     1      -8.891   6.090  69.893  1.00  0.00    -0.135 OA 
HETATM   24  O   UNL     1     -10.657   5.382  68.066  1.00  0.00    -0.170 OA 
ENDBRANCH  19  20
ENDBRANCH   8  19
TORSDOF 5
ENDMDL
MODEL      123
REMARK 921   NORMALIZED FREE ENERGY PREDICTED BY IDOCK:   -4.83 KCAL/MOL
REMARK 922        TOTAL FREE ENERGY PREDICTED BY IDOCK:   -6.95 KCAL/MOL
REMARK 923 INTER-LIGAND FREE ENERGY PREDICTED BY IDOCK:   -6.57 KCAL/MOL
REMARK 924 INTRA-LIGAND FREE ENERGY PREDICTED BY IDOCK:   -0.38 KCAL/MOL
REMARK 927      BINDING AFFINITY PREDICTED BY RF-SCORE:    0.00 PKD
ROOT
HETATM    1  O   UNL     1      -9.064  17.998  65.844  1.00  0.00    -0.513 OA 
HETATM    2  H   UNL     1      -8.271  18.275  66.287  1.00  0.00     0.000 HD 
HETATM    3  C   UNL     1      -9.706  16.919  66.517  1.00  0.00    -0.281 C  
HETATM    4  C   UNL     1     -10.973  16.476  65.808  1.00  0.00    -0.010 C  
HETATM    5  C   UNL     1     -11.167  15.067  66.417  1.00  0.00    -0.310 C  
HETATM    6  O   UNL     1     -10.726  16.440  64.387  1.00  0.00    -0.898 OA 
HETATM    7  O   UNL     1      -9.836  14.544  66.582  1.00  0.00    -0.254 OA 
HETATM    8  C   UNL     1      -8.897  15.636  66.455  1.00  0.00    -0.330 C  
HETATM    9  H   UNL     1     -11.519  16.163  63.944  1.00  0.00     0.000 HD 
ENDROOT
BRANCH   5  10
HETATM   10  O   UNL     1     -11.996  14.318  65.559  1.00  0.00    -0.364 OA 
BRANCH  10  11
HETATM   11  P   UNL     1     -11.511  12.890  64.713  1.00  0.00    -0.365 P  
HETATM   12  O   UNL     1     -12.238  11.961  65.843  1.00  0.00    -0.435 OA 
HETATM   13  O   UNL     1     -12.569  13.178  63.639  1.00  0.00    -0.705 OA 
BRANCH  11  14
HETATM   14  O   UNL     1     -11.026  11.461  63.866  1.00  0.00    -0.373 OA 
HETATM   15  P   UNL     1      -9.454  10.978  64.403  1.00  0.00    -0.209 P  
HETATM   16  O   UNL     1      -8.047  10.547  64.885  1.00  0.00    -0.153 OA 
HETATM   17  O   UNL     1     -10.247  10.112  65.550  1.00  0.00    -0.286 OA 
HETATM   18  O   UNL     1      -9.584   9.798  63.266  1.00  0.00    -0.104 OA 
ENDBRANCH  11  14
ENDBRANCH  10  11
ENDBRANCH   5  10
BRANCH   8  19
HETATM   19  C   UNL     1      -7.842  15.559  67.557  1.00  0.00    -0.168 C  
BRANCH  19  20
HETATM   20  O   UNL     1      -6.778  14.774  67.051  1.00  0.00    -0.156 OA 
HETATM   21  P   UNL     1      -6.132  13.675  67.999  1.00  0.00    -0.145 P  
HETATM   22  O   UNL     1      -5.249  12.852  66.956  1.00  0.00    -0.334 OA 
HETATM   23  O   UNL     1      -5.418  14.174  69.201  1.00  0.00    -0.080 OA 
HETATM   24  O   UNL     1      -7.346  12.665  68.221  1.00  0.00    -0.099 OA 
ENDBRANCH  19  20
ENDBRANCH   8  19
TORSDOF 5
ENDMDL
MODEL      124
REMARK 921   NORMALIZED FREE ENERGY PREDICTED BY IDOCK:   -4.81 KCAL/MOL
REMARK 922        TOTAL FREE ENERGY PREDICTED BY IDOCK:   -6.92 KCAL/MOL
REMARK 923 INTER-LIGAND FREE ENERGY PREDICTED BY IDOCK:   -6.14 KCAL/MOL
REMARK 924 INTRA-LIGAND FREE ENERGY PREDICTED BY IDOCK:   -0.78 KCAL/MOL
REMARK 927      BINDING AFFINITY PREDICTED BY RF-SCORE:    0.00 PKD
ROOT
HETATM    1  O   UNL     1      -7.692  15.912  66.353  1.00  0.00    -0.212 OA 
HETATM    2  H   UNL     1      -7.570  16.789  66.008  1.00  0.00     0.000 HD 
HETATM    3  C   UNL     1      -9.055  15.501  66.304  1.00  0.00    -0.334 C  
HETATM    4  C   UNL     1      -9.249  14.100  66.854  1.00  0.00    -0.257 C  
HETATM    5  C   UNL     1     -10.770  14.110  67.139  1.00  0.00    -0.280 C  
HETATM    6  O   UNL     1      -8.458  13.954  68.052  1.00  0.00    -0.153 OA 
HETATM    7  O   UNL     1     -11.059  15.447  67.586  1.00  0.00    -0.306 OA 
HETATM    8  C   UNL     1      -9.932  16.292  67.258  1.00  0.00    -0.250 C  
HETATM    9  H   UNL     1      -8.580  13.077  68.396  1.00  0.00     0.000 HD 
ENDROOT
BRANCH   5  10
HETATM   10  O   UNL     1     -11.058  13.097  68.075  1.00  0.00    -0.243 OA 
BRANCH  10  11
HETATM   11  P   UNL     1     -11.167  11.411  67.704  1.00  0.00    -0.274 P  
HETATM   12  O   UNL     1     -12.438  11.260  68.720  1.00  0.00    -0.444 OA 
HETATM   13  O   UNL     1     -11.749  11.761  66.327  1.00  0.00    -0.482 OA 
BRANCH  11  14
HETATM   14  O   UNL     1     -11.277   9.725  67.333  1.00  0.00    -0.120 OA 
HETATM   15  P   UNL     1      -9.702   9.014  67.404  1.00  0.00    -0.195 P  
HETATM   16  O   UNL     1      -8.291   8.379  67.467  1.00  0.00    -0.126 OA 
HETATM   17  O   UNL     1     -10.024   8.756  68.992  1.00  0.00    -0.181 OA 
HETATM   18  O   UNL     1     -10.456   7.638  66.914  1.00  0.00    -0.315 OA 
ENDBRANCH  11  14
ENDBRANCH  10  11
ENDBRANCH   5  10
BRANCH   8  19
HETATM   19  C   UNL     1     -10.415  17.607  66.649  1.00  0.00    -0.286 C  
BRANCH  19  20
HETATM   20  O   UNL     1      -9.335  18.131  65.898  1.00  0.00    -0.517 OA 
HETATM   21  P   UNL     1      -8.646  19.472  66.400  1.00  0.00    -0.342 P  
HETATM   22  O   UNL     1      -7.336  19.502  65.488  1.00  0.00    -0.392 OA 
HETATM   23  O   UNL     1      -9.483  20.698  66.371  1.00  0.00    -0.177 OA 
HETATM   24  O   UNL     1      -8.023  19.028  67.799  1.00  0.00    -0.256 OA 
ENDBRANCH  19  20
ENDBRANCH   8  19
TORSDOF 5
ENDMDL
MODEL      125
REMARK 921   NORMALIZED FREE ENERGY PREDICTED BY IDOCK:   -4.78 KCAL/MOL
REMARK 922        TOTAL FREE ENERGY PREDICTED BY IDOCK:   -6.89 KCAL/MOL
REMARK 923 INTER-LIGAND FREE ENERGY PREDICTED BY IDOCK:   -7.02 KCAL/MOL
REMARK 924 INTRA-LIGAND FREE ENERGY PREDICTED BY IDOCK:    0.13 KCAL/MOL
REMARK 927      BINDING AFFINITY PREDICTED BY RF-SCORE:    0.00 PKD
ROOT
HETATM    1  O   UNL     1     -11.467   8.642  71.005  1.00  0.00    -0.267 OA 
HETATM    2  H   UNL     1     -11.078   7.793  71.182  1.00  0.00     0.000 HD 
HETATM    3  C   UNL     1     -10.916   9.252  69.842  1.00  0.00    -0.213 C  
HETATM    4  C   UNL     1     -11.536  10.609  69.559  1.00  0.00    -0.288 C  
HETATM    5  C   UNL     1     -10.472  11.223  68.619  1.00  0.00    -0.203 C  
HETATM    6  O   UNL     1     -11.666  11.331  70.802  1.00  0.00    -0.400 OA 
HETATM    7  O   UNL     1      -9.209  10.745  69.120  1.00  0.00    -0.184 OA 
HETATM    8  C   UNL     1      -9.463   9.651  70.031  1.00  0.00    -0.240 C  
HETATM    9  H   UNL     1     -12.054  12.180  70.625  1.00  0.00     0.000 HD 
ENDROOT
BRANCH   5  10
HETATM   10  O   UNL     1     -10.621  12.624  68.627  1.00  0.00    -0.235 OA 
BRANCH  10  11
HETATM   11  P   UNL     1     -11.321  13.550  67.345  1.00  0.00    -0.348 P  
HETATM   12  O   UNL     1     -12.131  12.232  66.821  1.00  0.00    -0.593 OA 
HETATM   13  O   UNL     1     -12.235  14.248  68.362  1.00  0.00    -0.299 OA 
BRANCH  11  14
HETATM   14  O   UNL     1     -12.021  14.476  66.063  1.00  0.00    -0.370 OA 
HETATM   15  P   UNL     1     -11.856  13.615  64.572  1.00  0.00    -0.446 P  
HETATM   16  O   UNL     1     -11.707  12.843  63.238  1.00  0.00    -0.521 OA 
HETATM   17  O   UNL     1     -13.296  12.925  64.953  1.00  0.00    -0.716 OA 
HETATM   18  O   UNL     1     -12.547  14.943  63.892  1.00  0.00    -0.831 OA 
ENDBRANCH  11  14
ENDBRANCH  10  11
ENDBRANCH   5  10
BRANCH   8  19
HETATM   19  C   UNL     1      -8.503   8.497  69.753  1.00  0.00    -0.129 C  
BRANCH  19  20
HETATM   20  O   UNL     1      -9.226   7.531  69.014  1.00  0.00    -0.147 OA 
HETATM   21  P   UNL     1      -9.181   6.018  69.498  1.00  0.00    -0.137 P  
HETATM   22  O   UNL     1     -10.347   5.379  68.615  1.00  0.00    -0.185 OA 
HETATM   23  O   UNL     1      -7.865   5.337  69.422  1.00  0.00    -0.085 OA 
HETATM   24  O   UNL     1      -9.897   6.097  70.921  1.00  0.00    -0.178 OA 
ENDBRANCH  19  20
ENDBRANCH   8  19
TORSDOF 5
ENDMDL
MODEL      126
REMARK 921   NORMALIZED FREE ENERGY PREDICTED BY IDOCK:   -4.78 KCAL/MOL
REMARK 922        TOTAL FREE ENERGY PREDICTED BY IDOCK:   -6.88 KCAL/MOL
REMARK 923 INTER-LIGAND FREE ENERGY PREDICTED BY IDOCK:   -6.27 KCAL/MOL
REMARK 924 INTRA-LIGAND FREE ENERGY PREDICTED BY IDOCK:   -0.62 KCAL/MOL
REMARK 927      BINDING AFFINITY PREDICTED BY RF-SCORE:    0.00 PKD
ROOT
HETATM    1  O   UNL     1     -11.452  14.779  69.293  1.00  0.00    -0.264 OA 
HETATM    2  H   UNL     1     -11.520  15.626  68.867  1.00  0.00     0.000 HD 
HETATM    3  C   UNL     1     -11.114  13.744  68.375  1.00  0.00    -0.263 C  
HETATM    4  C   UNL     1     -11.004  12.390  69.054  1.00  0.00    -0.197 C  
HETATM    5  C   UNL     1     -11.132  11.445  67.836  1.00  0.00    -0.261 C  
HETATM    6  O   UNL     1     -12.095  12.247  69.988  1.00  0.00    -0.314 OA 
HETATM    7  O   UNL     1     -12.073  12.089  66.957  1.00  0.00    -0.603 OA 
HETATM    8  C   UNL     1     -12.231  13.462  67.385  1.00  0.00    -0.214 C  
HETATM    9  H   UNL     1     -12.026  11.400  70.413  1.00  0.00     0.000 HD 
ENDROOT
BRANCH   5  10
HETATM   10  O   UNL     1     -11.525  10.172  68.295  1.00  0.00    -0.186 OA 
BRANCH  10  11
HETATM   11  P   UNL     1     -10.462   9.004  68.998  1.00  0.00    -0.156 P  
HETATM   12  O   UNL     1      -9.207  10.039  68.848  1.00  0.00    -0.152 OA 
HETATM   13  O   UNL     1     -11.088   9.274  70.373  1.00  0.00    -0.238 OA 
BRANCH  11  14
HETATM   14  O   UNL     1      -9.398   7.835  69.702  1.00  0.00    -0.153 OA 
HETATM   15  P   UNL     1     -10.229   6.979  70.955  1.00  0.00    -0.196 P  
HETATM   16  O   UNL     1     -10.973   6.213  72.076  1.00  0.00    -0.235 OA 
HETATM   17  O   UNL     1     -10.693   5.943  69.770  1.00  0.00    -0.277 OA 
HETATM   18  O   UNL     1      -8.788   6.225  71.200  1.00  0.00    -0.140 OA 
ENDBRANCH  11  14
ENDBRANCH  10  11
ENDBRANCH   5  10
BRANCH   8  19
HETATM   19  C   UNL     1     -12.192  14.400  66.181  1.00  0.00    -0.340 C  
BRANCH  19  20
HETATM   20  O   UNL     1     -10.828  14.683  65.927  1.00  0.00    -0.296 OA 
HETATM   21  P   UNL     1     -10.418  16.178  65.578  1.00  0.00    -0.264 P  
HETATM   22  O   UNL     1      -8.829  16.095  65.696  1.00  0.00    -0.329 OA 
HETATM   23  O   UNL     1     -10.945  16.728  64.304  1.00  0.00    -0.933 OA 
HETATM   24  O   UNL     1     -10.775  16.950  66.927  1.00  0.00    -0.253 OA 
ENDBRANCH  19  20
ENDBRANCH   8  19
TORSDOF 5
ENDMDL
MODEL      127
REMARK 921   NORMALIZED FREE ENERGY PREDICTED BY IDOCK:   -4.77 KCAL/MOL
REMARK 922        TOTAL FREE ENERGY PREDICTED BY IDOCK:   -6.87 KCAL/MOL
REMARK 923 INTER-LIGAND FREE ENERGY PREDICTED BY IDOCK:   -5.78 KCAL/MOL
REMARK 924 INTRA-LIGAND FREE ENERGY PREDICTED BY IDOCK:   -1.09 KCAL/MOL
REMARK 927      BINDING AFFINITY PREDICTED BY RF-SCORE:    0.00 PKD
ROOT
HETATM    1  O   UNL     1     -10.150   9.303  65.674  1.00  0.00    -0.403 OA 
HETATM    2  H   UNL     1     -10.198   8.400  65.966  1.00  0.00     0.000 HD 
HETATM    3  C   UNL     1      -9.722  10.180  66.711  1.00  0.00    -0.187 C  
HETATM    4  C   UNL     1      -9.645  11.622  66.245  1.00  0.00    -0.221 C  
HETATM    5  C   UNL     1      -9.657  12.366  67.602  1.00  0.00    -0.193 C  
HETATM    6  O   UNL     1     -10.805  11.915  65.438  1.00  0.00    -0.279 OA 
HETATM    7  O   UNL     1     -10.534  11.595  68.443  1.00  0.00    -0.197 OA 
HETATM    8  C   UNL     1     -10.750  10.307  67.821  1.00  0.00    -0.275 C  
HETATM    9  H   UNL     1     -10.756  12.818  65.146  1.00  0.00     0.000 HD 
ENDROOT
BRANCH   5  10
HETATM   10  O   UNL     1     -10.065  13.696  67.381  1.00  0.00    -0.236 OA 
BRANCH  10  11
HETATM   11  P   UNL     1     -11.220  14.549  68.344  1.00  0.00    -0.304 P  
HETATM   12  O   UNL     1     -10.241  15.857  68.377  1.00  0.00    -0.219 OA 
HETATM   13  O   UNL     1     -12.118  14.708  67.110  1.00  0.00    -0.362 OA 
BRANCH  11  14
HETATM   14  O   UNL     1     -12.375  15.404  69.308  1.00  0.00    -0.226 OA 
HETATM   15  P   UNL     1     -12.897  14.395  70.612  1.00  0.00    -0.195 P  
HETATM   16  O   UNL     1     -13.364  13.491  71.780  1.00  0.00    -0.380 OA 
HETATM   17  O   UNL     1     -11.632  15.027  71.445  1.00  0.00    -0.334 OA 
HETATM   18  O   UNL     1     -13.906  15.639  70.984  1.00  0.00    -0.567 OA 
ENDBRANCH  11  14
ENDBRANCH  10  11
ENDBRANCH   5  10
BRANCH   8  19
HETATM   19  C   UNL     1     -10.629   9.192  68.857  1.00  0.00    -0.191 C  
BRANCH  19  20
HETATM   20  O   UNL     1      -9.732   8.235  68.324  1.00  0.00    -0.151 OA 
HETATM   21  P   UNL     1     -10.218   6.726  68.206  1.00  0.00    -0.204 P  
HETATM   22  O   UNL     1      -9.067   6.105  67.292  1.00  0.00    -0.116 OA 
HETATM   23  O   UNL     1     -10.486   6.016  69.482  1.00  0.00    -0.211 OA 
HETATM   24  O   UNL     1     -11.408   6.836  67.151  1.00  0.00    -0.330 OA 
ENDBRANCH  19  20
ENDBRANCH   8  19
TORSDOF 5
ENDMDL
MODEL      128
REMARK 921   NORMALIZED FREE ENERGY PREDICTED BY IDOCK:   -4.75 KCAL/MOL
REMARK 922        TOTAL FREE ENERGY PREDICTED BY IDOCK:   -6.85 KCAL/MOL
REMARK 923 INTER-LIGAND FREE ENERGY PREDICTED BY IDOCK:   -6.27 KCAL/MOL
REMARK 924 INTRA-LIGAND FREE ENERGY PREDICTED BY IDOCK:   -0.58 KCAL/MOL
REMARK 927      BINDING AFFINITY PREDICTED BY RF-SCORE:    0.00 PKD
ROOT
HETATM    1  O   UNL     1     -11.611  14.963  69.184  1.00  0.00    -0.275 OA 
HETATM    2  H   UNL     1     -12.263  15.532  69.577  1.00  0.00     0.000 HD 
HETATM    3  C   UNL     1     -11.977  13.589  69.270  1.00  0.00    -0.330 C  
HETATM    4  C   UNL     1     -10.935  12.680  68.643  1.00  0.00    -0.256 C  
HETATM    5  C   UNL     1     -11.308  11.324  69.289  1.00  0.00    -0.287 C  
HETATM    6  O   UNL     1      -9.622  13.139  69.027  1.00  0.00    -0.392 OA 
HETATM    7  O   UNL     1     -11.727  11.649  70.627  1.00  0.00    -0.240 OA 
HETATM    8  C   UNL     1     -11.961  13.075  70.699  1.00  0.00    -0.138 C  
HETATM    9  H   UNL     1      -8.970  12.570  68.634  1.00  0.00     0.000 HD 
ENDROOT
BRANCH   5  10
HETATM   10  O   UNL     1     -10.192  10.468  69.209  1.00  0.00    -0.208 OA 
BRANCH  10  11
HETATM   11  P   UNL     1      -9.907   9.333  67.935  1.00  0.00    -0.186 P  
HETATM   12  O   UNL     1     -11.008  10.093  66.998  1.00  0.00    -0.209 OA 
HETATM   13  O   UNL     1      -8.556  10.004  67.652  1.00  0.00    -0.118 OA 
BRANCH  11  14
HETATM   14  O   UNL     1      -9.622   8.198  66.660  1.00  0.00    -0.194 OA 
HETATM   15  P   UNL     1      -9.791   6.589  67.272  1.00  0.00    -0.167 P  
HETATM   16  O   UNL     1      -9.942   5.149  67.820  1.00  0.00    -0.152 OA 
HETATM   17  O   UNL     1     -11.377   6.738  66.878  1.00  0.00    -0.318 OA 
HETATM   18  O   UNL     1      -9.346   6.120  65.760  1.00  0.00    -0.072 OA 
ENDBRANCH  11  14
ENDBRANCH  10  11
ENDBRANCH   5  10
BRANCH   8  19
HETATM   19  C   UNL     1     -13.268  13.361  71.434  1.00  0.00    -0.250 C  
BRANCH  19  20
HETATM   20  O   UNL     1     -12.920  13.953  72.672  1.00  0.00    -0.399 OA 
HETATM   21  P   UNL     1     -12.854  15.539  72.760  1.00  0.00    -0.552 P  
HETATM   22  O   UNL     1     -12.761  15.754  74.338  1.00  0.00    -0.580 OA 
HETATM   23  O   UNL     1     -11.800  16.202  71.952  1.00  0.00    -0.480 OA 
HETATM   24  O   UNL     1     -14.369  15.956  72.492  1.00  0.00    -0.468 OA 
ENDBRANCH  19  20
ENDBRANCH   8  19
TORSDOF 5
ENDMDL
MODEL      129
REMARK 921   NORMALIZED FREE ENERGY PREDICTED BY IDOCK:   -4.75 KCAL/MOL
REMARK 922        TOTAL FREE ENERGY PREDICTED BY IDOCK:   -6.84 KCAL/MOL
REMARK 923 INTER-LIGAND FREE ENERGY PREDICTED BY IDOCK:   -6.11 KCAL/MOL
REMARK 924 INTRA-LIGAND FREE ENERGY PREDICTED BY IDOCK:   -0.74 KCAL/MOL
REMARK 927      BINDING AFFINITY PREDICTED BY RF-SCORE:    0.00 PKD
ROOT
HETATM    1  O   UNL     1     -13.670  14.239  65.557  1.00  0.00    -0.543 OA 
HETATM    2  H   UNL     1     -13.819  15.176  65.605  1.00  0.00     0.000 HD 
HETATM    3  C   UNL     1     -12.296  13.905  65.722  1.00  0.00    -0.486 C  
HETATM    4  C   UNL     1     -12.058  12.407  65.644  1.00  0.00    -0.329 C  
HETATM    5  C   UNL     1     -10.538  12.371  65.357  1.00  0.00    -0.284 C  
HETATM    6  O   UNL     1     -12.843  11.865  64.561  1.00  0.00    -0.357 OA 
HETATM    7  O   UNL     1     -10.290  13.504  64.506  1.00  0.00    -0.423 OA 
HETATM    8  C   UNL     1     -11.443  14.376  64.558  1.00  0.00    -0.345 C  
HETATM    9  H   UNL     1     -12.694  10.928  64.513  1.00  0.00     0.000 HD 
ENDROOT
BRANCH   5  10
HETATM   10  O   UNL     1     -10.219  11.121  64.790  1.00  0.00    -0.265 OA 
BRANCH  10  11
HETATM   11  P   UNL     1      -9.143   9.963  65.491  1.00  0.00    -0.227 P  
HETATM   12  O   UNL     1      -8.115  11.160  65.916  1.00  0.00    -0.123 OA 
HETATM   13  O   UNL     1     -10.114   9.786  66.666  1.00  0.00    -0.215 OA 
BRANCH  11  14
HETATM   14  O   UNL     1      -8.066   8.805  66.194  1.00  0.00    -0.103 OA 
HETATM   15  P   UNL     1      -8.699   7.213  65.960  1.00  0.00    -0.086 P  
HETATM   16  O   UNL     1      -9.267   5.787  65.751  1.00  0.00    -0.148 OA 
HETATM   17  O   UNL     1      -7.872   7.224  64.543  1.00  0.00    -0.114 OA 
HETATM   18  O   UNL     1      -7.401   6.721  66.841  1.00  0.00    -0.078 OA 
ENDBRANCH  11  14
ENDBRANCH  10  11
ENDBRANCH   5  10
BRANCH   8  19
HETATM   19  C   UNL     1     -11.000  15.830  64.713  1.00  0.00    -0.393 C  
BRANCH  19  20
HETATM   20  O   UNL     1     -10.869  16.072  66.102  1.00  0.00    -0.281 OA 
HETATM   21  P   UNL     1      -9.436  16.455  66.671  1.00  0.00    -0.296 P  
HETATM   22  O   UNL     1      -9.811  16.941  68.144  1.00  0.00    -0.248 OA 
HETATM   23  O   UNL     1      -8.386  15.409  66.581  1.00  0.00    -0.258 OA 
HETATM   24  O   UNL     1      -9.154  17.855  65.960  1.00  0.00    -0.504 OA 
ENDBRANCH  19  20
ENDBRANCH   8  19
TORSDOF 5
ENDMDL
MODEL      130
REMARK 921   NORMALIZED FREE ENERGY PREDICTED BY IDOCK:   -4.71 KCAL/MOL
REMARK 922        TOTAL FREE ENERGY PREDICTED BY IDOCK:   -6.79 KCAL/MOL
REMARK 923 INTER-LIGAND FREE ENERGY PREDICTED BY IDOCK:   -5.73 KCAL/MOL
REMARK 924 INTRA-LIGAND FREE ENERGY PREDICTED BY IDOCK:   -1.06 KCAL/MOL
REMARK 927      BINDING AFFINITY PREDICTED BY RF-SCORE:    0.00 PKD
ROOT
HETATM    1  O   UNL     1      -8.921  11.114  65.002  1.00  0.00    -0.312 OA 
HETATM    2  H   UNL     1      -9.227  11.999  64.843  1.00  0.00     0.000 HD 
HETATM    3  C   UNL     1      -9.926  10.298  65.595  1.00  0.00    -0.280 C  
HETATM    4  C   UNL     1      -9.437   8.883  65.850  1.00  0.00    -0.234 C  
HETATM    5  C   UNL     1     -10.475   8.401  66.890  1.00  0.00    -0.289 C  
HETATM    6  O   UNL     1      -8.098   8.941  66.384  1.00  0.00    -0.107 OA 
HETATM    7  O   UNL     1     -10.763   9.558  67.697  1.00  0.00    -0.274 OA 
HETATM    8  C   UNL     1     -10.260  10.729  67.012  1.00  0.00    -0.217 C  
HETATM    9  H   UNL     1      -7.791   8.056  66.543  1.00  0.00     0.000 HD 
ENDROOT
BRANCH   5  10
HETATM   10  O   UNL     1      -9.932   7.308  67.594  1.00  0.00    -0.145 OA 
BRANCH  10  11
HETATM   11  P   UNL     1      -9.652   7.271  69.300  1.00  0.00    -0.157 P  
HETATM   12  O   UNL     1     -10.106   5.703  69.350  1.00  0.00    -0.183 OA 
HETATM   13  O   UNL     1      -8.139   7.279  69.043  1.00  0.00    -0.120 OA 
BRANCH  11  14
HETATM   14  O   UNL     1      -9.372   7.233  71.007  1.00  0.00    -0.158 OA 
HETATM   15  P   UNL     1      -8.114   8.350  71.410  1.00  0.00    -0.155 P  
HETATM   16  O   UNL     1      -6.988   9.350  71.770  1.00  0.00    -0.314 OA 
HETATM   17  O   UNL     1      -9.316   9.458  71.563  1.00  0.00    -0.271 OA 
HETATM   18  O   UNL     1      -8.295   7.781  72.942  1.00  0.00    -0.115 OA 
ENDBRANCH  11  14
ENDBRANCH  10  11
ENDBRANCH   5  10
BRANCH   8  19
HETATM   19  C   UNL     1     -11.296  11.850  67.049  1.00  0.00    -0.329 C  
BRANCH  19  20
HETATM   20  O   UNL     1     -10.998  12.718  65.971  1.00  0.00    -0.271 OA 
HETATM   21  P   UNL     1     -12.192  13.515  65.290  1.00  0.00    -0.495 P  
HETATM   22  O   UNL     1     -11.389  14.565  64.396  1.00  0.00    -0.327 OA 
HETATM   23  O   UNL     1     -13.209  12.702  64.576  1.00  0.00    -0.783 OA 
HETATM   24  O   UNL     1     -12.691  14.456  66.476  1.00  0.00    -0.191 OA 
ENDBRANCH  19  20
ENDBRANCH   8  19
TORSDOF 5
ENDMDL
MODEL      131
REMARK 921   NORMALIZED FREE ENERGY PREDICTED BY IDOCK:   -4.69 KCAL/MOL
REMARK 922        TOTAL FREE ENERGY PREDICTED BY IDOCK:   -6.77 KCAL/MOL
REMARK 923 INTER-LIGAND FREE ENERGY PREDICTED BY IDOCK:   -6.09 KCAL/MOL
REMARK 924 INTRA-LIGAND FREE ENERGY PREDICTED BY IDOCK:   -0.68 KCAL/MOL
REMARK 927      BINDING AFFINITY PREDICTED BY RF-SCORE:    0.00 PKD
ROOT
HETATM    1  O   UNL     1      -9.818  12.663  68.748  1.00  0.00    -0.402 OA 
HETATM    2  H   UNL     1      -9.707  13.236  67.998  1.00  0.00     0.000 HD 
HETATM    3  C   UNL     1      -9.822  11.288  68.376  1.00  0.00    -0.199 C  
HETATM    4  C   UNL     1     -10.000  10.372  69.574  1.00  0.00    -0.202 C  
HETATM    5  C   UNL     1     -10.454   9.068  68.875  1.00  0.00    -0.210 C  
HETATM    6  O   UNL     1     -11.015  10.924  70.437  1.00  0.00    -0.458 OA 
HETATM    7  O   UNL     1     -11.270   9.499  67.771  1.00  0.00    -0.091 OA 
HETATM    8  C   UNL     1     -11.047  10.913  67.562  1.00  0.00    -0.310 C  
HETATM    9  H   UNL     1     -11.127  10.351  71.187  1.00  0.00     0.000 HD 
ENDROOT
BRANCH   5  10
HETATM   10  O   UNL     1     -11.114   8.259  69.821  1.00  0.00    -0.182 OA 
BRANCH  10  11
HETATM   11  P   UNL     1     -10.678   6.630  70.204  1.00  0.00    -0.286 P  
HETATM   12  O   UNL     1     -11.735   6.630  71.450  1.00  0.00    -0.293 OA 
HETATM   13  O   UNL     1     -11.456   6.142  68.974  1.00  0.00    -0.340 OA 
BRANCH  11  14
HETATM   14  O   UNL     1     -10.244   5.000  70.588  1.00  0.00    -0.238 OA 
HETATM   15  P   UNL     1      -9.531   4.251  69.201  1.00  0.00    -0.160 P  
HETATM   16  O   UNL     1      -8.894   3.581  67.958  1.00  0.00    -0.100 OA 
HETATM   17  O   UNL     1      -8.107   4.837  69.768  1.00  0.00    -0.068 OA 
HETATM   18  O   UNL     1      -9.474   2.900  70.136  1.00  0.00    -0.160 OA 
ENDBRANCH  11  14
ENDBRANCH  10  11
ENDBRANCH   5  10
BRANCH   8  19
HETATM   19  C   UNL     1     -10.869  11.207  66.074  1.00  0.00    -0.166 C  
BRANCH  19  20
HETATM   20  O   UNL     1     -11.894  12.113  65.711  1.00  0.00    -0.469 OA 
HETATM   21  P   UNL     1     -11.594  13.671  65.802  1.00  0.00    -0.365 P  
HETATM   22  O   UNL     1     -12.848  14.271  65.019  1.00  0.00    -0.674 OA 
HETATM   23  O   UNL     1     -11.355  14.221  67.160  1.00  0.00    -0.309 OA 
HETATM   24  O   UNL     1     -10.446  13.858  64.711  1.00  0.00    -0.408 OA 
ENDBRANCH  19  20
ENDBRANCH   8  19
TORSDOF 5
ENDMDL
MODEL      132
REMARK 921   NORMALIZED FREE ENERGY PREDICTED BY IDOCK:   -4.67 KCAL/MOL
REMARK 922        TOTAL FREE ENERGY PREDICTED BY IDOCK:   -6.74 KCAL/MOL
REMARK 923 INTER-LIGAND FREE ENERGY PREDICTED BY IDOCK:   -5.89 KCAL/MOL
REMARK 924 INTRA-LIGAND FREE ENERGY PREDICTED BY IDOCK:   -0.84 KCAL/MOL
REMARK 927      BINDING AFFINITY PREDICTED BY RF-SCORE:    0.00 PKD
ROOT
HETATM    1  O   UNL     1     -10.956  17.233  67.647  1.00  0.00    -0.286 OA 
HETATM    2  H   UNL     1     -10.382  17.971  67.481  1.00  0.00     0.000 HD 
HETATM    3  C   UNL     1     -10.234  16.015  67.801  1.00  0.00    -0.260 C  
HETATM    4  C   UNL     1     -11.152  14.835  68.067  1.00  0.00    -0.286 C  
HETATM    5  C   UNL     1     -10.220  13.656  67.702  1.00  0.00    -0.239 C  
HETATM    6  O   UNL     1     -12.298  14.930  67.195  1.00  0.00    -0.383 OA 
HETATM    7  O   UNL     1      -9.435  14.127  66.592  1.00  0.00    -0.269 OA 
HETATM    8  C   UNL     1      -9.580  15.564  66.508  1.00  0.00    -0.272 C  
HETATM    9  H   UNL     1     -12.873  14.192  67.362  1.00  0.00     0.000 HD 
ENDROOT
BRANCH   5  10
HETATM   10  O   UNL     1     -11.014  12.524  67.430  1.00  0.00    -0.242 OA 
BRANCH  10  11
HETATM   11  P   UNL     1     -10.621  10.906  67.895  1.00  0.00    -0.247 P  
HETATM   12  O   UNL     1     -10.365  10.507  66.331  1.00  0.00    -0.232 OA 
HETATM   13  O   UNL     1      -9.275  11.400  68.444  1.00  0.00    -0.173 OA 
BRANCH  11  14
HETATM   14  O   UNL     1     -10.227   9.286  68.360  1.00  0.00    -0.187 OA 
HETATM   15  P   UNL     1      -9.583   9.287  69.965  1.00  0.00    -0.242 P  
HETATM   16  O   UNL     1      -9.006   9.289  71.402  1.00  0.00    -0.311 OA 
HETATM   17  O   UNL     1     -11.140   9.123  70.458  1.00  0.00    -0.242 OA 
HETATM   18  O   UNL     1      -9.372   7.674  69.729  1.00  0.00    -0.151 OA 
ENDBRANCH  11  14
ENDBRANCH  10  11
ENDBRANCH   5  10
BRANCH   8  19
HETATM   19  C   UNL     1      -8.219  16.221  66.284  1.00  0.00    -0.277 C  
BRANCH  19  20
HETATM   20  O   UNL     1      -8.471  17.534  65.819  1.00  0.00    -0.530 OA 
HETATM   21  P   UNL     1      -7.676  18.738  66.486  1.00  0.00    -0.267 P  
HETATM   22  O   UNL     1      -8.012  19.924  65.473  1.00  0.00    -0.353 OA 
HETATM   23  O   UNL     1      -7.962  19.008  67.917  1.00  0.00    -0.265 OA 
HETATM   24  O   UNL     1      -6.169  18.416  66.076  1.00  0.00    -0.179 OA 
ENDBRANCH  19  20
ENDBRANCH   8  19
TORSDOF 5
ENDMDL
MODEL      133
REMARK 921   NORMALIZED FREE ENERGY PREDICTED BY IDOCK:   -4.64 KCAL/MOL
REMARK 922        TOTAL FREE ENERGY PREDICTED BY IDOCK:   -6.71 KCAL/MOL
REMARK 923 INTER-LIGAND FREE ENERGY PREDICTED BY IDOCK:   -6.12 KCAL/MOL
REMARK 924 INTRA-LIGAND FREE ENERGY PREDICTED BY IDOCK:   -0.59 KCAL/MOL
REMARK 927      BINDING AFFINITY PREDICTED BY RF-SCORE:    0.00 PKD
ROOT
HETATM    1  O   UNL     1     -11.091   9.297  67.950  1.00  0.00    -0.506 OA 
HETATM    2  H   UNL     1     -11.419   8.653  68.567  1.00  0.00     0.000 HD 
HETATM    3  C   UNL     1     -10.593  10.461  68.604  1.00  0.00    -0.209 C  
HETATM    4  C   UNL     1     -10.069  11.490  67.619  1.00  0.00    -0.184 C  
HETATM    5  C   UNL     1     -10.072  12.762  68.501  1.00  0.00    -0.185 C  
HETATM    6  O   UNL     1     -10.984  11.581  66.507  1.00  0.00    -0.282 OA 
HETATM    7  O   UNL     1     -11.232  12.631  69.343  1.00  0.00    -0.219 OA 
HETATM    8  C   UNL     1     -11.695  11.262  69.275  1.00  0.00    -0.334 C  
HETATM    9  H   UNL     1     -10.656  12.225  65.891  1.00  0.00     0.000 HD 
ENDROOT
BRANCH   5  10
HETATM   10  O   UNL     1     -10.074  13.891  67.660  1.00  0.00    -0.236 OA 
BRANCH  10  11
HETATM   11  P   UNL     1      -8.752  14.991  67.479  1.00  0.00    -0.208 P  
HETATM   12  O   UNL     1      -7.723  13.738  67.280  1.00  0.00    -0.157 OA 
HETATM   13  O   UNL     1      -9.264  15.362  66.080  1.00  0.00    -0.316 OA 
BRANCH  11  14
HETATM   14  O   UNL     1      -7.429  16.092  67.297  1.00  0.00    -0.161 OA 
HETATM   15  P   UNL     1      -7.810  17.586  68.080  1.00  0.00    -0.261 P  
HETATM   16  O   UNL     1      -8.152  18.924  68.782  1.00  0.00    -0.344 OA 
HETATM   17  O   UNL     1      -7.152  16.908  69.423  1.00  0.00    -0.227 OA 
HETATM   18  O   UNL     1      -6.362  18.098  67.495  1.00  0.00    -0.172 OA 
ENDBRANCH  11  14
ENDBRANCH  10  11
ENDBRANCH   5  10
BRANCH   8  19
HETATM   19  C   UNL     1     -12.023  10.743  70.673  1.00  0.00    -0.367 C  
BRANCH  19  20
HETATM   20  O   UNL     1     -12.229   9.348  70.554  1.00  0.00    -0.149 OA 
HETATM   21  P   UNL     1     -12.283   8.475  71.880  1.00  0.00    -0.405 P  
HETATM   22  O   UNL     1     -12.840   7.091  71.314  1.00  0.00    -0.377 OA 
HETATM   23  O   UNL     1     -11.028   8.393  72.670  1.00  0.00    -0.353 OA 
HETATM   24  O   UNL     1     -13.584   9.043  72.606  1.00  0.00    -0.465 OA 
ENDBRANCH  19  20
ENDBRANCH   8  19
TORSDOF 5
ENDMDL
MODEL      134
REMARK 921   NORMALIZED FREE ENERGY PREDICTED BY IDOCK:   -4.64 KCAL/MOL
REMARK 922        TOTAL FREE ENERGY PREDICTED BY IDOCK:   -6.71 KCAL/MOL
REMARK 923 INTER-LIGAND FREE ENERGY PREDICTED BY IDOCK:   -6.11 KCAL/MOL
REMARK 924 INTRA-LIGAND FREE ENERGY PREDICTED BY IDOCK:   -0.60 KCAL/MOL
REMARK 927      BINDING AFFINITY PREDICTED BY RF-SCORE:    0.00 PKD
ROOT
HETATM    1  O   UNL     1     -11.802   9.193  70.279  1.00  0.00    -0.465 OA 
HETATM    2  H   UNL     1     -11.517   8.287  70.313  1.00  0.00     0.000 HD 
HETATM    3  C   UNL     1     -11.142   9.924  69.249  1.00  0.00    -0.181 C  
HETATM    4  C   UNL     1     -11.597  11.371  69.195  1.00  0.00    -0.314 C  
HETATM    5  C   UNL     1     -10.435  12.009  68.396  1.00  0.00    -0.219 C  
HETATM    6  O   UNL     1     -11.694  11.881  70.542  1.00  0.00    -0.508 OA 
HETATM    7  O   UNL     1      -9.254  11.310  68.830  1.00  0.00    -0.182 OA 
HETATM    8  C   UNL     1      -9.663  10.114  69.532  1.00  0.00    -0.229 C  
HETATM    9  H   UNL     1     -11.978  12.787  70.508  1.00  0.00     0.000 HD 
ENDROOT
BRANCH   5  10
HETATM   10  O   UNL     1     -10.429  13.396  68.644  1.00  0.00    -0.243 OA 
BRANCH  10  11
HETATM   11  P   UNL     1     -10.681  14.616  67.445  1.00  0.00    -0.293 P  
HETATM   12  O   UNL     1     -12.005  13.825  66.905  1.00  0.00    -0.388 OA 
HETATM   13  O   UNL     1     -11.165  15.578  68.539  1.00  0.00    -0.295 OA 
BRANCH  11  14
HETATM   14  O   UNL     1     -10.935  15.836  66.245  1.00  0.00    -0.277 OA 
HETATM   15  P   UNL     1      -9.914  17.192  66.576  1.00  0.00    -0.319 P  
HETATM   16  O   UNL     1      -8.999  18.406  66.874  1.00  0.00    -0.264 OA 
HETATM   17  O   UNL     1      -8.797  16.420  65.654  1.00  0.00    -0.406 OA 
HETATM   18  O   UNL     1     -10.659  17.888  65.286  1.00  0.00    -0.637 OA 
ENDBRANCH  11  14
ENDBRANCH  10  11
ENDBRANCH   5  10
BRANCH   8  19
HETATM   19  C   UNL     1      -8.826   8.920  69.077  1.00  0.00    -0.136 C  
BRANCH  19  20
HETATM   20  O   UNL     1      -8.383   9.209  67.764  1.00  0.00    -0.116 OA 
HETATM   21  P   UNL     1      -8.591   8.108  66.637  1.00  0.00    -0.148 P  
HETATM   22  O   UNL     1      -8.267   8.952  65.322  1.00  0.00    -0.121 OA 
HETATM   23  O   UNL     1      -7.831   6.844  66.798  1.00  0.00    -0.103 OA 
HETATM   24  O   UNL     1     -10.180   8.015  66.545  1.00  0.00    -0.264 OA 
ENDBRANCH  19  20
ENDBRANCH   8  19
TORSDOF 5
ENDMDL
MODEL      135
REMARK 921   NORMALIZED FREE ENERGY PREDICTED BY IDOCK:   -4.62 KCAL/MOL
REMARK 922        TOTAL FREE ENERGY PREDICTED BY IDOCK:   -6.68 KCAL/MOL
REMARK 923 INTER-LIGAND FREE ENERGY PREDICTED BY IDOCK:   -5.74 KCAL/MOL
REMARK 924 INTRA-LIGAND FREE ENERGY PREDICTED BY IDOCK:   -0.94 KCAL/MOL
REMARK 927      BINDING AFFINITY PREDICTED BY RF-SCORE:    0.00 PKD
ROOT
HETATM    1  O   UNL     1     -10.736  14.286  65.008  1.00  0.00    -0.369 OA 
HETATM    2  H   UNL     1      -9.998  14.760  64.644  1.00  0.00     0.000 HD 
HETATM    3  C   UNL     1     -10.780  14.371  66.429  1.00  0.00    -0.306 C  
HETATM    4  C   UNL     1     -11.960  13.613  67.011  1.00  0.00    -0.406 C  
HETATM    5  C   UNL     1     -11.503  13.452  68.480  1.00  0.00    -0.310 C  
HETATM    6  O   UNL     1     -12.088  12.350  66.325  1.00  0.00    -0.612 OA 
HETATM    7  O   UNL     1     -10.079  13.256  68.411  1.00  0.00    -0.238 OA 
HETATM    8  C   UNL     1      -9.630  13.632  67.088  1.00  0.00    -0.241 C  
HETATM    9  H   UNL     1     -12.826  11.876  66.689  1.00  0.00     0.000 HD 
ENDROOT
BRANCH   5  10
HETATM   10  O   UNL     1     -12.221  12.386  69.059  1.00  0.00    -0.190 OA 
BRANCH  10  11
HETATM   11  P   UNL     1     -11.506  10.963  69.732  1.00  0.00    -0.350 P  
HETATM   12  O   UNL     1     -12.949  10.523  70.359  1.00  0.00    -0.314 OA 
HETATM   13  O   UNL     1     -11.434  10.346  68.329  1.00  0.00    -0.273 OA 
BRANCH  11  14
HETATM   14  O   UNL     1     -10.791   9.539  70.406  1.00  0.00    -0.238 OA 
HETATM   15  P   UNL     1      -9.888   8.713  69.184  1.00  0.00    -0.195 P  
HETATM   16  O   UNL     1      -9.079   7.974  68.089  1.00  0.00    -0.135 OA 
HETATM   17  O   UNL     1      -8.627   9.652  69.656  1.00  0.00    -0.153 OA 
HETATM   18  O   UNL     1      -9.622   7.581  70.346  1.00  0.00    -0.169 OA 
ENDBRANCH  11  14
ENDBRANCH  10  11
ENDBRANCH   5  10
BRANCH   8  19
HETATM   19  C   UNL     1      -8.367  14.485  67.180  1.00  0.00    -0.202 C  
BRANCH  19  20
HETATM   20  O   UNL     1      -8.745  15.712  67.775  1.00  0.00    -0.167 OA 
HETATM   21  P   UNL     1      -7.616  16.607  68.447  1.00  0.00    -0.219 P  
HETATM   22  O   UNL     1      -8.405  17.975  68.675  1.00  0.00    -0.304 OA 
HETATM   23  O   UNL     1      -6.946  16.038  69.643  1.00  0.00    -0.205 OA 
HETATM   24  O   UNL     1      -6.705  16.995  67.197  1.00  0.00    -0.146 OA 
ENDBRANCH  19  20
ENDBRANCH   8  19
TORSDOF 5
ENDMDL
MODEL      136
REMARK 921   NORMALIZED FREE ENERGY PREDICTED BY IDOCK:   -4.62 KCAL/MOL
REMARK 922        TOTAL FREE ENERGY PREDICTED BY IDOCK:   -6.67 KCAL/MOL
REMARK 923 INTER-LIGAND FREE ENERGY PREDICTED BY IDOCK:   -5.74 KCAL/MOL
REMARK 924 INTRA-LIGAND FREE ENERGY PREDICTED BY IDOCK:   -0.93 KCAL/MOL
REMARK 927      BINDING AFFINITY PREDICTED BY RF-SCORE:    0.00 PKD
ROOT
HETATM    1  O   UNL     1     -10.533  15.178  67.116  1.00  0.00    -0.270 OA 
HETATM    2  H   UNL     1     -11.136  15.325  66.397  1.00  0.00     0.000 HD 
HETATM    3  C   UNL     1      -9.522  14.231  66.784  1.00  0.00    -0.275 C  
HETATM    4  C   UNL     1      -8.559  13.996  67.933  1.00  0.00    -0.181 C  
HETATM    5  C   UNL     1      -7.928  12.648  67.510  1.00  0.00    -0.174 C  
HETATM    6  O   UNL     1      -9.311  13.899  69.161  1.00  0.00    -0.394 OA 
HETATM    7  O   UNL     1      -8.997  11.912  66.888  1.00  0.00    -0.183 OA 
HETATM    8  C   UNL     1     -10.078  12.830  66.604  1.00  0.00    -0.243 C  
HETATM    9  H   UNL     1      -8.708  13.752  69.880  1.00  0.00     0.000 HD 
ENDROOT
BRANCH   5  10
HETATM   10  O   UNL     1      -7.371  12.036  68.651  1.00  0.00    -0.103 OA 
BRANCH  10  11
HETATM   11  P   UNL     1      -7.956  10.578  69.374  1.00  0.00    -0.049 P  
HETATM   12  O   UNL     1      -7.082   9.691  68.316  1.00  0.00    -0.076 OA 
HETATM   13  O   UNL     1      -7.049  10.827  70.587  1.00  0.00    -0.076 OA 
BRANCH  11  14
HETATM   14  O   UNL     1      -8.539   9.119  70.098  1.00  0.00    -0.146 OA 
HETATM   15  P   UNL     1     -10.229   9.277  70.433  1.00  0.00    -0.274 P  
HETATM   16  O   UNL     1     -11.742   9.419  70.732  1.00  0.00    -0.276 OA 
HETATM   17  O   UNL     1     -10.459   8.697  68.915  1.00  0.00    -0.215 OA 
HETATM   18  O   UNL     1     -10.092   7.781  71.102  1.00  0.00    -0.187 OA 
ENDBRANCH  11  14
ENDBRANCH  10  11
ENDBRANCH   5  10
BRANCH   8  19
HETATM   19  C   UNL     1     -10.616  12.595  65.194  1.00  0.00    -0.298 C  
BRANCH  19  20
HETATM   20  O   UNL     1     -10.827  13.870  64.618  1.00  0.00    -0.390 OA 
HETATM   21  P   UNL     1     -12.262  14.205  64.024  1.00  0.00     0.012 P  
HETATM   22  O   UNL     1     -12.140  15.780  63.799  1.00  0.00    -0.648 OA 
HETATM   23  O   UNL     1     -12.690  13.413  62.843  1.00  0.00    -0.535 OA 
HETATM   24  O   UNL     1     -13.184  14.161  65.324  1.00  0.00    -0.760 OA 
ENDBRANCH  19  20
ENDBRANCH   8  19
TORSDOF 5
ENDMDL
MODEL      137
REMARK 921   NORMALIZED FREE ENERGY PREDICTED BY IDOCK:   -4.61 KCAL/MOL
REMARK 922        TOTAL FREE ENERGY PREDICTED BY IDOCK:   -6.66 KCAL/MOL
REMARK 923 INTER-LIGAND FREE ENERGY PREDICTED BY IDOCK:   -6.06 KCAL/MOL
REMARK 924 INTRA-LIGAND FREE ENERGY PREDICTED BY IDOCK:   -0.60 KCAL/MOL
REMARK 927      BINDING AFFINITY PREDICTED BY RF-SCORE:    0.00 PKD
ROOT
HETATM    1  O   UNL     1      -7.468  11.148  66.215  1.00  0.00    -0.233 OA 
HETATM    2  H   UNL     1      -7.822  10.613  65.513  1.00  0.00     0.000 HD 
HETATM    3  C   UNL     1      -8.493  11.779  66.976  1.00  0.00    -0.175 C  
HETATM    4  C   UNL     1      -7.928  12.634  68.097  1.00  0.00    -0.158 C  
HETATM    5  C   UNL     1      -9.142  13.541  68.408  1.00  0.00    -0.155 C  
HETATM    6  O   UNL     1      -6.795  13.373  67.595  1.00  0.00    -0.145 OA 
HETATM    7  O   UNL     1      -9.765  13.785  67.133  1.00  0.00    -0.232 OA 
HETATM    8  C   UNL     1      -9.238  12.835  66.178  1.00  0.00    -0.030 C  
HETATM    9  H   UNL     1      -6.441  13.907  68.296  1.00  0.00     0.000 HD 
ENDROOT
BRANCH   5  10
HETATM   10  O   UNL     1      -8.682  14.695  69.073  1.00  0.00    -0.169 OA 
BRANCH  10  11
HETATM   11  P   UNL     1      -9.095  16.317  68.640  1.00  0.00    -0.247 P  
HETATM   12  O   UNL     1     -10.252  16.341  69.793  1.00  0.00    -0.245 OA 
HETATM   13  O   UNL     1      -7.804  16.814  69.306  1.00  0.00    -0.195 OA 
BRANCH  11  14
HETATM   14  O   UNL     1      -9.508  17.941  68.207  1.00  0.00    -0.279 OA 
HETATM   15  P   UNL     1      -8.064  18.840  67.897  1.00  0.00    -0.274 P  
HETATM   16  O   UNL     1      -6.770  19.646  67.619  1.00  0.00    -0.224 OA 
HETATM   17  O   UNL     1      -8.217  18.316  66.349  1.00  0.00    -0.263 OA 
HETATM   18  O   UNL     1      -9.076  20.118  67.680  1.00  0.00    -0.336 OA 
ENDBRANCH  11  14
ENDBRANCH  10  11
ENDBRANCH   5  10
BRANCH   8  19
HETATM   19  C   UNL     1     -10.370  12.241  65.343  1.00  0.00    -0.269 C  
BRANCH  19  20
HETATM   20  O   UNL     1     -11.551  12.931  65.705  1.00  0.00    -0.328 OA 
HETATM   21  P   UNL     1     -12.082  14.079  64.743  1.00  0.00    -0.447 P  
HETATM   22  O   UNL     1     -13.538  14.333  65.343  1.00  0.00    -0.516 OA 
HETATM   23  O   UNL     1     -11.220  15.280  64.608  1.00  0.00    -0.396 OA 
HETATM   24  O   UNL     1     -12.444  13.270  63.418  1.00  0.00    -0.741 OA 
ENDBRANCH  19  20
ENDBRANCH   8  19
TORSDOF 5
ENDMDL
MODEL      138
REMARK 921   NORMALIZED FREE ENERGY PREDICTED BY IDOCK:   -4.59 KCAL/MOL
REMARK 922        TOTAL FREE ENERGY PREDICTED BY IDOCK:   -6.63 KCAL/MOL
REMARK 923 INTER-LIGAND FREE ENERGY PREDICTED BY IDOCK:   -6.30 KCAL/MOL
REMARK 924 INTRA-LIGAND FREE ENERGY PREDICTED BY IDOCK:   -0.34 KCAL/MOL
REMARK 927      BINDING AFFINITY PREDICTED BY RF-SCORE:    0.00 PKD
ROOT
HETATM    1  O   UNL     1      -8.574   6.502  64.453  1.00  0.00    -0.345 OA 
HETATM    2  H   UNL     1      -8.652   5.659  64.884  1.00  0.00     0.000 HD 
HETATM    3  C   UNL     1      -8.405   7.568  65.382  1.00  0.00    -0.124 C  
HETATM    4  C   UNL     1      -8.283   8.915  64.693  1.00  0.00    -0.163 C  
HETATM    5  C   UNL     1      -8.607   9.870  65.865  1.00  0.00    -0.137 C  
HETATM    6  O   UNL     1      -9.257   8.986  63.630  1.00  0.00    -0.361 OA 
HETATM    7  O   UNL     1      -9.614   9.190  66.637  1.00  0.00    -0.170 OA 
HETATM    8  C   UNL     1      -9.648   7.804  66.222  1.00  0.00    -0.108 C  
HETATM    9  H   UNL     1      -9.180   9.829  63.198  1.00  0.00     0.000 HD 
ENDROOT
BRANCH   5  10
HETATM   10  O   UNL     1      -9.005  11.113  65.334  1.00  0.00    -0.195 OA 
BRANCH  10  11
HETATM   11  P   UNL     1     -10.578  11.808  65.518  1.00  0.00    -0.292 P  
HETATM   12  O   UNL     1      -9.990  13.275  65.103  1.00  0.00    -0.246 OA 
HETATM   13  O   UNL     1     -11.020  11.130  64.213  1.00  0.00    -0.341 OA 
BRANCH  11  14
HETATM   14  O   UNL     1     -12.152  12.504  65.701  1.00  0.00    -0.480 OA 
HETATM   15  P   UNL     1     -12.292  13.890  64.676  1.00  0.00    -0.313 P  
HETATM   16  O   UNL     1     -12.417  15.131  63.758  1.00  0.00    -0.719 OA 
HETATM   17  O   UNL     1     -12.816  12.837  63.531  1.00  0.00    -0.693 OA 
HETATM   18  O   UNL     1     -13.780  14.064  65.354  1.00  0.00    -0.376 OA 
ENDBRANCH  11  14
ENDBRANCH  10  11
ENDBRANCH   5  10
BRANCH   8  19
HETATM   19  C   UNL     1      -9.708   6.888  67.442  1.00  0.00    -0.139 C  
BRANCH  19  20
HETATM   20  O   UNL     1     -10.661   7.448  68.327  1.00  0.00    -0.202 OA 
HETATM   21  P   UNL     1     -10.478   7.206  69.887  1.00  0.00    -0.235 P  
HETATM   22  O   UNL     1     -11.533   8.244  70.483  1.00  0.00    -0.257 OA 
HETATM   23  O   UNL     1     -10.610   5.805  70.360  1.00  0.00    -0.252 OA 
HETATM   24  O   UNL     1      -9.110   7.967  70.189  1.00  0.00    -0.149 OA 
ENDBRANCH  19  20
ENDBRANCH   8  19
TORSDOF 5
ENDMDL
MODEL      139
REMARK 921   NORMALIZED FREE ENERGY PREDICTED BY IDOCK:   -4.57 KCAL/MOL
REMARK 922        TOTAL FREE ENERGY PREDICTED BY IDOCK:   -6.61 KCAL/MOL
REMARK 923 INTER-LIGAND FREE ENERGY PREDICTED BY IDOCK:   -5.95 KCAL/MOL
REMARK 924 INTRA-LIGAND FREE ENERGY PREDICTED BY IDOCK:   -0.66 KCAL/MOL
REMARK 927      BINDING AFFINITY PREDICTED BY RF-SCORE:    0.00 PKD
ROOT
HETATM    1  O   UNL     1      -6.250  11.280  68.357  1.00  0.00    -0.046 OA 
HETATM    2  H   UNL     1      -6.646  10.420  68.433  1.00  0.00     0.000 HD 
HETATM    3  C   UNL     1      -7.224  12.316  68.289  1.00  0.00    -0.101 C  
HETATM    4  C   UNL     1      -6.591  13.690  68.166  1.00  0.00    -0.124 C  
HETATM    5  C   UNL     1      -7.787  14.513  67.630  1.00  0.00    -0.180 C  
HETATM    6  O   UNL     1      -5.498  13.618  67.227  1.00  0.00    -0.333 OA 
HETATM    7  O   UNL     1      -8.495  13.617  66.754  1.00  0.00    -0.117 OA 
HETATM    8  C   UNL     1      -8.028  12.270  67.002  1.00  0.00    -0.123 C  
HETATM    9  H   UNL     1      -5.101  14.478  67.151  1.00  0.00     0.000 HD 
ENDROOT
BRANCH   5  10
HETATM   10  O   UNL     1      -7.289  15.677  67.012  1.00  0.00    -0.212 OA 
BRANCH  10  11
HETATM   11  P   UNL     1      -7.845  17.282  67.336  1.00  0.00    -0.190 P  
HETATM   12  O   UNL     1      -6.342  17.719  67.803  1.00  0.00    -0.169 OA 
HETATM   13  O   UNL     1      -7.927  17.549  65.827  1.00  0.00    -0.548 OA 
BRANCH  11  14
HETATM   14  O   UNL     1      -8.400  18.889  67.660  1.00  0.00    -0.267 OA 
HETATM   15  P   UNL     1      -9.634  19.312  66.525  1.00  0.00    -0.398 P  
HETATM   16  O   UNL     1     -10.739  19.691  65.507  1.00  0.00    -0.473 OA 
HETATM   17  O   UNL     1     -10.682  18.659  67.606  1.00  0.00    -0.427 OA 
HETATM   18  O   UNL     1      -9.613  20.780  67.266  1.00  0.00    -0.457 OA 
ENDBRANCH  11  14
ENDBRANCH  10  11
ENDBRANCH   5  10
BRANCH   8  19
HETATM   19  C   UNL     1      -9.209  11.307  67.087  1.00  0.00    -0.163 C  
BRANCH  19  20
HETATM   20  O   UNL     1     -10.368  12.051  66.762  1.00  0.00    -0.204 OA 
HETATM   21  P   UNL     1     -11.485  12.238  67.876  1.00  0.00    -0.355 P  
HETATM   22  O   UNL     1     -12.398  13.364  67.209  1.00  0.00    -0.276 OA 
HETATM   23  O   UNL     1     -12.192  11.009  68.318  1.00  0.00    -0.582 OA 
HETATM   24  O   UNL     1     -10.719  13.094  68.982  1.00  0.00    -0.205 OA 
ENDBRANCH  19  20
ENDBRANCH   8  19
TORSDOF 5
ENDMDL
MODEL      140
REMARK 921   NORMALIZED FREE ENERGY PREDICTED BY IDOCK:   -4.57 KCAL/MOL
REMARK 922        TOTAL FREE ENERGY PREDICTED BY IDOCK:   -6.61 KCAL/MOL
REMARK 923 INTER-LIGAND FREE ENERGY PREDICTED BY IDOCK:   -6.03 KCAL/MOL
REMARK 924 INTRA-LIGAND FREE ENERGY PREDICTED BY IDOCK:   -0.58 KCAL/MOL
REMARK 927      BINDING AFFINITY PREDICTED BY RF-SCORE:    0.00 PKD
ROOT
HETATM    1  O   UNL     1     -10.009   8.387  69.925  1.00  0.00    -0.184 OA 
HETATM    2  H   UNL     1     -10.216   7.463  69.845  1.00  0.00     0.000 HD 
HETATM    3  C   UNL     1     -10.547   9.153  68.853  1.00  0.00    -0.191 C  
HETATM    4  C   UNL     1     -10.215  10.629  68.981  1.00  0.00    -0.215 C  
HETATM    5  C   UNL     1     -10.458  11.108  67.530  1.00  0.00    -0.204 C  
HETATM    6  O   UNL     1      -8.838  10.764  69.390  1.00  0.00    -0.363 OA 
HETATM    7  O   UNL     1     -10.022  10.017  66.698  1.00  0.00    -0.195 OA 
HETATM    8  C   UNL     1      -9.880   8.839  67.526  1.00  0.00    -0.179 C  
HETATM    9  H   UNL     1      -8.630  11.688  69.471  1.00  0.00     0.000 HD 
ENDROOT
BRANCH   5  10
HETATM   10  O   UNL     1      -9.763  12.317  67.334  1.00  0.00    -0.182 OA 
BRANCH  10  11
HETATM   11  P   UNL     1     -10.198  13.533  66.184  1.00  0.00    -0.311 P  
HETATM   12  O   UNL     1     -11.211  12.485  65.445  1.00  0.00    -0.289 OA 
HETATM   13  O   UNL     1     -11.023  14.247  67.264  1.00  0.00    -0.286 OA 
BRANCH  11  14
HETATM   14  O   UNL     1     -10.635  14.748  65.032  1.00  0.00    -0.386 OA 
HETATM   15  P   UNL     1     -10.624  16.299  65.799  1.00  0.00    -0.212 P  
HETATM   16  O   UNL     1     -10.614  17.687  66.486  1.00  0.00    -0.304 OA 
HETATM   17  O   UNL     1      -9.041  16.363  65.369  1.00  0.00    -0.274 OA 
HETATM   18  O   UNL     1     -11.154  16.862  64.348  1.00  0.00    -1.128 OA 
ENDBRANCH  11  14
ENDBRANCH  10  11
ENDBRANCH   5  10
BRANCH   8  19
HETATM   19  C   UNL     1     -10.502   7.628  66.834  1.00  0.00    -0.318 C  
BRANCH  19  20
HETATM   20  O   UNL     1      -9.956   6.478  67.455  1.00  0.00    -0.127 OA 
HETATM   21  P   UNL     1      -9.479   5.276  66.532  1.00  0.00    -0.171 P  
HETATM   22  O   UNL     1      -8.669   4.388  67.582  1.00  0.00    -0.102 OA 
HETATM   23  O   UNL     1     -10.536   4.569  65.767  1.00  0.00    -0.285 OA 
HETATM   24  O   UNL     1      -8.280   5.933  65.713  1.00  0.00    -0.118 OA 
ENDBRANCH  19  20
ENDBRANCH   8  19
TORSDOF 5
ENDMDL
MODEL      141
REMARK 921   NORMALIZED FREE ENERGY PREDICTED BY IDOCK:   -4.56 KCAL/MOL
REMARK 922        TOTAL FREE ENERGY PREDICTED BY IDOCK:   -6.59 KCAL/MOL
REMARK 923 INTER-LIGAND FREE ENERGY PREDICTED BY IDOCK:   -5.90 KCAL/MOL
REMARK 924 INTRA-LIGAND FREE ENERGY PREDICTED BY IDOCK:   -0.69 KCAL/MOL
REMARK 927      BINDING AFFINITY PREDICTED BY RF-SCORE:    0.00 PKD
ROOT
HETATM    1  O   UNL     1     -12.892  16.274  71.263  1.00  0.00    -0.444 OA 
HETATM    2  H   UNL     1     -12.755  17.204  71.126  1.00  0.00     0.000 HD 
HETATM    3  C   UNL     1     -11.861  15.487  70.675  1.00  0.00    -0.365 C  
HETATM    4  C   UNL     1     -12.081  14.001  70.894  1.00  0.00    -0.329 C  
HETATM    5  C   UNL     1     -11.167  13.409  69.794  1.00  0.00     0.023 C  
HETATM    6  O   UNL     1     -13.476  13.699  70.682  1.00  0.00     0.089 OA 
HETATM    7  O   UNL     1     -11.277  14.320  68.685  1.00  0.00    -0.240 OA 
HETATM    8  C   UNL     1     -11.883  15.546  69.158  1.00  0.00    -0.354 C  
HETATM    9  H   UNL     1     -13.613  12.769  70.819  1.00  0.00     0.000 HD 
ENDROOT
BRANCH   5  10
HETATM   10  O   UNL     1     -11.587  12.092  69.524  1.00  0.00    -0.293 OA 
BRANCH  10  11
HETATM   11  P   UNL     1     -10.779  10.996  68.457  1.00  0.00    -0.241 P  
HETATM   12  O   UNL     1     -11.283   9.731  69.359  1.00  0.00    -0.205 OA 
HETATM   13  O   UNL     1     -11.865  11.239  67.400  1.00  0.00    -0.590 OA 
BRANCH  11  14
HETATM   14  O   UNL     1      -9.970   9.900  67.390  1.00  0.00    -0.171 OA 
HETATM   15  P   UNL     1     -10.011  10.527  65.779  1.00  0.00    -0.260 P  
HETATM   16  O   UNL     1     -10.048  11.090  64.337  1.00  0.00    -0.280 OA 
HETATM   17  O   UNL     1      -8.609  11.286  66.171  1.00  0.00    -0.176 OA 
HETATM   18  O   UNL     1      -9.263   9.123  65.365  1.00  0.00    -0.219 OA 
ENDBRANCH  11  14
ENDBRANCH  10  11
ENDBRANCH   5  10
BRANCH   8  19
HETATM   19  C   UNL     1     -11.128  16.755  68.612  1.00  0.00    -0.247 C  
BRANCH  19  20
HETATM   20  O   UNL     1     -10.172  16.260  67.693  1.00  0.00    -0.259 OA 
HETATM   21  P   UNL     1      -9.861  17.115  66.390  1.00  0.00    -0.286 P  
HETATM   22  O   UNL     1      -8.552  16.381  65.847  1.00  0.00    -0.407 OA 
HETATM   23  O   UNL     1     -10.970  17.266  65.416  1.00  0.00    -0.381 OA 
HETATM   24  O   UNL     1      -9.223  18.442  67.003  1.00  0.00    -0.263 OA 
ENDBRANCH  19  20
ENDBRANCH   8  19
TORSDOF 5
ENDMDL
MODEL      142
REMARK 921   NORMALIZED FREE ENERGY PREDICTED BY IDOCK:   -4.50 KCAL/MOL
REMARK 922        TOTAL FREE ENERGY PREDICTED BY IDOCK:   -6.52 KCAL/MOL
REMARK 923 INTER-LIGAND FREE ENERGY PREDICTED BY IDOCK:   -5.65 KCAL/MOL
REMARK 924 INTRA-LIGAND FREE ENERGY PREDICTED BY IDOCK:   -0.87 KCAL/MOL
REMARK 927      BINDING AFFINITY PREDICTED BY RF-SCORE:    0.00 PKD
ROOT
HETATM    1  O   UNL     1      -8.698   6.839  69.331  1.00  0.00    -0.134 OA 
HETATM    2  H   UNL     1      -8.413   5.933  69.331  1.00  0.00     0.000 HD 
HETATM    3  C   UNL     1      -9.146   7.261  68.047  1.00  0.00    -0.133 C  
HETATM    4  C   UNL     1      -9.601   8.709  68.048  1.00  0.00    -0.149 C  
HETATM    5  C   UNL     1      -9.548   9.029  66.535  1.00  0.00    -0.223 C  
HETATM    6  O   UNL     1      -8.665   9.493  68.817  1.00  0.00    -0.124 OA 
HETATM    7  O   UNL     1      -8.410   8.302  66.037  1.00  0.00    -0.114 OA 
HETATM    8  C   UNL     1      -8.017   7.331  67.035  1.00  0.00    -0.109 C  
HETATM    9  H   UNL     1      -8.950  10.399  68.817  1.00  0.00     0.000 HD 
ENDROOT
BRANCH   5  10
HETATM   10  O   UNL     1      -9.475  10.427  66.374  1.00  0.00    -0.161 OA 
BRANCH  10  11
HETATM   11  P   UNL     1     -10.836  11.494  66.366  1.00  0.00    -0.246 P  
HETATM   12  O   UNL     1     -10.575  11.856  67.938  1.00  0.00    -0.192 OA 
HETATM   13  O   UNL     1     -10.026  12.507  65.545  1.00  0.00    -0.263 OA 
BRANCH  11  14
HETATM   14  O   UNL     1     -12.198  12.561  66.359  1.00  0.00    -0.584 OA 
HETATM   15  P   UNL     1     -12.270  13.394  64.845  1.00  0.00    -0.420 P  
HETATM   16  O   UNL     1     -12.333  14.139  63.488  1.00  0.00    -0.738 OA 
HETATM   17  O   UNL     1     -13.175  12.125  64.330  1.00  0.00    -0.758 OA 
HETATM   18  O   UNL     1     -13.553  14.184  65.502  1.00  0.00    -0.568 OA 
ENDBRANCH  11  14
ENDBRANCH  10  11
ENDBRANCH   5  10
BRANCH   8  19
HETATM   19  C   UNL     1      -7.739   5.980  66.379  1.00  0.00    -0.102 C  
BRANCH  19  20
HETATM   20  O   UNL     1      -8.318   4.994  67.213  1.00  0.00    -0.107 OA 
HETATM   21  P   UNL     1      -8.965   3.712  66.532  1.00  0.00    -0.168 P  
HETATM   22  O   UNL     1      -9.179   2.767  67.800  1.00  0.00    -0.170 OA 
HETATM   23  O   UNL     1     -10.164   3.945  65.689  1.00  0.00    -0.112 OA 
HETATM   24  O   UNL     1      -7.701   3.016  65.853  1.00  0.00    -0.076 OA 
ENDBRANCH  19  20
ENDBRANCH   8  19
TORSDOF 5
ENDMDL
MODEL      143
REMARK 921   NORMALIZED FREE ENERGY PREDICTED BY IDOCK:   -4.48 KCAL/MOL
REMARK 922        TOTAL FREE ENERGY PREDICTED BY IDOCK:   -6.49 KCAL/MOL
REMARK 923 INTER-LIGAND FREE ENERGY PREDICTED BY IDOCK:   -6.20 KCAL/MOL
REMARK 924 INTRA-LIGAND FREE ENERGY PREDICTED BY IDOCK:   -0.29 KCAL/MOL
REMARK 927      BINDING AFFINITY PREDICTED BY RF-SCORE:    0.00 PKD
ROOT
HETATM    1  O   UNL     1      -6.823  12.502  66.630  1.00  0.00    -0.377 OA 
HETATM    2  H   UNL     1      -6.464  11.643  66.444  1.00  0.00     0.000 HD 
HETATM    3  C   UNL     1      -7.966  12.434  67.476  1.00  0.00    -0.173 C  
HETATM    4  C   UNL     1      -8.540  13.807  67.774  1.00  0.00    -0.184 C  
HETATM    5  C   UNL     1      -9.964  13.429  68.247  1.00  0.00    -0.240 C  
HETATM    6  O   UNL     1      -8.544  14.586  66.559  1.00  0.00    -0.436 OA 
HETATM    7  O   UNL     1     -10.342  12.303  67.435  1.00  0.00    -0.205 OA 
HETATM    8  C   UNL     1      -9.155  11.785  66.790  1.00  0.00    -0.194 C  
HETATM    9  H   UNL     1      -8.903  15.445  66.746  1.00  0.00     0.000 HD 
ENDROOT
BRANCH   5  10
HETATM   10  O   UNL     1     -10.795  14.560  68.118  1.00  0.00    -0.233 OA 
BRANCH  10  11
HETATM   11  P   UNL     1     -11.794  15.201  69.375  1.00  0.00    -0.308 P  
HETATM   12  O   UNL     1     -12.225  13.688  69.818  1.00  0.00    -0.321 OA 
HETATM   13  O   UNL     1     -10.537  15.551  70.184  1.00  0.00    -0.299 OA 
BRANCH  11  14
HETATM   14  O   UNL     1     -12.795  15.841  70.633  1.00  0.00    -0.438 OA 
HETATM   15  P   UNL     1     -13.390  14.546  71.612  1.00  0.00    -0.423 P  
HETATM   16  O   UNL     1     -13.923  13.385  72.489  1.00  0.00    -0.707 OA 
HETATM   17  O   UNL     1     -12.024  14.752  72.499  1.00  0.00    -0.285 OA 
HETATM   18  O   UNL     1     -14.218  15.720  72.412  1.00  0.00    -0.527 OA 
ENDBRANCH  11  14
ENDBRANCH  10  11
ENDBRANCH   5  10
BRANCH   8  19
HETATM   19  C   UNL     1      -9.122  10.262  66.886  1.00  0.00    -0.143 C  
BRANCH  19  20
HETATM   20  O   UNL     1      -7.961   9.834  66.199  1.00  0.00    -0.107 OA 
HETATM   21  P   UNL     1      -8.120   8.747  65.051  1.00  0.00    -0.159 P  
HETATM   22  O   UNL     1      -6.680   8.814  64.365  1.00  0.00    -0.071 OA 
HETATM   23  O   UNL     1      -8.573   7.398  65.474  1.00  0.00    -0.139 OA 
HETATM   24  O   UNL     1      -8.999   9.522  63.970  1.00  0.00    -0.229 OA 
ENDBRANCH  19  20
ENDBRANCH   8  19
TORSDOF 5
ENDMDL
MODEL      144
REMARK 921   NORMALIZED FREE ENERGY PREDICTED BY IDOCK:   -4.46 KCAL/MOL
REMARK 922        TOTAL FREE ENERGY PREDICTED BY IDOCK:   -6.47 KCAL/MOL
REMARK 923 INTER-LIGAND FREE ENERGY PREDICTED BY IDOCK:   -5.47 KCAL/MOL
REMARK 924 INTRA-LIGAND FREE ENERGY PREDICTED BY IDOCK:   -0.99 KCAL/MOL
REMARK 927      BINDING AFFINITY PREDICTED BY RF-SCORE:    0.00 PKD
ROOT
HETATM    1  O   UNL     1      -8.684   8.767  71.861  1.00  0.00    -0.284 OA 
HETATM    2  H   UNL     1      -8.749   8.081  72.516  1.00  0.00     0.000 HD 
HETATM    3  C   UNL     1      -9.817   8.795  70.999  1.00  0.00    -0.230 C  
HETATM    4  C   UNL     1      -9.712   9.890  69.953  1.00  0.00    -0.235 C  
HETATM    5  C   UNL     1     -10.746   9.396  68.913  1.00  0.00    -0.178 C  
HETATM    6  O   UNL     1      -8.366   9.913  69.434  1.00  0.00    -0.128 OA 
HETATM    7  O   UNL     1     -10.633   7.961  68.925  1.00  0.00    -0.211 OA 
HETATM    8  C   UNL     1      -9.893   7.571  70.104  1.00  0.00    -0.180 C  
HETATM    9  H   UNL     1      -8.301  10.599  68.779  1.00  0.00     0.000 HD 
ENDROOT
BRANCH   5  10
HETATM   10  O   UNL     1     -10.461  10.004  67.674  1.00  0.00    -0.211 OA 
BRANCH  10  11
HETATM   11  P   UNL     1     -10.711  11.676  67.313  1.00  0.00    -0.267 P  
HETATM   12  O   UNL     1     -10.880  11.319  65.728  1.00  0.00    -0.261 OA 
HETATM   13  O   UNL     1     -12.113  11.591  67.931  1.00  0.00    -0.630 OA 
BRANCH  11  14
HETATM   14  O   UNL     1     -10.961  13.350  66.951  1.00  0.00    -0.278 OA 
HETATM   15  P   UNL     1     -11.533  14.166  68.365  1.00  0.00    -0.344 P  
HETATM   16  O   UNL     1     -12.045  14.897  69.631  1.00  0.00    -0.300 OA 
HETATM   17  O   UNL     1      -9.948  14.409  68.716  1.00  0.00    -0.233 OA 
HETATM   18  O   UNL     1     -11.632  15.486  67.389  1.00  0.00    -0.222 OA 
ENDBRANCH  11  14
ENDBRANCH  10  11
ENDBRANCH   5  10
BRANCH   8  19
HETATM   19  C   UNL     1     -10.575   6.390  70.791  1.00  0.00    -0.238 C  
BRANCH  19  20
HETATM   20  O   UNL     1     -10.768   6.759  72.144  1.00  0.00    -0.213 OA 
HETATM   21  P   UNL     1     -10.178   5.814  73.277  1.00  0.00    -0.232 P  
HETATM   22  O   UNL     1     -10.332   6.746  74.563  1.00  0.00    -0.283 OA 
HETATM   23  O   UNL     1     -10.773   4.459  73.385  1.00  0.00    -0.191 OA 
HETATM   24  O   UNL     1      -8.608   5.919  73.021  1.00  0.00    -0.124 OA 
ENDBRANCH  19  20
ENDBRANCH   8  19
TORSDOF 5
ENDMDL
MODEL      145
REMARK 921   NORMALIZED FREE ENERGY PREDICTED BY IDOCK:   -4.45 KCAL/MOL
REMARK 922        TOTAL FREE ENERGY PREDICTED BY IDOCK:   -6.46 KCAL/MOL
REMARK 923 INTER-LIGAND FREE ENERGY PREDICTED BY IDOCK:   -5.75 KCAL/MOL
REMARK 924 INTRA-LIGAND FREE ENERGY PREDICTED BY IDOCK:   -0.71 KCAL/MOL
REMARK 927      BINDING AFFINITY PREDICTED BY RF-SCORE:    0.00 PKD
ROOT
HETATM    1  O   UNL     1      -7.672  16.264  66.710  1.00  0.00    -0.215 OA 
HETATM    2  H   UNL     1      -7.196  16.829  66.113  1.00  0.00     0.000 HD 
HETATM    3  C   UNL     1      -9.019  16.691  66.893  1.00  0.00    -0.222 C  
HETATM    4  C   UNL     1      -9.780  15.789  67.847  1.00  0.00    -0.216 C  
HETATM    5  C   UNL     1     -10.961  16.709  68.235  1.00  0.00    -0.341 C  
HETATM    6  O   UNL     1      -8.929  15.471  68.969  1.00  0.00    -0.201 OA 
HETATM    7  O   UNL     1     -10.402  18.035  68.287  1.00  0.00    -0.368 OA 
HETATM    8  C   UNL     1      -9.111  18.012  67.635  1.00  0.00    -0.255 C  
HETATM    9  H   UNL     1      -9.405  14.906  69.566  1.00  0.00     0.000 HD 
ENDROOT
BRANCH   5  10
HETATM   10  O   UNL     1     -11.509  16.249  69.449  1.00  0.00    -0.308 OA 
BRANCH  10  11
HETATM   11  P   UNL     1     -11.764  14.586  69.850  1.00  0.00    -0.323 P  
HETATM   12  O   UNL     1     -10.913  14.779  71.231  1.00  0.00    -0.054 OA 
HETATM   13  O   UNL     1     -13.227  14.903  70.192  1.00  0.00    -0.086 OA 
BRANCH  11  14
HETATM   14  O   UNL     1     -12.019  12.923  70.253  1.00  0.00    -0.341 OA 
HETATM   15  P   UNL     1     -11.897  11.958  68.822  1.00  0.00    -0.184 P  
HETATM   16  O   UNL     1     -11.787  11.095  67.541  1.00  0.00    -0.591 OA 
HETATM   17  O   UNL     1     -10.295  11.867  69.169  1.00  0.00    -0.094 OA 
HETATM   18  O   UNL     1     -12.293  10.702  69.807  1.00  0.00    -0.299 OA 
ENDBRANCH  11  14
ENDBRANCH  10  11
ENDBRANCH   5  10
BRANCH   8  19
HETATM   19  C   UNL     1      -8.967  19.213  66.704  1.00  0.00    -0.328 C  
BRANCH  19  20
HETATM   20  O   UNL     1      -8.124  18.809  65.641  1.00  0.00    -0.426 OA 
HETATM   21  P   UNL     1      -6.688  19.477  65.518  1.00  0.00    -0.248 P  
HETATM   22  O   UNL     1      -5.999  18.526  64.438  1.00  0.00    -0.288 OA 
HETATM   23  O   UNL     1      -6.658  20.930  65.213  1.00  0.00    -0.201 OA 
HETATM   24  O   UNL     1      -5.968  18.982  66.852  1.00  0.00    -0.163 OA 
ENDBRANCH  19  20
ENDBRANCH   8  19
TORSDOF 5
ENDMDL
MODEL      146
REMARK 921   NORMALIZED FREE ENERGY PREDICTED BY IDOCK:   -4.44 KCAL/MOL
REMARK 922        TOTAL FREE ENERGY PREDICTED BY IDOCK:   -6.44 KCAL/MOL
REMARK 923 INTER-LIGAND FREE ENERGY PREDICTED BY IDOCK:   -6.39 KCAL/MOL
REMARK 924 INTRA-LIGAND FREE ENERGY PREDICTED BY IDOCK:   -0.05 KCAL/MOL
REMARK 927      BINDING AFFINITY PREDICTED BY RF-SCORE:    0.00 PKD
ROOT
HETATM    1  O   UNL     1     -10.170  16.459  66.601  1.00  0.00    -0.277 OA 
HETATM    2  H   UNL     1     -10.182  17.252  67.125  1.00  0.00     0.000 HD 
HETATM    3  C   UNL     1     -11.139  15.512  67.040  1.00  0.00    -0.238 C  
HETATM    4  C   UNL     1     -11.119  14.245  66.203  1.00  0.00    -0.324 C  
HETATM    5  C   UNL     1     -11.851  13.263  67.149  1.00  0.00    -0.374 C  
HETATM    6  O   UNL     1      -9.748  13.867  65.960  1.00  0.00    -0.359 OA 
HETATM    7  O   UNL     1     -11.431  13.635  68.474  1.00  0.00    -0.269 OA 
HETATM    8  C   UNL     1     -10.809  14.940  68.407  1.00  0.00    -0.251 C  
HETATM    9  H   UNL     1      -9.736  13.074  65.436  1.00  0.00     0.000 HD 
ENDROOT
BRANCH   5  10
HETATM   10  O   UNL     1     -11.523  11.946  66.771  1.00  0.00    -0.364 OA 
BRANCH  10  11
HETATM   11  P   UNL     1     -10.752  10.786  67.796  1.00  0.00    -0.294 P  
HETATM   12  O   UNL     1     -12.087  10.716  68.736  1.00  0.00    -0.389 OA 
HETATM   13  O   UNL     1     -10.930   9.719  66.706  1.00  0.00    -0.074 OA 
BRANCH  11  14
HETATM   14  O   UNL     1      -9.983   9.625  68.822  1.00  0.00    -0.163 OA 
HETATM   15  P   UNL     1     -10.063   8.062  68.085  1.00  0.00    -0.205 P  
HETATM   16  O   UNL     1     -10.135   6.662  67.426  1.00  0.00    -0.138 OA 
HETATM   17  O   UNL     1      -8.645   8.465  67.363  1.00  0.00    -0.123 OA 
HETATM   18  O   UNL     1      -9.337   7.532  69.463  1.00  0.00    -0.153 OA 
ENDBRANCH  11  14
ENDBRANCH  10  11
ENDBRANCH   5  10
BRANCH   8  19
HETATM   19  C   UNL     1     -11.313  15.826  69.544  1.00  0.00    -0.328 C  
BRANCH  19  20
HETATM   20  O   UNL     1     -11.469  14.989  70.676  1.00  0.00    -0.271 OA 
HETATM   21  P   UNL     1     -12.411  15.482  71.857  1.00  0.00    -0.494 P  
HETATM   22  O   UNL     1     -12.545  14.146  72.719  1.00  0.00    -0.265 OA 
HETATM   23  O   UNL     1     -11.966  16.689  72.599  1.00  0.00    -0.490 OA 
HETATM   24  O   UNL     1     -13.841  15.527  71.153  1.00  0.00    -0.549 OA 
ENDBRANCH  19  20
ENDBRANCH   8  19
TORSDOF 5
ENDMDL
MODEL      147
REMARK 921   NORMALIZED FREE ENERGY PREDICTED BY IDOCK:   -4.42 KCAL/MOL
REMARK 922        TOTAL FREE ENERGY PREDICTED BY IDOCK:   -6.41 KCAL/MOL
REMARK 923 INTER-LIGAND FREE ENERGY PREDICTED BY IDOCK:   -6.38 KCAL/MOL
REMARK 924 INTRA-LIGAND FREE ENERGY PREDICTED BY IDOCK:   -0.03 KCAL/MOL
REMARK 927      BINDING AFFINITY PREDICTED BY RF-SCORE:    0.00 PKD
ROOT
HETATM    1  O   UNL     1      -7.792  10.740  68.579  1.00  0.00    -0.107 OA 
HETATM    2  H   UNL     1      -8.009  10.027  69.167  1.00  0.00     0.000 HD 
HETATM    3  C   UNL     1      -8.852  11.685  68.468  1.00  0.00    -0.131 C  
HETATM    4  C   UNL     1      -8.506  12.825  67.527  1.00  0.00    -0.181 C  
HETATM    5  C   UNL     1      -9.915  13.381  67.216  1.00  0.00    -0.232 C  
HETATM    6  O   UNL     1      -7.849  12.286  66.361  1.00  0.00    -0.372 OA 
HETATM    7  O   UNL     1     -10.773  12.226  67.171  1.00  0.00    -0.224 OA 
HETATM    8  C   UNL     1     -10.067  11.110  67.763  1.00  0.00    -0.178 C  
HETATM    9  H   UNL     1      -7.632  13.000  65.773  1.00  0.00     0.000 HD 
ENDROOT
BRANCH   5  10
HETATM   10  O   UNL     1      -9.851  14.120  66.018  1.00  0.00    -0.304 OA 
BRANCH  10  11
HETATM   11  P   UNL     1      -9.792  15.846  65.922  1.00  0.00    -0.334 P  
HETATM   12  O   UNL     1     -10.805  15.961  67.199  1.00  0.00    -0.319 OA 
HETATM   13  O   UNL     1      -8.368  15.819  66.496  1.00  0.00    -0.272 OA 
BRANCH  11  14
HETATM   14  O   UNL     1      -9.733  17.572  65.828  1.00  0.00    -0.534 OA 
HETATM   15  P   UNL     1      -8.444  18.160  66.820  1.00  0.00    -0.270 P  
HETATM   16  O   UNL     1      -7.290  18.686  67.709  1.00  0.00    -0.225 OA 
HETATM   17  O   UNL     1      -7.503  17.987  65.487  1.00  0.00    -0.538 OA 
HETATM   18  O   UNL     1      -8.978  19.653  66.383  1.00  0.00    -0.349 OA 
ENDBRANCH  11  14
ENDBRANCH  10  11
ENDBRANCH   5  10
BRANCH   8  19
HETATM   19  C   UNL     1     -10.986  10.348  68.715  1.00  0.00    -0.245 C  
BRANCH  19  20
HETATM   20  O   UNL     1     -10.235  10.085  69.885  1.00  0.00    -0.239 OA 
HETATM   21  P   UNL     1     -10.949   9.334  71.090  1.00  0.00    -0.393 P  
HETATM   22  O   UNL     1      -9.697   8.972  72.010  1.00  0.00    -0.290 OA 
HETATM   23  O   UNL     1     -12.056  10.062  71.760  1.00  0.00    -0.373 OA 
HETATM   24  O   UNL     1     -11.273   7.908  70.455  1.00  0.00    -0.269 OA 
ENDBRANCH  19  20
ENDBRANCH   8  19
TORSDOF 5
ENDMDL
MODEL      148
REMARK 921   NORMALIZED FREE ENERGY PREDICTED BY IDOCK:   -4.40 KCAL/MOL
REMARK 922        TOTAL FREE ENERGY PREDICTED BY IDOCK:   -6.39 KCAL/MOL
REMARK 923 INTER-LIGAND FREE ENERGY PREDICTED BY IDOCK:   -6.12 KCAL/MOL
REMARK 924 INTRA-LIGAND FREE ENERGY PREDICTED BY IDOCK:   -0.28 KCAL/MOL
REMARK 927      BINDING AFFINITY PREDICTED BY RF-SCORE:    0.00 PKD
ROOT
HETATM    1  O   UNL     1      -6.760  12.673  66.631  1.00  0.00    -0.386 OA 
HETATM    2  H   UNL     1      -6.440  11.791  66.483  1.00  0.00     0.000 HD 
HETATM    3  C   UNL     1      -7.851  12.701  67.546  1.00  0.00    -0.175 C  
HETATM    4  C   UNL     1      -8.362  14.111  67.782  1.00  0.00    -0.174 C  
HETATM    5  C   UNL     1      -9.766  13.816  68.363  1.00  0.00    -0.219 C  
HETATM    6  O   UNL     1      -8.417  14.807  66.519  1.00  0.00    -0.424 OA 
HETATM    7  O   UNL     1     -10.228  12.653  67.653  1.00  0.00    -0.212 OA 
HETATM    8  C   UNL     1      -9.100  12.051  66.977  1.00  0.00    -0.191 C  
HETATM    9  H   UNL     1      -8.736  15.689  66.668  1.00  0.00     0.000 HD 
ENDROOT
BRANCH   5  10
HETATM   10  O   UNL     1     -10.567  14.964  68.206  1.00  0.00    -0.233 OA 
BRANCH  10  11
HETATM   11  P   UNL     1     -11.845  15.432  69.273  1.00  0.00    -0.288 P  
HETATM   12  O   UNL     1     -11.446  14.222  70.297  1.00  0.00    -0.246 OA 
HETATM   13  O   UNL     1     -11.025  16.656  69.704  1.00  0.00    -0.318 OA 
BRANCH  11  14
HETATM   14  O   UNL     1     -13.123  15.899  70.342  1.00  0.00    -0.349 OA 
HETATM   15  P   UNL     1     -13.024  14.972  71.799  1.00  0.00    -0.427 P  
HETATM   16  O   UNL     1     -12.936  14.141  73.103  1.00  0.00    -0.470 OA 
HETATM   17  O   UNL     1     -12.039  16.165  72.345  1.00  0.00    -0.481 OA 
HETATM   18  O   UNL     1     -14.401  15.763  72.227  1.00  0.00    -0.494 OA 
ENDBRANCH  11  14
ENDBRANCH  10  11
ENDBRANCH   5  10
BRANCH   8  19
HETATM   19  C   UNL     1      -9.109  10.537  67.174  1.00  0.00    -0.143 C  
BRANCH  19  20
HETATM   20  O   UNL     1      -9.979  10.272  68.259  1.00  0.00    -0.143 OA 
HETATM   21  P   UNL     1      -9.460   9.334  69.433  1.00  0.00    -0.186 P  
HETATM   22  O   UNL     1     -10.587   9.576  70.537  1.00  0.00    -0.251 OA 
HETATM   23  O   UNL     1      -9.193   7.918  69.079  1.00  0.00    -0.148 OA 
HETATM   24  O   UNL     1      -8.260  10.189  70.042  1.00  0.00    -0.160 OA 
ENDBRANCH  19  20
ENDBRANCH   8  19
TORSDOF 5
ENDMDL
MODEL      149
REMARK 921   NORMALIZED FREE ENERGY PREDICTED BY IDOCK:   -4.40 KCAL/MOL
REMARK 922        TOTAL FREE ENERGY PREDICTED BY IDOCK:   -6.39 KCAL/MOL
REMARK 923 INTER-LIGAND FREE ENERGY PREDICTED BY IDOCK:   -5.67 KCAL/MOL
REMARK 924 INTRA-LIGAND FREE ENERGY PREDICTED BY IDOCK:   -0.73 KCAL/MOL
REMARK 927      BINDING AFFINITY PREDICTED BY RF-SCORE:    0.00 PKD
ROOT
HETATM    1  O   UNL     1     -12.658  10.896  68.934  1.00  0.00    -0.698 OA 
HETATM    2  H   UNL     1     -12.875  11.744  68.564  1.00  0.00     0.000 HD 
HETATM    3  C   UNL     1     -11.383  10.899  69.569  1.00  0.00    -0.283 C  
HETATM    4  C   UNL     1     -11.036   9.544  70.159  1.00  0.00    -0.262 C  
HETATM    5  C   UNL     1      -9.503   9.681  70.315  1.00  0.00    -0.248 C  
HETATM    6  O   UNL     1     -11.411   8.515  69.219  1.00  0.00    -0.413 OA 
HETATM    7  O   UNL     1      -9.078  10.455  69.179  1.00  0.00    -0.176 OA 
HETATM    8  C   UNL     1     -10.244  11.063  68.578  1.00  0.00    -0.192 C  
HETATM    9  H   UNL     1     -11.194   7.667  69.589  1.00  0.00     0.000 HD 
ENDROOT
BRANCH   5  10
HETATM   10  O   UNL     1      -8.943   8.391  70.398  1.00  0.00    -0.141 OA 
BRANCH  10  11
HETATM   11  P   UNL     1      -9.074   7.342  71.766  1.00  0.00    -0.129 P  
HETATM   12  O   UNL     1      -7.625   6.678  71.409  1.00  0.00    -0.090 OA 
HETATM   13  O   UNL     1      -8.791   8.532  72.694  1.00  0.00    -0.293 OA 
BRANCH  11  14
HETATM   14  O   UNL     1      -9.204   6.292  73.136  1.00  0.00    -0.130 OA 
HETATM   15  P   UNL     1     -10.757   5.530  73.132  1.00  0.00    -0.306 P  
HETATM   16  O   UNL     1     -12.148   4.848  73.129  1.00  0.00    -0.146 OA 
HETATM   17  O   UNL     1     -10.047   4.365  72.221  1.00  0.00    -0.177 OA 
HETATM   18  O   UNL     1     -10.276   4.864  74.556  1.00  0.00    -0.223 OA 
ENDBRANCH  11  14
ENDBRANCH  10  11
ENDBRANCH   5  10
BRANCH   8  19
HETATM   19  C   UNL     1      -9.967  12.529  68.249  1.00  0.00    -0.229 C  
BRANCH  19  20
HETATM   20  O   UNL     1     -11.016  12.964  67.405  1.00  0.00    -0.249 OA 
HETATM   21  P   UNL     1     -11.426  14.499  67.438  1.00  0.00    -0.388 P  
HETATM   22  O   UNL     1     -12.368  14.592  66.153  1.00  0.00    -0.338 OA 
HETATM   23  O   UNL     1     -12.011  15.001  68.706  1.00  0.00    -0.308 OA 
HETATM   24  O   UNL     1     -10.109  15.212  66.892  1.00  0.00    -0.249 OA 
ENDBRANCH  19  20
ENDBRANCH   8  19
TORSDOF 5
ENDMDL
MODEL      150
REMARK 921   NORMALIZED FREE ENERGY PREDICTED BY IDOCK:   -4.39 KCAL/MOL
REMARK 922        TOTAL FREE ENERGY PREDICTED BY IDOCK:   -6.37 KCAL/MOL
REMARK 923 INTER-LIGAND FREE ENERGY PREDICTED BY IDOCK:   -5.59 KCAL/MOL
REMARK 924 INTRA-LIGAND FREE ENERGY PREDICTED BY IDOCK:   -0.78 KCAL/MOL
REMARK 927      BINDING AFFINITY PREDICTED BY RF-SCORE:    0.00 PKD
ROOT
HETATM    1  O   UNL     1     -10.652  13.887  69.577  1.00  0.00    -0.443 OA 
HETATM    2  H   UNL     1     -10.622  14.706  70.058  1.00  0.00     0.000 HD 
HETATM    3  C   UNL     1     -10.150  14.025  68.251  1.00  0.00    -0.246 C  
HETATM    4  C   UNL     1     -10.198  12.716  67.483  1.00  0.00    -0.215 C  
HETATM    5  C   UNL     1     -10.091  13.231  66.028  1.00  0.00    -0.299 C  
HETATM    6  O   UNL     1     -11.456  12.062  67.752  1.00  0.00    -0.282 OA 
HETATM    7  O   UNL     1     -10.827  14.468  66.013  1.00  0.00    -0.297 OA 
HETATM    8  C   UNL     1     -11.049  14.884  67.380  1.00  0.00    -0.325 C  
HETATM    9  H   UNL     1     -11.485  11.243  67.271  1.00  0.00     0.000 HD 
ENDROOT
BRANCH   5  10
HETATM   10  O   UNL     1     -10.585  12.236  65.162  1.00  0.00    -0.268 OA 
BRANCH  10  11
HETATM   11  P   UNL     1      -9.670  10.888  64.581  1.00  0.00    -0.331 P  
HETATM   12  O   UNL     1     -10.405   9.909  65.664  1.00  0.00    -0.220 OA 
HETATM   13  O   UNL     1     -10.534  10.861  63.312  1.00  0.00    -0.290 OA 
BRANCH  11  14
HETATM   14  O   UNL     1      -8.756   9.539  64.000  1.00  0.00    -0.198 OA 
HETATM   15  P   UNL     1      -7.125  10.033  63.702  1.00  0.00    -0.078 P  
HETATM   16  O   UNL     1      -5.665  10.477  63.435  1.00  0.00    -0.148 OA 
HETATM   17  O   UNL     1      -6.848   9.633  65.269  1.00  0.00    -0.087 OA 
HETATM   18  O   UNL     1      -6.909   8.497  63.157  1.00  0.00    -0.089 OA 
ENDBRANCH  11  14
ENDBRANCH  10  11
ENDBRANCH   5  10
BRANCH   8  19
HETATM   19  C   UNL     1     -10.756  16.374  67.534  1.00  0.00    -0.298 C  
BRANCH  19  20
HETATM   20  O   UNL     1      -9.394  16.488  67.901  1.00  0.00    -0.213 OA 
HETATM   21  P   UNL     1      -8.583  17.764  67.414  1.00  0.00    -0.238 P  
HETATM   22  O   UNL     1      -7.259  17.640  68.296  1.00  0.00    -0.210 OA 
HETATM   23  O   UNL     1      -8.375  17.897  65.950  1.00  0.00    -0.521 OA 
HETATM   24  O   UNL     1      -9.333  18.950  68.170  1.00  0.00    -0.302 OA 
ENDBRANCH  19  20
ENDBRANCH   8  19
TORSDOF 5
ENDMDL
MODEL      151
REMARK 921   NORMALIZED FREE ENERGY PREDICTED BY IDOCK:   -4.39 KCAL/MOL
REMARK 922        TOTAL FREE ENERGY PREDICTED BY IDOCK:   -6.37 KCAL/MOL
REMARK 923 INTER-LIGAND FREE ENERGY PREDICTED BY IDOCK:   -5.66 KCAL/MOL
REMARK 924 INTRA-LIGAND FREE ENERGY PREDICTED BY IDOCK:   -0.72 KCAL/MOL
REMARK 927      BINDING AFFINITY PREDICTED BY RF-SCORE:    0.00 PKD
ROOT
HETATM    1  O   UNL     1     -12.407  14.732  67.744  1.00  0.00    -0.570 OA 
HETATM    2  H   UNL     1     -12.219  15.628  67.995  1.00  0.00     0.000 HD 
HETATM    3  C   UNL     1     -11.352  13.843  68.096  1.00  0.00    -0.295 C  
HETATM    4  C   UNL     1     -11.652  12.410  67.694  1.00  0.00    -0.357 C  
HETATM    5  C   UNL     1     -10.232  11.798  67.722  1.00  0.00    -0.191 C  
HETATM    6  O   UNL     1     -12.234  12.408  66.374  1.00  0.00    -0.604 OA 
HETATM    7  O   UNL     1      -9.363  12.844  67.252  1.00  0.00    -0.198 OA 
HETATM    8  C   UNL     1     -10.092  14.094  67.287  1.00  0.00    -0.256 C  
HETATM    9  H   UNL     1     -12.423  11.511  66.122  1.00  0.00     0.000 HD 
ENDROOT
BRANCH   5  10
HETATM   10  O   UNL     1     -10.232  10.629  66.937  1.00  0.00    -0.205 OA 
BRANCH  10  11
HETATM   11  P   UNL     1      -9.476   9.138  67.382  1.00  0.00    -0.155 P  
HETATM   12  O   UNL     1      -9.664   9.505  68.964  1.00  0.00    -0.162 OA 
HETATM   13  O   UNL     1     -10.742   8.380  66.958  1.00  0.00    -0.289 OA 
BRANCH  11  14
HETATM   14  O   UNL     1      -8.721   7.647  67.829  1.00  0.00    -0.126 OA 
HETATM   15  P   UNL     1      -8.190   6.820  66.406  1.00  0.00    -0.128 P  
HETATM   16  O   UNL     1      -7.715   6.080  65.131  1.00  0.00    -0.084 OA 
HETATM   17  O   UNL     1      -6.793   7.662  66.587  1.00  0.00    -0.063 OA 
HETATM   18  O   UNL     1      -7.734   5.627  67.441  1.00  0.00    -0.098 OA 
ENDBRANCH  11  14
ENDBRANCH  10  11
ENDBRANCH   5  10
BRANCH   8  19
HETATM   19  C   UNL     1      -9.224  15.196  67.888  1.00  0.00    -0.184 C  
BRANCH  19  20
HETATM   20  O   UNL     1     -10.035  16.352  67.979  1.00  0.00    -0.234 OA 
HETATM   21  P   UNL     1      -9.628  17.631  67.129  1.00  0.00    -0.300 P  
HETATM   22  O   UNL     1     -10.941  18.526  67.272  1.00  0.00    -0.365 OA 
HETATM   23  O   UNL     1      -8.351  18.292  67.498  1.00  0.00    -0.241 OA 
HETATM   24  O   UNL     1      -9.788  17.107  65.631  1.00  0.00    -0.552 OA 
ENDBRANCH  19  20
ENDBRANCH   8  19
TORSDOF 5
ENDMDL
MODEL      152
REMARK 921   NORMALIZED FREE ENERGY PREDICTED BY IDOCK:   -4.38 KCAL/MOL
REMARK 922        TOTAL FREE ENERGY PREDICTED BY IDOCK:   -6.36 KCAL/MOL
REMARK 923 INTER-LIGAND FREE ENERGY PREDICTED BY IDOCK:   -5.69 KCAL/MOL
REMARK 924 INTRA-LIGAND FREE ENERGY PREDICTED BY IDOCK:   -0.67 KCAL/MOL
REMARK 927      BINDING AFFINITY PREDICTED BY RF-SCORE:    0.00 PKD
ROOT
HETATM    1  O   UNL     1     -12.043   6.135  72.786  1.00  0.00    -0.514 OA 
HETATM    2  H   UNL     1     -11.585   5.723  73.509  1.00  0.00     0.000 HD 
HETATM    3  C   UNL     1     -11.157   6.841  71.922  1.00  0.00    -0.247 C  
HETATM    4  C   UNL     1     -11.889   7.500  70.767  1.00  0.00    -0.228 C  
HETATM    5  C   UNL     1     -10.840   8.545  70.318  1.00  0.00    -0.238 C  
HETATM    6  O   UNL     1     -13.101   8.105  71.265  1.00  0.00    -0.469 OA 
HETATM    7  O   UNL     1     -10.211   8.989  71.534  1.00  0.00    -0.298 OA 
HETATM    8  C   UNL     1     -10.549   8.061  72.590  1.00  0.00    -0.350 C  
HETATM    9  H   UNL     1     -13.559   8.517  70.542  1.00  0.00     0.000 HD 
ENDROOT
BRANCH   5  10
HETATM   10  O   UNL     1     -11.496   9.554  69.586  1.00  0.00    -0.108 OA 
BRANCH  10  11
HETATM   11  P   UNL     1     -10.734  10.594  68.434  1.00  0.00    -0.266 P  
HETATM   12  O   UNL     1     -10.387   9.308  67.488  1.00  0.00    -0.228 OA 
HETATM   13  O   UNL     1     -12.113  11.101  67.992  1.00  0.00    -0.635 OA 
BRANCH  11  14
HETATM   14  O   UNL     1      -9.971  11.634  67.281  1.00  0.00    -0.190 OA 
HETATM   15  P   UNL     1      -9.523  13.117  68.050  1.00  0.00    -0.220 P  
HETATM   16  O   UNL     1      -9.123  14.446  68.739  1.00  0.00    -0.188 OA 
HETATM   17  O   UNL     1      -8.110  12.363  68.407  1.00  0.00    -0.154 OA 
HETATM   18  O   UNL     1      -9.026  13.579  66.552  1.00  0.00    -0.170 OA 
ENDBRANCH  11  14
ENDBRANCH  10  11
ENDBRANCH   5  10
BRANCH   8  19
HETATM   19  C   UNL     1      -9.308   7.717  73.411  1.00  0.00    -0.268 C  
BRANCH  19  20
HETATM   20  O   UNL     1      -8.319   8.673  73.077  1.00  0.00    -0.404 OA 
HETATM   21  P   UNL     1      -6.857   8.158  72.728  1.00  0.00    -0.082 P  
HETATM   22  O   UNL     1      -6.204   9.481  72.119  1.00  0.00    -0.296 OA 
HETATM   23  O   UNL     1      -6.102   7.512  73.830  1.00  0.00    -0.070 OA 
HETATM   24  O   UNL     1      -7.105   7.312  71.399  1.00  0.00    -0.063 OA 
ENDBRANCH  19  20
ENDBRANCH   8  19
TORSDOF 5
ENDMDL
MODEL      153
REMARK 921   NORMALIZED FREE ENERGY PREDICTED BY IDOCK:   -4.37 KCAL/MOL
REMARK 922        TOTAL FREE ENERGY PREDICTED BY IDOCK:   -6.36 KCAL/MOL
REMARK 923 INTER-LIGAND FREE ENERGY PREDICTED BY IDOCK:   -5.36 KCAL/MOL
REMARK 924 INTRA-LIGAND FREE ENERGY PREDICTED BY IDOCK:   -1.00 KCAL/MOL
REMARK 927      BINDING AFFINITY PREDICTED BY RF-SCORE:    0.00 PKD
ROOT
HETATM    1  O   UNL     1      -9.285  13.897  68.941  1.00  0.00    -0.384 OA 
HETATM    2  H   UNL     1     -10.054  14.433  68.790  1.00  0.00     0.000 HD 
HETATM    3  C   UNL     1      -9.042  12.992  67.868  1.00  0.00    -0.207 C  
HETATM    4  C   UNL     1      -7.812  12.136  68.110  1.00  0.00    -0.147 C  
HETATM    5  C   UNL     1      -8.064  10.980  67.112  1.00  0.00    -0.134 C  
HETATM    6  O   UNL     1      -7.811  11.696  69.484  1.00  0.00    -0.336 OA 
HETATM    7  O   UNL     1      -9.488  10.775  67.129  1.00  0.00    -0.158 OA 
HETATM    8  C   UNL     1     -10.107  11.916  67.767  1.00  0.00    -0.191 C  
HETATM    9  H   UNL     1      -7.041  11.160  69.635  1.00  0.00     0.000 HD 
ENDROOT
BRANCH   5  10
HETATM   10  O   UNL     1      -7.299   9.867  67.513  1.00  0.00    -0.089 OA 
BRANCH  10  11
HETATM   11  P   UNL     1      -7.953   8.381  68.109  1.00  0.00    -0.121 P  
HETATM   12  O   UNL     1      -6.540   7.623  67.798  1.00  0.00    -0.058 OA 
HETATM   13  O   UNL     1      -7.851   8.922  69.542  1.00  0.00    -0.088 OA 
BRANCH  11  14
HETATM   14  O   UNL     1      -8.606   6.895  68.706  1.00  0.00    -0.124 OA 
HETATM   15  P   UNL     1      -9.957   7.230  69.734  1.00  0.00    -0.189 P  
HETATM   16  O   UNL     1     -11.165   7.530  70.655  1.00  0.00    -0.262 OA 
HETATM   17  O   UNL     1     -10.860   7.156  68.366  1.00  0.00    -0.178 OA 
HETATM   18  O   UNL     1      -9.994   5.604  69.977  1.00  0.00    -0.175 OA 
ENDBRANCH  11  14
ENDBRANCH  10  11
ENDBRANCH   5  10
BRANCH   8  19
HETATM   19  C   UNL     1     -11.324  12.375  66.967  1.00  0.00    -0.327 C  
BRANCH  19  20
HETATM   20  O   UNL     1     -11.147  11.901  65.645  1.00  0.00    -0.304 OA 
HETATM   21  P   UNL     1     -11.386  12.910  64.441  1.00  0.00    -0.414 P  
HETATM   22  O   UNL     1     -10.777  12.081  63.221  1.00  0.00    -0.408 OA 
HETATM   23  O   UNL     1     -12.773  13.405  64.258  1.00  0.00    -0.644 OA 
HETATM   24  O   UNL     1     -10.235  13.989  64.671  1.00  0.00    -0.420 OA 
ENDBRANCH  19  20
ENDBRANCH   8  19
TORSDOF 5
ENDMDL
MODEL      154
REMARK 921   NORMALIZED FREE ENERGY PREDICTED BY IDOCK:   -4.37 KCAL/MOL
REMARK 922        TOTAL FREE ENERGY PREDICTED BY IDOCK:   -6.35 KCAL/MOL
REMARK 923 INTER-LIGAND FREE ENERGY PREDICTED BY IDOCK:   -5.99 KCAL/MOL
REMARK 924 INTRA-LIGAND FREE ENERGY PREDICTED BY IDOCK:   -0.36 KCAL/MOL
REMARK 927      BINDING AFFINITY PREDICTED BY RF-SCORE:    0.00 PKD
ROOT
HETATM    1  O   UNL     1     -10.929  13.292  67.012  1.00  0.00    -0.269 OA 
HETATM    2  H   UNL     1     -11.876  13.279  67.089  1.00  0.00     0.000 HD 
HETATM    3  C   UNL     1     -10.309  13.928  68.124  1.00  0.00    -0.247 C  
HETATM    4  C   UNL     1      -8.796  13.948  68.000  1.00  0.00    -0.184 C  
HETATM    5  C   UNL     1      -8.438  15.068  69.007  1.00  0.00    -0.200 C  
HETATM    6  O   UNL     1      -8.442  14.286  66.643  1.00  0.00    -0.424 OA 
HETATM    7  O   UNL     1      -9.500  16.032  68.887  1.00  0.00    -0.210 OA 
HETATM    8  C   UNL     1     -10.597  15.418  68.173  1.00  0.00    -0.263 C  
HETATM    9  H   UNL     1      -7.495  14.298  66.565  1.00  0.00     0.000 HD 
ENDROOT
BRANCH   5  10
HETATM   10  O   UNL     1      -7.154  15.557  68.696  1.00  0.00    -0.111 OA 
BRANCH  10  11
HETATM   11  P   UNL     1      -6.819  17.147  68.103  1.00  0.00    -0.188 P  
HETATM   12  O   UNL     1      -7.386  17.795  69.492  1.00  0.00    -0.003 OA 
HETATM   13  O   UNL     1      -5.319  16.901  68.318  1.00  0.00    -0.112 OA 
BRANCH  11  14
HETATM   14  O   UNL     1      -6.484  18.738  67.511  1.00  0.00    -0.195 OA 
HETATM   15  P   UNL     1      -6.322  18.690  65.790  1.00  0.00    -0.292 P  
HETATM   16  O   UNL     1      -6.176  18.646  64.248  1.00  0.00    -0.307 OA 
HETATM   17  O   UNL     1      -7.943  18.943  65.753  1.00  0.00    -0.473 OA 
HETATM   18  O   UNL     1      -5.963  20.289  65.921  1.00  0.00    -0.176 OA 
ENDBRANCH  11  14
ENDBRANCH  10  11
ENDBRANCH   5  10
BRANCH   8  19
HETATM   19  C   UNL     1     -11.922  15.731  68.866  1.00  0.00    -0.252 C  
BRANCH  19  20
HETATM   20  O   UNL     1     -11.628  15.939  70.234  1.00  0.00    -0.320 OA 
HETATM   21  P   UNL     1     -12.590  15.292  71.321  1.00  0.00    -0.466 P  
HETATM   22  O   UNL     1     -11.729  15.494  72.650  1.00  0.00    -0.433 OA 
HETATM   23  O   UNL     1     -13.980  15.809  71.366  1.00  0.00    -0.512 OA 
HETATM   24  O   UNL     1     -12.383  13.731  71.069  1.00  0.00    -0.355 OA 
ENDBRANCH  19  20
ENDBRANCH   8  19
TORSDOF 5
ENDMDL
MODEL      155
REMARK 921   NORMALIZED FREE ENERGY PREDICTED BY IDOCK:   -4.36 KCAL/MOL
REMARK 922        TOTAL FREE ENERGY PREDICTED BY IDOCK:   -6.34 KCAL/MOL
REMARK 923 INTER-LIGAND FREE ENERGY PREDICTED BY IDOCK:   -5.78 KCAL/MOL
REMARK 924 INTRA-LIGAND FREE ENERGY PREDICTED BY IDOCK:   -0.57 KCAL/MOL
REMARK 927      BINDING AFFINITY PREDICTED BY RF-SCORE:    0.00 PKD
ROOT
HETATM    1  O   UNL     1      -7.284   9.730  67.461  1.00  0.00    -0.088 OA 
HETATM    2  H   UNL     1      -7.055   9.962  66.568  1.00  0.00     0.000 HD 
HETATM    3  C   UNL     1      -8.551   9.086  67.540  1.00  0.00    -0.120 C  
HETATM    4  C   UNL     1      -8.917   8.716  68.966  1.00  0.00    -0.142 C  
HETATM    5  C   UNL     1     -10.445   8.519  68.832  1.00  0.00    -0.188 C  
HETATM    6  O   UNL     1      -8.570   9.813  69.837  1.00  0.00    -0.190 OA 
HETATM    7  O   UNL     1     -10.868   9.512  67.879  1.00  0.00    -0.245 OA 
HETATM    8  C   UNL     1      -9.697  10.023  67.201  1.00  0.00    -0.174 C  
HETATM    9  H   UNL     1      -8.798   9.581  70.730  1.00  0.00     0.000 HD 
ENDROOT
BRANCH   5  10
HETATM   10  O   UNL     1     -11.027   8.637  70.109  1.00  0.00    -0.246 OA 
BRANCH  10  11
HETATM   11  P   UNL     1     -11.487   7.306  71.112  1.00  0.00    -0.309 P  
HETATM   12  O   UNL     1     -12.935   8.008  71.397  1.00  0.00    -0.311 OA 
HETATM   13  O   UNL     1     -11.664   6.435  69.861  1.00  0.00    -0.426 OA 
BRANCH  11  14
HETATM   14  O   UNL     1     -11.948   5.974  72.116  1.00  0.00    -0.309 OA 
HETATM   15  P   UNL     1     -10.534   5.253  72.803  1.00  0.00    -0.248 P  
HETATM   16  O   UNL     1      -9.268   4.608  73.418  1.00  0.00    -0.114 OA 
HETATM   17  O   UNL     1     -10.729   6.331  74.026  1.00  0.00    -0.224 OA 
HETATM   18  O   UNL     1     -11.579   4.162  73.452  1.00  0.00    -0.231 OA 
ENDBRANCH  11  14
ENDBRANCH  10  11
ENDBRANCH   5  10
BRANCH   8  19
HETATM   19  C   UNL     1      -9.952  10.109  65.697  1.00  0.00    -0.279 C  
BRANCH  19  20
HETATM   20  O   UNL     1      -9.755  11.461  65.326  1.00  0.00    -0.228 OA 
HETATM   21  P   UNL     1     -10.992  12.275  64.750  1.00  0.00    -0.336 P  
HETATM   22  O   UNL     1     -10.420  13.765  64.783  1.00  0.00    -0.400 OA 
HETATM   23  O   UNL     1     -11.535  11.819  63.446  1.00  0.00    -0.402 OA 
HETATM   24  O   UNL     1     -11.984  12.310  65.998  1.00  0.00    -0.570 OA 
ENDBRANCH  19  20
ENDBRANCH   8  19
TORSDOF 5
ENDMDL
MODEL      156
REMARK 921   NORMALIZED FREE ENERGY PREDICTED BY IDOCK:   -4.36 KCAL/MOL
REMARK 922        TOTAL FREE ENERGY PREDICTED BY IDOCK:   -6.34 KCAL/MOL
REMARK 923 INTER-LIGAND FREE ENERGY PREDICTED BY IDOCK:   -5.95 KCAL/MOL
REMARK 924 INTRA-LIGAND FREE ENERGY PREDICTED BY IDOCK:   -0.38 KCAL/MOL
REMARK 927      BINDING AFFINITY PREDICTED BY RF-SCORE:    0.00 PKD
ROOT
HETATM    1  O   UNL     1      -9.592  10.149  64.751  1.00  0.00    -0.271 OA 
HETATM    2  H   UNL     1      -9.845  11.019  64.464  1.00  0.00     0.000 HD 
HETATM    3  C   UNL     1     -10.269   9.760  65.942  1.00  0.00    -0.174 C  
HETATM    4  C   UNL     1      -9.866   8.371  66.402  1.00  0.00    -0.240 C  
HETATM    5  C   UNL     1     -10.324   8.411  67.879  1.00  0.00    -0.221 C  
HETATM    6  O   UNL     1      -8.436   8.230  66.265  1.00  0.00    -0.116 OA 
HETATM    7  O   UNL     1     -10.070   9.759  68.314  1.00  0.00    -0.152 OA 
HETATM    8  C   UNL     1      -9.839  10.580  67.145  1.00  0.00    -0.176 C  
HETATM    9  H   UNL     1      -8.184   7.360  66.552  1.00  0.00     0.000 HD 
ENDROOT
BRANCH   5  10
HETATM   10  O   UNL     1      -9.625   7.417  68.592  1.00  0.00    -0.145 OA 
BRANCH  10  11
HETATM   11  P   UNL     1      -9.596   7.272  70.315  1.00  0.00    -0.162 P  
HETATM   12  O   UNL     1     -11.121   6.687  70.303  1.00  0.00    -0.274 OA 
HETATM   13  O   UNL     1      -8.663   6.060  70.189  1.00  0.00    -0.135 OA 
BRANCH  11  14
HETATM   14  O   UNL     1      -9.567   7.128  72.039  1.00  0.00    -0.145 OA 
HETATM   15  P   UNL     1     -10.826   6.057  72.549  1.00  0.00    -0.277 P  
HETATM   16  O   UNL     1     -11.953   5.098  73.005  1.00  0.00    -0.231 OA 
HETATM   17  O   UNL     1      -9.716   4.862  72.362  1.00  0.00    -0.149 OA 
HETATM   18  O   UNL     1     -10.330   6.428  74.072  1.00  0.00    -0.293 OA 
ENDBRANCH  11  14
ENDBRANCH  10  11
ENDBRANCH   5  10
BRANCH   8  19
HETATM   19  C   UNL     1     -10.610  11.893  67.260  1.00  0.00    -0.228 C  
BRANCH  19  20
HETATM   20  O   UNL     1     -11.701  11.807  66.363  1.00  0.00    -0.511 OA 
HETATM   21  P   UNL     1     -12.050  13.075  65.470  1.00  0.00    -0.472 P  
HETATM   22  O   UNL     1     -13.079  12.442  64.428  1.00  0.00    -0.786 OA 
HETATM   23  O   UNL     1     -12.521  14.283  66.193  1.00  0.00    -0.442 OA 
HETATM   24  O   UNL     1     -10.750  13.213  64.557  1.00  0.00    -0.353 OA 
ENDBRANCH  19  20
ENDBRANCH   8  19
TORSDOF 5
ENDMDL
MODEL      157
REMARK 921   NORMALIZED FREE ENERGY PREDICTED BY IDOCK:   -4.36 KCAL/MOL
REMARK 922        TOTAL FREE ENERGY PREDICTED BY IDOCK:   -6.34 KCAL/MOL
REMARK 923 INTER-LIGAND FREE ENERGY PREDICTED BY IDOCK:   -5.99 KCAL/MOL
REMARK 924 INTRA-LIGAND FREE ENERGY PREDICTED BY IDOCK:   -0.35 KCAL/MOL
REMARK 927      BINDING AFFINITY PREDICTED BY RF-SCORE:    0.00 PKD
ROOT
HETATM    1  O   UNL     1     -10.075  12.660  64.263  1.00  0.00    -0.502 OA 
HETATM    2  H   UNL     1      -9.613  13.428  63.948  1.00  0.00     0.000 HD 
HETATM    3  C   UNL     1     -10.681  12.882  65.533  1.00  0.00    -0.279 C  
HETATM    4  C   UNL     1     -11.419  11.655  66.036  1.00  0.00    -0.125 C  
HETATM    5  C   UNL     1     -11.530  11.983  67.544  1.00  0.00    -0.333 C  
HETATM    6  O   UNL     1     -10.613  10.486  65.778  1.00  0.00    -0.176 OA 
HETATM    7  O   UNL     1     -10.303  12.660  67.872  1.00  0.00    -0.208 OA 
HETATM    8  C   UNL     1      -9.657  13.057  66.640  1.00  0.00    -0.259 C  
HETATM    9  H   UNL     1     -11.075   9.718  66.093  1.00  0.00     0.000 HD 
ENDROOT
BRANCH   5  10
HETATM   10  O   UNL     1     -11.752  10.783  68.249  1.00  0.00    -0.468 OA 
BRANCH  10  11
HETATM   11  P   UNL     1     -10.711  10.151  69.477  1.00  0.00    -0.279 P  
HETATM   12  O   UNL     1     -12.007   9.608  70.310  1.00  0.00    -0.177 OA 
HETATM   13  O   UNL     1     -10.296   9.017  68.528  1.00  0.00    -0.196 OA 
BRANCH  11  14
HETATM   14  O   UNL     1      -9.670   9.518  70.705  1.00  0.00    -0.269 OA 
HETATM   15  P   UNL     1     -10.601   8.586  71.827  1.00  0.00    -0.355 P  
HETATM   16  O   UNL     1     -11.435   7.753  72.830  1.00  0.00    -0.378 OA 
HETATM   17  O   UNL     1     -10.307   7.318  70.828  1.00  0.00    -0.202 OA 
HETATM   18  O   UNL     1      -9.184   8.414  72.642  1.00  0.00    -0.249 OA 
ENDBRANCH  11  14
ENDBRANCH  10  11
ENDBRANCH   5  10
BRANCH   8  19
HETATM   19  C   UNL     1      -9.154  14.495  66.745  1.00  0.00    -0.261 C  
BRANCH  19  20
HETATM   20  O   UNL     1      -9.932  15.128  67.743  1.00  0.00    -0.223 OA 
HETATM   21  P   UNL     1      -9.532  16.598  68.196  1.00  0.00    -0.240 P  
HETATM   22  O   UNL     1     -10.815  17.017  69.047  1.00  0.00    -0.304 OA 
HETATM   23  O   UNL     1      -8.224  16.746  68.882  1.00  0.00    -0.244 OA 
HETATM   24  O   UNL     1      -9.772  17.439  66.863  1.00  0.00    -0.265 OA 
ENDBRANCH  19  20
ENDBRANCH   8  19
TORSDOF 5
ENDMDL
MODEL      158
REMARK 921   NORMALIZED FREE ENERGY PREDICTED BY IDOCK:   -4.34 KCAL/MOL
REMARK 922        TOTAL FREE ENERGY PREDICTED BY IDOCK:   -6.31 KCAL/MOL
REMARK 923 INTER-LIGAND FREE ENERGY PREDICTED BY IDOCK:   -5.55 KCAL/MOL
REMARK 924 INTRA-LIGAND FREE ENERGY PREDICTED BY IDOCK:   -0.77 KCAL/MOL
REMARK 927      BINDING AFFINITY PREDICTED BY RF-SCORE:    0.00 PKD
ROOT
HETATM    1  O   UNL     1     -12.928  16.261  71.318  1.00  0.00    -0.386 OA 
HETATM    2  H   UNL     1     -12.687  17.133  71.025  1.00  0.00     0.000 HD 
HETATM    3  C   UNL     1     -12.102  15.255  70.740  1.00  0.00    -0.351 C  
HETATM    4  C   UNL     1     -12.488  13.862  71.206  1.00  0.00    -0.359 C  
HETATM    5  C   UNL     1     -11.822  12.996  70.111  1.00  0.00    -0.252 C  
HETATM    6  O   UNL     1     -13.926  13.751  71.207  1.00  0.00    -0.126 OA 
HETATM    7  O   UNL     1     -11.959  13.757  68.897  1.00  0.00    -0.337 OA 
HETATM    8  C   UNL     1     -12.324  15.112  69.245  1.00  0.00    -0.093 C  
HETATM    9  H   UNL     1     -14.167  12.880  71.499  1.00  0.00     0.000 HD 
ENDROOT
BRANCH   5  10
HETATM   10  O   UNL     1     -12.447  11.734  70.094  1.00  0.00    -0.205 OA 
BRANCH  10  11
HETATM   11  P   UNL     1     -11.964  10.379  71.054  1.00  0.00    -0.348 P  
HETATM   12  O   UNL     1     -13.529  10.031  71.369  1.00  0.00    -0.350 OA 
HETATM   13  O   UNL     1     -11.597   9.615  69.774  1.00  0.00    -0.126 OA 
BRANCH  11  14
HETATM   14  O   UNL     1     -11.481   9.023  72.014  1.00  0.00    -0.365 OA 
HETATM   15  P   UNL     1     -10.249   8.138  71.183  1.00  0.00    -0.207 P  
HETATM   16  O   UNL     1      -9.146   7.346  70.439  1.00  0.00    -0.156 OA 
HETATM   17  O   UNL     1      -9.192   9.138  71.941  1.00  0.00    -0.354 OA 
HETATM   18  O   UNL     1     -10.342   7.095  72.451  1.00  0.00    -0.192 OA 
ENDBRANCH  11  14
ENDBRANCH  10  11
ENDBRANCH   5  10
BRANCH   8  19
HETATM   19  C   UNL     1     -11.496  16.109  68.437  1.00  0.00    -0.298 C  
BRANCH  19  20
HETATM   20  O   UNL     1     -10.640  15.348  67.605  1.00  0.00    -0.267 OA 
HETATM   21  P   UNL     1      -9.073  15.594  67.707  1.00  0.00    -0.182 P  
HETATM   22  O   UNL     1      -8.513  14.350  66.879  1.00  0.00    -0.202 OA 
HETATM   23  O   UNL     1      -8.583  16.929  67.279  1.00  0.00    -0.191 OA 
HETATM   24  O   UNL     1      -8.754  15.127  69.198  1.00  0.00    -0.202 OA 
ENDBRANCH  19  20
ENDBRANCH   8  19
TORSDOF 5
ENDMDL
MODEL      159
REMARK 921   NORMALIZED FREE ENERGY PREDICTED BY IDOCK:   -4.34 KCAL/MOL
REMARK 922        TOTAL FREE ENERGY PREDICTED BY IDOCK:   -6.31 KCAL/MOL
REMARK 923 INTER-LIGAND FREE ENERGY PREDICTED BY IDOCK:   -6.05 KCAL/MOL
REMARK 924 INTRA-LIGAND FREE ENERGY PREDICTED BY IDOCK:   -0.26 KCAL/MOL
REMARK 927      BINDING AFFINITY PREDICTED BY RF-SCORE:    0.00 PKD
ROOT
HETATM    1  O   UNL     1      -6.219  12.957  67.134  1.00  0.00    -0.421 OA 
HETATM    2  H   UNL     1      -6.247  13.614  66.448  1.00  0.00     0.000 HD 
HETATM    3  C   UNL     1      -7.434  12.219  67.220  1.00  0.00    -0.147 C  
HETATM    4  C   UNL     1      -7.389  11.170  68.316  1.00  0.00    -0.090 C  
HETATM    5  C   UNL     1      -8.898  10.895  68.515  1.00  0.00    -0.153 C  
HETATM    6  O   UNL     1      -6.767  11.742  69.486  1.00  0.00    -0.174 OA 
HETATM    7  O   UNL     1      -9.539  12.169  68.328  1.00  0.00    -0.206 OA 
HETATM    8  C   UNL     1      -8.594  13.070  67.705  1.00  0.00    -0.189 C  
HETATM    9  H   UNL     1      -6.739  11.085  70.171  1.00  0.00     0.000 HD 
ENDROOT
BRANCH   5  10
HETATM   10  O   UNL     1      -9.085  10.317  69.786  1.00  0.00    -0.175 OA 
BRANCH  10  11
HETATM   11  P   UNL     1     -10.534   9.532  70.312  1.00  0.00    -0.310 P  
HETATM   12  O   UNL     1     -11.366  10.226  69.089  1.00  0.00    -0.230 OA 
HETATM   13  O   UNL     1      -9.997   8.199  69.773  1.00  0.00    -0.185 OA 
BRANCH  11  14
HETATM   14  O   UNL     1     -11.984   8.747  70.837  1.00  0.00    -0.279 OA 
HETATM   15  P   UNL     1     -11.631   7.107  71.259  1.00  0.00    -0.330 P  
HETATM   16  O   UNL     1     -11.315   5.639  71.636  1.00  0.00    -0.204 OA 
HETATM   17  O   UNL     1     -11.320   7.690  72.762  1.00  0.00    -0.356 OA 
HETATM   18  O   UNL     1     -13.248   6.977  71.524  1.00  0.00    -0.375 OA 
ENDBRANCH  11  14
ENDBRANCH  10  11
ENDBRANCH   5  10
BRANCH   8  19
HETATM   19  C   UNL     1      -9.264  13.841  66.571  1.00  0.00    -0.192 C  
BRANCH  19  20
HETATM   20  O   UNL     1     -10.368  13.064  66.144  1.00  0.00    -0.267 OA 
HETATM   21  P   UNL     1     -11.795  13.758  66.062  1.00  0.00    -0.440 P  
HETATM   22  O   UNL     1     -12.624  12.657  65.257  1.00  0.00    -0.630 OA 
HETATM   23  O   UNL     1     -12.389  14.204  67.346  1.00  0.00    -0.317 OA 
HETATM   24  O   UNL     1     -11.573  14.852  64.924  1.00  0.00    -0.382 OA 
ENDBRANCH  19  20
ENDBRANCH   8  19
TORSDOF 5
ENDMDL
MODEL      160
REMARK 921   NORMALIZED FREE ENERGY PREDICTED BY IDOCK:   -4.33 KCAL/MOL
REMARK 922        TOTAL FREE ENERGY PREDICTED BY IDOCK:   -6.30 KCAL/MOL
REMARK 923 INTER-LIGAND FREE ENERGY PREDICTED BY IDOCK:   -5.86 KCAL/MOL
REMARK 924 INTRA-LIGAND FREE ENERGY PREDICTED BY IDOCK:   -0.45 KCAL/MOL
REMARK 927      BINDING AFFINITY PREDICTED BY RF-SCORE:    0.00 PKD
ROOT
HETATM    1  O   UNL     1     -11.976  10.486  71.131  1.00  0.00    -0.352 OA 
HETATM    2  H   UNL     1     -12.098   9.850  71.826  1.00  0.00     0.000 HD 
HETATM    3  C   UNL     1     -11.515   9.883  69.926  1.00  0.00    -0.179 C  
HETATM    4  C   UNL     1     -11.320  10.899  68.816  1.00  0.00    -0.292 C  
HETATM    5  C   UNL     1     -10.393  10.110  67.861  1.00  0.00    -0.194 C  
HETATM    6  O   UNL     1     -10.685  12.074  69.364  1.00  0.00    -0.440 OA 
HETATM    7  O   UNL     1      -9.535   9.340  68.723  1.00  0.00    -0.147 OA 
HETATM    8  C   UNL     1     -10.101   9.344  70.054  1.00  0.00    -0.226 C  
HETATM    9  H   UNL     1     -10.563  12.710  68.669  1.00  0.00     0.000 HD 
ENDROOT
BRANCH   5  10
HETATM   10  O   UNL     1      -9.726  11.026  67.024  1.00  0.00    -0.179 OA 
BRANCH  10  11
HETATM   11  P   UNL     1     -10.508  12.180  66.001  1.00  0.00    -0.269 P  
HETATM   12  O   UNL     1      -9.367  13.292  66.367  1.00  0.00    -0.245 OA 
HETATM   13  O   UNL     1      -9.997  11.421  64.769  1.00  0.00    -0.241 OA 
BRANCH  11  14
HETATM   14  O   UNL     1     -11.289  13.336  64.977  1.00  0.00    -0.296 OA 
HETATM   15  P   UNL     1     -12.322  12.512  63.861  1.00  0.00    -0.464 P  
HETATM   16  O   UNL     1     -13.247  11.774  62.863  1.00  0.00    -0.357 OA 
HETATM   17  O   UNL     1     -13.478  12.653  65.018  1.00  0.00    -0.503 OA 
HETATM   18  O   UNL     1     -12.607  14.008  63.240  1.00  0.00    -0.801 OA 
ENDBRANCH  11  14
ENDBRANCH  10  11
ENDBRANCH   5  10
BRANCH   8  19
HETATM   19  C   UNL     1     -10.066   7.938  70.649  1.00  0.00    -0.194 C  
BRANCH  19  20
HETATM   20  O   UNL     1      -8.890   7.318  70.163  1.00  0.00    -0.143 OA 
HETATM   21  P   UNL     1      -7.730   6.983  71.196  1.00  0.00    -0.092 P  
HETATM   22  O   UNL     1      -6.795   6.039  70.312  1.00  0.00    -0.050 OA 
HETATM   23  O   UNL     1      -7.058   8.142  71.836  1.00  0.00    -0.068 OA 
HETATM   24  O   UNL     1      -8.424   5.908  72.147  1.00  0.00    -0.124 OA 
ENDBRANCH  19  20
ENDBRANCH   8  19
TORSDOF 5
ENDMDL
MODEL      161
REMARK 921   NORMALIZED FREE ENERGY PREDICTED BY IDOCK:   -4.29 KCAL/MOL
REMARK 922        TOTAL FREE ENERGY PREDICTED BY IDOCK:   -6.25 KCAL/MOL
REMARK 923 INTER-LIGAND FREE ENERGY PREDICTED BY IDOCK:   -5.52 KCAL/MOL
REMARK 924 INTRA-LIGAND FREE ENERGY PREDICTED BY IDOCK:   -0.73 KCAL/MOL
REMARK 927      BINDING AFFINITY PREDICTED BY RF-SCORE:    0.00 PKD
ROOT
HETATM    1  O   UNL     1     -10.494  12.198  69.308  1.00  0.00    -0.432 OA 
HETATM    2  H   UNL     1     -10.260  13.090  69.081  1.00  0.00     0.000 HD 
HETATM    3  C   UNL     1      -9.980  11.254  68.373  1.00  0.00    -0.197 C  
HETATM    4  C   UNL     1     -10.354   9.828  68.736  1.00  0.00    -0.208 C  
HETATM    5  C   UNL     1     -10.128   9.117  67.381  1.00  0.00    -0.230 C  
HETATM    6  O   UNL     1     -11.733   9.800  69.158  1.00  0.00    -0.460 OA 
HETATM    7  O   UNL     1     -10.535  10.072  66.384  1.00  0.00    -0.203 OA 
HETATM    8  C   UNL     1     -10.641  11.371  67.012  1.00  0.00    -0.248 C  
HETATM    9  H   UNL     1     -11.967   8.908  69.386  1.00  0.00     0.000 HD 
ENDROOT
BRANCH   5  10
HETATM   10  O   UNL     1     -10.858   7.912  67.380  1.00  0.00    -0.237 OA 
BRANCH  10  11
HETATM   11  P   UNL     1     -10.263   6.395  67.960  1.00  0.00    -0.213 P  
HETATM   12  O   UNL     1     -10.758   5.664  66.586  1.00  0.00    -0.293 OA 
HETATM   13  O   UNL     1      -8.826   6.872  67.706  1.00  0.00    -0.120 OA 
BRANCH  11  14
HETATM   14  O   UNL     1      -9.667   4.877  68.539  1.00  0.00    -0.143 OA 
HETATM   15  P   UNL     1      -8.834   5.118  70.036  1.00  0.00    -0.115 P  
HETATM   16  O   UNL     1      -8.088   5.335  71.376  1.00  0.00    -0.110 OA 
HETATM   17  O   UNL     1     -10.296   4.892  70.745  1.00  0.00    -0.222 OA 
HETATM   18  O   UNL     1      -8.505   3.510  69.948  1.00  0.00    -0.051 OA 
ENDBRANCH  11  14
ENDBRANCH  10  11
ENDBRANCH   5  10
BRANCH   8  19
HETATM   19  C   UNL     1      -9.986  12.437  66.137  1.00  0.00    -0.253 C  
BRANCH  19  20
HETATM   20  O   UNL     1     -10.106  13.665  66.830  1.00  0.00    -0.251 OA 
HETATM   21  P   UNL     1     -11.015  14.805  66.198  1.00  0.00    -0.338 P  
HETATM   22  O   UNL     1     -11.120  15.826  67.421  1.00  0.00    -0.311 OA 
HETATM   23  O   UNL     1     -10.553  15.383  64.911  1.00  0.00    -0.416 OA 
HETATM   24  O   UNL     1     -12.465  14.143  66.240  1.00  0.00    -0.466 OA 
ENDBRANCH  19  20
ENDBRANCH   8  19
TORSDOF 5
ENDMDL
MODEL      162
REMARK 921   NORMALIZED FREE ENERGY PREDICTED BY IDOCK:   -4.29 KCAL/MOL
REMARK 922        TOTAL FREE ENERGY PREDICTED BY IDOCK:   -6.24 KCAL/MOL
REMARK 923 INTER-LIGAND FREE ENERGY PREDICTED BY IDOCK:   -5.94 KCAL/MOL
REMARK 924 INTRA-LIGAND FREE ENERGY PREDICTED BY IDOCK:   -0.30 KCAL/MOL
REMARK 927      BINDING AFFINITY PREDICTED BY RF-SCORE:    0.00 PKD
ROOT
HETATM    1  O   UNL     1      -8.652  13.480  66.466  1.00  0.00    -0.438 OA 
HETATM    2  H   UNL     1      -8.510  14.267  65.953  1.00  0.00     0.000 HD 
HETATM    3  C   UNL     1     -10.022  13.094  66.488  1.00  0.00    -0.268 C  
HETATM    4  C   UNL     1     -10.248  11.836  67.309  1.00  0.00    -0.203 C  
HETATM    5  C   UNL     1     -11.770  11.933  67.571  1.00  0.00    -0.265 C  
HETATM    6  O   UNL     1      -9.467  11.921  68.519  1.00  0.00    -0.244 OA 
HETATM    7  O   UNL     1     -12.034  13.338  67.736  1.00  0.00    -0.349 OA 
HETATM    8  C   UNL     1     -10.888  14.078  67.255  1.00  0.00    -0.284 C  
HETATM    9  H   UNL     1      -9.608  11.134  69.032  1.00  0.00     0.000 HD 
ENDROOT
BRANCH   5  10
HETATM   10  O   UNL     1     -12.083  11.135  68.689  1.00  0.00    -0.556 OA 
BRANCH  10  11
HETATM   11  P   UNL     1     -12.586  11.743  70.228  1.00  0.00     0.112 P  
HETATM   12  O   UNL     1     -12.132  10.344  70.941  1.00  0.00    -0.311 OA 
HETATM   13  O   UNL     1     -11.358  12.664  70.255  1.00  0.00     0.064 OA 
BRANCH  11  14
HETATM   14  O   UNL     1     -13.088  12.351  71.768  1.00  0.00    -0.416 OA 
HETATM   15  P   UNL     1     -12.788  14.053  71.842  1.00  0.00    -0.298 P  
HETATM   16  O   UNL     1     -12.519  15.577  71.907  1.00  0.00    -0.336 OA 
HETATM   17  O   UNL     1     -14.293  14.221  71.208  1.00  0.00    -0.262 OA 
HETATM   18  O   UNL     1     -13.333  13.938  73.389  1.00  0.00    -0.371 OA 
ENDBRANCH  11  14
ENDBRANCH  10  11
ENDBRANCH   5  10
BRANCH   8  19
HETATM   19  C   UNL     1     -11.341  15.251  66.389  1.00  0.00    -0.161 C  
BRANCH  19  20
HETATM   20  O   UNL     1     -10.206  16.072  66.185  1.00  0.00    -0.288 OA 
HETATM   21  P   UNL     1      -9.974  17.298  67.168  1.00  0.00    -0.301 P  
HETATM   22  O   UNL     1      -8.480  17.714  66.792  1.00  0.00    -0.232 OA 
HETATM   23  O   UNL     1     -10.981  18.387  67.117  1.00  0.00    -0.311 OA 
HETATM   24  O   UNL     1      -9.735  16.570  68.567  1.00  0.00    -0.223 OA 
ENDBRANCH  19  20
ENDBRANCH   8  19
TORSDOF 5
ENDMDL
MODEL      163
REMARK 921   NORMALIZED FREE ENERGY PREDICTED BY IDOCK:   -4.27 KCAL/MOL
REMARK 922        TOTAL FREE ENERGY PREDICTED BY IDOCK:   -6.22 KCAL/MOL
REMARK 923 INTER-LIGAND FREE ENERGY PREDICTED BY IDOCK:   -5.00 KCAL/MOL
REMARK 924 INTRA-LIGAND FREE ENERGY PREDICTED BY IDOCK:   -1.22 KCAL/MOL
REMARK 927      BINDING AFFINITY PREDICTED BY RF-SCORE:    0.00 PKD
ROOT
HETATM    1  O   UNL     1      -9.212  13.671  66.444  1.00  0.00    -0.411 OA 
HETATM    2  H   UNL     1      -9.599  14.503  66.690  1.00  0.00     0.000 HD 
HETATM    3  C   UNL     1     -10.194  12.659  66.249  1.00  0.00    -0.251 C  
HETATM    4  C   UNL     1      -9.575  11.329  65.857  1.00  0.00    -0.221 C  
HETATM    5  C   UNL     1     -10.734  10.360  66.192  1.00  0.00    -0.006 C  
HETATM    6  O   UNL     1      -8.405  11.101  66.671  1.00  0.00    -0.149 OA 
HETATM    7  O   UNL     1     -11.351  10.908  67.371  1.00  0.00    -0.412 OA 
HETATM    8  C   UNL     1     -10.885  12.266  67.543  1.00  0.00    -0.234 C  
HETATM    9  H   UNL     1      -8.017  10.269  66.425  1.00  0.00     0.000 HD 
ENDROOT
BRANCH   5  10
HETATM   10  O   UNL     1     -10.205   9.064  66.346  1.00  0.00    -0.288 OA 
BRANCH  10  11
HETATM   11  P   UNL     1     -10.404   8.076  67.752  1.00  0.00    -0.198 P  
HETATM   12  O   UNL     1      -9.899   6.767  66.915  1.00  0.00    -0.157 OA 
HETATM   13  O   UNL     1      -9.149   8.712  68.365  1.00  0.00    -0.138 OA 
BRANCH  11  14
HETATM   14  O   UNL     1     -10.602   7.087  69.157  1.00  0.00    -0.207 OA 
HETATM   15  P   UNL     1     -10.047   7.947  70.551  1.00  0.00    -0.195 P  
HETATM   16  O   UNL     1      -9.549   8.718  71.799  1.00  0.00    -0.261 OA 
HETATM   17  O   UNL     1     -11.580   8.523  70.655  1.00  0.00    -0.270 OA 
HETATM   18  O   UNL     1     -10.393   6.563  71.368  1.00  0.00    -0.203 OA 
ENDBRANCH  11  14
ENDBRANCH  10  11
ENDBRANCH   5  10
BRANCH   8  19
HETATM   19  C   UNL     1     -12.053  13.189  67.881  1.00  0.00    -0.202 C  
BRANCH  19  20
HETATM   20  O   UNL     1     -11.614  14.512  67.637  1.00  0.00    -0.344 OA 
HETATM   21  P   UNL     1     -11.499  15.511  68.867  1.00  0.00    -0.381 P  
HETATM   22  O   UNL     1     -10.690  16.717  68.207  1.00  0.00    -0.335 OA 
HETATM   23  O   UNL     1     -12.769  15.876  69.543  1.00  0.00     0.004 OA 
HETATM   24  O   UNL     1     -10.356  14.832  69.747  1.00  0.00    -0.138 OA 
ENDBRANCH  19  20
ENDBRANCH   8  19
TORSDOF 5
ENDMDL
MODEL      164
REMARK 921   NORMALIZED FREE ENERGY PREDICTED BY IDOCK:   -4.25 KCAL/MOL
REMARK 922        TOTAL FREE ENERGY PREDICTED BY IDOCK:   -6.20 KCAL/MOL
REMARK 923 INTER-LIGAND FREE ENERGY PREDICTED BY IDOCK:   -5.48 KCAL/MOL
REMARK 924 INTRA-LIGAND FREE ENERGY PREDICTED BY IDOCK:   -0.71 KCAL/MOL
REMARK 927      BINDING AFFINITY PREDICTED BY RF-SCORE:    0.00 PKD
ROOT
HETATM    1  O   UNL     1      -7.818  10.018  64.951  1.00  0.00    -0.131 OA 
HETATM    2  H   UNL     1      -8.552   9.639  64.482  1.00  0.00     0.000 HD 
HETATM    3  C   UNL     1      -8.191  10.489  66.243  1.00  0.00    -0.147 C  
HETATM    4  C   UNL     1      -7.018  11.094  66.992  1.00  0.00    -0.123 C  
HETATM    5  C   UNL     1      -7.759  11.928  68.065  1.00  0.00    -0.132 C  
HETATM    6  O   UNL     1      -6.253  11.912  66.081  1.00  0.00    -0.452 OA 
HETATM    7  O   UNL     1      -8.935  12.429  67.403  1.00  0.00    -0.171 OA 
HETATM    8  C   UNL     1      -9.119  11.689  66.174  1.00  0.00    -0.203 C  
HETATM    9  H   UNL     1      -5.519  12.291  66.550  1.00  0.00     0.000 HD 
ENDROOT
BRANCH   5  10
HETATM   10  O   UNL     1      -6.882  12.919  68.548  1.00  0.00    -0.081 OA 
BRANCH  10  11
HETATM   11  P   UNL     1      -7.228  14.613  68.582  1.00  0.00    -0.141 P  
HETATM   12  O   UNL     1      -7.021  14.633  70.203  1.00  0.00    -0.141 OA 
HETATM   13  O   UNL     1      -5.852  14.897  67.964  1.00  0.00    -0.127 OA 
BRANCH  11  14
HETATM   14  O   UNL     1      -7.573  16.308  68.617  1.00  0.00    -0.166 OA 
HETATM   15  P   UNL     1      -8.087  16.824  67.048  1.00  0.00    -0.241 P  
HETATM   16  O   UNL     1      -8.546  17.286  65.643  1.00  0.00    -0.476 OA 
HETATM   17  O   UNL     1      -9.600  16.436  67.550  1.00  0.00    -0.225 OA 
HETATM   18  O   UNL     1      -8.133  18.327  67.714  1.00  0.00    -0.242 OA 
ENDBRANCH  11  14
ENDBRANCH  10  11
ENDBRANCH   5  10
BRANCH   8  19
HETATM   19  C   UNL     1     -10.582  11.284  66.013  1.00  0.00    -0.258 C  
BRANCH  19  20
HETATM   20  O   UNL     1     -10.969  11.662  64.705  1.00  0.00    -0.305 OA 
HETATM   21  P   UNL     1     -11.927  12.919  64.532  1.00  0.00    -0.456 P  
HETATM   22  O   UNL     1     -11.829  13.164  62.958  1.00  0.00    -0.347 OA 
HETATM   23  O   UNL     1     -13.299  12.786  65.082  1.00  0.00    -0.577 OA 
HETATM   24  O   UNL     1     -11.019  14.112  65.075  1.00  0.00    -0.342 OA 
ENDBRANCH  19  20
ENDBRANCH   8  19
TORSDOF 5
ENDMDL
MODEL      165
REMARK 921   NORMALIZED FREE ENERGY PREDICTED BY IDOCK:   -4.24 KCAL/MOL
REMARK 922        TOTAL FREE ENERGY PREDICTED BY IDOCK:   -6.19 KCAL/MOL
REMARK 923 INTER-LIGAND FREE ENERGY PREDICTED BY IDOCK:   -5.54 KCAL/MOL
REMARK 924 INTRA-LIGAND FREE ENERGY PREDICTED BY IDOCK:   -0.64 KCAL/MOL
REMARK 927      BINDING AFFINITY PREDICTED BY RF-SCORE:    0.00 PKD
ROOT
HETATM    1  O   UNL     1     -10.713  18.198  65.393  1.00  0.00    -0.620 OA 
HETATM    2  H   UNL     1     -10.300  18.954  65.795  1.00  0.00     0.000 HD 
HETATM    3  C   UNL     1     -10.434  16.995  66.101  1.00  0.00    -0.271 C  
HETATM    4  C   UNL     1     -11.094  15.787  65.459  1.00  0.00    -0.190 C  
HETATM    5  C   UNL     1     -10.263  14.639  66.081  1.00  0.00    -0.301 C  
HETATM    6  O   UNL     1     -10.938  15.876  64.027  1.00  0.00    -0.799 OA 
HETATM    7  O   UNL     1      -8.924  15.157  66.180  1.00  0.00    -0.279 OA 
HETATM    8  C   UNL     1      -8.973  16.591  66.001  1.00  0.00    -0.241 C  
HETATM    9  H   UNL     1     -11.351  15.121  63.625  1.00  0.00     0.000 HD 
ENDROOT
BRANCH   5  10
HETATM   10  O   UNL     1     -10.399  13.497  65.268  1.00  0.00    -0.310 OA 
BRANCH  10  11
HETATM   11  P   UNL     1      -9.883  11.905  65.706  1.00  0.00    -0.224 P  
HETATM   12  O   UNL     1     -10.380  12.156  67.242  1.00  0.00    -0.210 OA 
HETATM   13  O   UNL     1     -11.082  11.318  64.950  1.00  0.00    -0.227 OA 
BRANCH  11  14
HETATM   14  O   UNL     1      -9.366  10.313  66.145  1.00  0.00    -0.159 OA 
HETATM   15  P   UNL     1      -8.831   9.471  64.732  1.00  0.00    -0.192 P  
HETATM   16  O   UNL     1      -8.352   8.717  63.467  1.00  0.00    -0.178 OA 
HETATM   17  O   UNL     1      -7.356  10.113  65.058  1.00  0.00    -0.136 OA 
HETATM   18  O   UNL     1      -8.621   8.194  65.747  1.00  0.00    -0.141 OA 
ENDBRANCH  11  14
ENDBRANCH  10  11
ENDBRANCH   5  10
BRANCH   8  19
HETATM   19  C   UNL     1      -8.106  17.285  67.049  1.00  0.00    -0.211 C  
BRANCH  19  20
HETATM   20  O   UNL     1      -7.073  16.380  67.390  1.00  0.00    -0.129 OA 
HETATM   21  P   UNL     1      -6.664  16.240  68.919  1.00  0.00    -0.179 P  
HETATM   22  O   UNL     1      -5.747  14.935  68.872  1.00  0.00    -0.085 OA 
HETATM   23  O   UNL     1      -6.056  17.436  69.553  1.00  0.00    -0.229 OA 
HETATM   24  O   UNL     1      -7.992  15.646  69.571  1.00  0.00    -0.230 OA 
ENDBRANCH  19  20
ENDBRANCH   8  19
TORSDOF 5
ENDMDL
MODEL      166
REMARK 921   NORMALIZED FREE ENERGY PREDICTED BY IDOCK:   -4.24 KCAL/MOL
REMARK 922        TOTAL FREE ENERGY PREDICTED BY IDOCK:   -6.18 KCAL/MOL
REMARK 923 INTER-LIGAND FREE ENERGY PREDICTED BY IDOCK:   -6.13 KCAL/MOL
REMARK 924 INTRA-LIGAND FREE ENERGY PREDICTED BY IDOCK:   -0.05 KCAL/MOL
REMARK 927      BINDING AFFINITY PREDICTED BY RF-SCORE:    0.00 PKD
ROOT
HETATM    1  O   UNL     1      -8.968   7.371  64.882  1.00  0.00    -0.293 OA 
HETATM    2  H   UNL     1      -8.828   6.471  65.154  1.00  0.00     0.000 HD 
HETATM    3  C   UNL     1      -9.055   8.259  65.992  1.00  0.00    -0.176 C  
HETATM    4  C   UNL     1      -9.279   9.697  65.557  1.00  0.00    -0.234 C  
HETATM    5  C   UNL     1      -9.814  10.316  66.870  1.00  0.00    -0.197 C  
HETATM    6  O   UNL     1     -10.253   9.717  64.493  1.00  0.00    -0.344 OA 
HETATM    7  O   UNL     1     -10.611   9.281  67.475  1.00  0.00    -0.268 OA 
HETATM    8  C   UNL     1     -10.307   8.028  66.820  1.00  0.00    -0.290 C  
HETATM    9  H   UNL     1     -10.393  10.617  64.221  1.00  0.00     0.000 HD 
ENDROOT
BRANCH   5  10
HETATM   10  O   UNL     1     -10.514  11.497  66.557  1.00  0.00    -0.227 OA 
BRANCH  10  11
HETATM   11  P   UNL     1      -9.804  13.071  66.463  1.00  0.00    -0.265 P  
HETATM   12  O   UNL     1     -10.492  13.478  67.888  1.00  0.00    -0.241 OA 
HETATM   13  O   UNL     1      -8.435  12.464  66.798  1.00  0.00    -0.174 OA 
BRANCH  11  14
HETATM   14  O   UNL     1      -9.094  14.647  66.370  1.00  0.00    -0.264 OA 
HETATM   15  P   UNL     1     -10.130  15.694  65.463  1.00  0.00    -0.281 P  
HETATM   16  O   UNL     1     -11.058  16.630  64.650  1.00  0.00    -0.763 OA 
HETATM   17  O   UNL     1     -10.848  16.027  66.901  1.00  0.00    -0.296 OA 
HETATM   18  O   UNL     1      -8.944  16.813  65.671  1.00  0.00    -0.475 OA 
ENDBRANCH  11  14
ENDBRANCH  10  11
ENDBRANCH   5  10
BRANCH   8  19
HETATM   19  C   UNL     1     -10.123   6.920  67.854  1.00  0.00    -0.162 C  
BRANCH  19  20
HETATM   20  O   UNL     1     -11.208   7.021  68.758  1.00  0.00    -0.083 OA 
HETATM   21  P   UNL     1     -10.937   6.742  70.299  1.00  0.00    -0.339 P  
HETATM   22  O   UNL     1     -12.295   7.271  70.949  1.00  0.00    -0.314 OA 
HETATM   23  O   UNL     1     -10.543   5.357  70.662  1.00  0.00    -0.263 OA 
HETATM   24  O   UNL     1      -9.942   7.925  70.687  1.00  0.00    -0.185 OA 
ENDBRANCH  19  20
ENDBRANCH   8  19
TORSDOF 5
ENDMDL
MODEL      167
REMARK 921   NORMALIZED FREE ENERGY PREDICTED BY IDOCK:   -4.22 KCAL/MOL
REMARK 922        TOTAL FREE ENERGY PREDICTED BY IDOCK:   -6.16 KCAL/MOL
REMARK 923 INTER-LIGAND FREE ENERGY PREDICTED BY IDOCK:   -5.88 KCAL/MOL
REMARK 924 INTRA-LIGAND FREE ENERGY PREDICTED BY IDOCK:   -0.28 KCAL/MOL
REMARK 927      BINDING AFFINITY PREDICTED BY RF-SCORE:    0.00 PKD
ROOT
HETATM    1  O   UNL     1      -9.470   6.931  69.542  1.00  0.00    -0.147 OA 
HETATM    2  H   UNL     1      -9.246   6.469  70.342  1.00  0.00     0.000 HD 
HETATM    3  C   UNL     1      -9.607   8.333  69.752  1.00  0.00    -0.171 C  
HETATM    4  C   UNL     1      -9.965   9.070  68.474  1.00  0.00    -0.176 C  
HETATM    5  C   UNL     1     -10.519  10.395  69.050  1.00  0.00    -0.219 C  
HETATM    6  O   UNL     1     -10.964   8.311  67.761  1.00  0.00    -0.494 OA 
HETATM    7  O   UNL     1     -11.208  10.020  70.257  1.00  0.00    -0.267 OA 
HETATM    8  C   UNL     1     -10.812   8.674  70.610  1.00  0.00    -0.229 C  
HETATM    9  H   UNL     1     -11.188   8.772  66.961  1.00  0.00     0.000 HD 
ENDROOT
BRANCH   5  10
HETATM   10  O   UNL     1     -11.326  11.007  68.071  1.00  0.00    -0.276 OA 
BRANCH  10  11
HETATM   11  P   UNL     1     -11.454  12.713  67.820  1.00  0.00    -0.356 P  
HETATM   12  O   UNL     1      -9.852  12.796  67.506  1.00  0.00    -0.204 OA 
HETATM   13  O   UNL     1     -12.148  12.454  66.476  1.00  0.00    -0.599 OA 
BRANCH  11  14
HETATM   14  O   UNL     1     -11.580  14.420  67.568  1.00  0.00    -0.336 OA 
HETATM   15  P   UNL     1     -10.170  14.987  66.743  1.00  0.00    -0.275 P  
HETATM   16  O   UNL     1      -8.906  15.495  66.005  1.00  0.00    -0.308 OA 
HETATM   17  O   UNL     1     -10.993  14.654  65.363  1.00  0.00    -0.316 OA 
HETATM   18  O   UNL     1     -10.843  16.478  66.915  1.00  0.00    -0.225 OA 
ENDBRANCH  11  14
ENDBRANCH  10  11
ENDBRANCH   5  10
BRANCH   8  19
HETATM   19  C   UNL     1     -10.507   8.586  72.103  1.00  0.00    -0.342 C  
BRANCH  19  20
HETATM   20  O   UNL     1      -9.121   8.829  72.252  1.00  0.00    -0.355 OA 
HETATM   21  P   UNL     1      -8.260   7.802  73.106  1.00  0.00    -0.184 P  
HETATM   22  O   UNL     1      -6.778   8.267  72.741  1.00  0.00    -0.088 OA 
HETATM   23  O   UNL     1      -8.574   7.719  74.555  1.00  0.00    -0.205 OA 
HETATM   24  O   UNL     1      -8.373   6.466  72.243  1.00  0.00    -0.108 OA 
ENDBRANCH  19  20
ENDBRANCH   8  19
TORSDOF 5
ENDMDL
MODEL      168
REMARK 921   NORMALIZED FREE ENERGY PREDICTED BY IDOCK:   -4.20 KCAL/MOL
REMARK 922        TOTAL FREE ENERGY PREDICTED BY IDOCK:   -6.14 KCAL/MOL
REMARK 923 INTER-LIGAND FREE ENERGY PREDICTED BY IDOCK:   -5.85 KCAL/MOL
REMARK 924 INTRA-LIGAND FREE ENERGY PREDICTED BY IDOCK:   -0.29 KCAL/MOL
REMARK 927      BINDING AFFINITY PREDICTED BY RF-SCORE:    0.00 PKD
ROOT
HETATM    1  O   UNL     1     -10.097   9.690  66.068  1.00  0.00    -0.283 OA 
HETATM    2  H   UNL     1      -9.916   8.927  66.604  1.00  0.00     0.000 HD 
HETATM    3  C   UNL     1      -9.530  10.876  66.615  1.00  0.00    -0.179 C  
HETATM    4  C   UNL     1      -9.819  12.096  65.759  1.00  0.00    -0.245 C  
HETATM    5  C   UNL     1      -9.554  13.232  66.775  1.00  0.00    -0.258 C  
HETATM    6  O   UNL     1     -11.195  12.046  65.325  1.00  0.00    -0.317 OA 
HETATM    7  O   UNL     1     -10.017  12.720  68.039  1.00  0.00    -0.212 OA 
HETATM    8  C   UNL     1     -10.199  11.291  67.914  1.00  0.00    -0.181 C  
HETATM    9  H   UNL     1     -11.375  12.809  64.788  1.00  0.00     0.000 HD 
ENDROOT
BRANCH   5  10
HETATM   10  O   UNL     1     -10.212  14.395  66.330  1.00  0.00    -0.281 OA 
BRANCH  10  11
HETATM   11  P   UNL     1      -9.448  15.924  66.066  1.00  0.00    -0.309 P  
HETATM   12  O   UNL     1     -10.651  16.676  66.877  1.00  0.00    -0.302 OA 
HETATM   13  O   UNL     1      -8.381  15.560  67.109  1.00  0.00    -0.179 OA 
BRANCH  11  14
HETATM   14  O   UNL     1      -8.683  17.454  65.804  1.00  0.00    -0.522 OA 
HETATM   15  P   UNL     1      -9.540  18.683  66.669  1.00  0.00    -0.352 P  
HETATM   16  O   UNL     1     -10.308  19.782  67.443  1.00  0.00    -0.406 OA 
HETATM   17  O   UNL     1      -8.544  18.323  67.922  1.00  0.00    -0.249 OA 
HETATM   18  O   UNL     1      -8.470  19.719  65.973  1.00  0.00    -0.361 OA 
ENDBRANCH  11  14
ENDBRANCH  10  11
ENDBRANCH   5  10
BRANCH   8  19
HETATM   19  C   UNL     1      -9.609  10.574  69.126  1.00  0.00    -0.199 C  
BRANCH  19  20
HETATM   20  O   UNL     1     -10.616   9.713  69.623  1.00  0.00    -0.209 OA 
HETATM   21  P   UNL     1     -10.328   8.150  69.652  1.00  0.00    -0.220 P  
HETATM   22  O   UNL     1     -11.540   7.633  70.552  1.00  0.00    -0.260 OA 
HETATM   23  O   UNL     1     -10.168   7.482  68.336  1.00  0.00    -0.176 OA 
HETATM   24  O   UNL     1      -9.123   8.048  70.691  1.00  0.00    -0.149 OA 
ENDBRANCH  19  20
ENDBRANCH   8  19
TORSDOF 5
ENDMDL
MODEL      169
REMARK 921   NORMALIZED FREE ENERGY PREDICTED BY IDOCK:   -4.20 KCAL/MOL
REMARK 922        TOTAL FREE ENERGY PREDICTED BY IDOCK:   -6.13 KCAL/MOL
REMARK 923 INTER-LIGAND FREE ENERGY PREDICTED BY IDOCK:   -5.53 KCAL/MOL
REMARK 924 INTRA-LIGAND FREE ENERGY PREDICTED BY IDOCK:   -0.59 KCAL/MOL
REMARK 927      BINDING AFFINITY PREDICTED BY RF-SCORE:    0.00 PKD
ROOT
HETATM    1  O   UNL     1      -6.181  16.438  69.602  1.00  0.00    -0.193 OA 
HETATM    2  H   UNL     1      -5.526  17.124  69.665  1.00  0.00     0.000 HD 
HETATM    3  C   UNL     1      -7.117  16.685  68.558  1.00  0.00    -0.172 C  
HETATM    4  C   UNL     1      -8.164  15.591  68.458  1.00  0.00    -0.148 C  
HETATM    5  C   UNL     1      -9.267  16.318  67.652  1.00  0.00    -0.206 C  
HETATM    6  O   UNL     1      -8.592  15.230  69.788  1.00  0.00    -0.388 OA 
HETATM    7  O   UNL     1      -9.234  17.680  68.116  1.00  0.00    -0.266 OA 
HETATM    8  C   UNL     1      -8.004  17.883  68.849  1.00  0.00    -0.168 C  
HETATM    9  H   UNL     1      -9.247  14.545  69.726  1.00  0.00     0.000 HD 
ENDROOT
BRANCH   5  10
HETATM   10  O   UNL     1     -10.489  15.649  67.860  1.00  0.00    -0.254 OA 
BRANCH  10  11
HETATM   11  P   UNL     1     -11.091  14.362  66.875  1.00  0.00    -0.343 P  
HETATM   12  O   UNL     1     -12.464  14.313  67.760  1.00  0.00    -0.122 OA 
HETATM   13  O   UNL     1     -11.342  15.361  65.737  1.00  0.00    -0.253 OA 
BRANCH  11  14
HETATM   14  O   UNL     1     -11.695  13.073  65.890  1.00  0.00    -0.354 OA 
HETATM   15  P   UNL     1     -10.625  12.819  64.555  1.00  0.00    -0.386 P  
HETATM   16  O   UNL     1      -9.667  12.591  63.359  1.00  0.00    -0.253 OA 
HETATM   17  O   UNL     1      -9.832  11.780  65.547  1.00  0.00    -0.227 OA 
HETATM   18  O   UNL     1     -11.723  11.693  64.073  1.00  0.00    -0.340 OA 
ENDBRANCH  11  14
ENDBRANCH  10  11
ENDBRANCH   5  10
BRANCH   8  19
HETATM   19  C   UNL     1      -7.353  19.202  68.436  1.00  0.00    -0.298 C  
BRANCH  19  20
HETATM   20  O   UNL     1      -6.348  18.884  67.492  1.00  0.00    -0.191 OA 
HETATM   21  P   UNL     1      -6.681  19.052  65.947  1.00  0.00    -0.270 P  
HETATM   22  O   UNL     1      -5.227  18.912  65.304  1.00  0.00    -0.145 OA 
HETATM   23  O   UNL     1      -7.723  18.153  65.393  1.00  0.00    -0.334 OA 
HETATM   24  O   UNL     1      -6.910  20.625  65.820  1.00  0.00    -0.223 OA 
ENDBRANCH  19  20
ENDBRANCH   8  19
TORSDOF 5
ENDMDL
MODEL      170
REMARK 921   NORMALIZED FREE ENERGY PREDICTED BY IDOCK:   -4.19 KCAL/MOL
REMARK 922        TOTAL FREE ENERGY PREDICTED BY IDOCK:   -6.12 KCAL/MOL
REMARK 923 INTER-LIGAND FREE ENERGY PREDICTED BY IDOCK:   -5.47 KCAL/MOL
REMARK 924 INTRA-LIGAND FREE ENERGY PREDICTED BY IDOCK:   -0.65 KCAL/MOL
REMARK 927      BINDING AFFINITY PREDICTED BY RF-SCORE:    0.00 PKD
ROOT
HETATM    1  O   UNL     1     -13.378  11.143  72.139  1.00  0.00    -0.592 OA 
HETATM    2  H   UNL     1     -13.621  10.411  72.693  1.00  0.00     0.000 HD 
HETATM    3  C   UNL     1     -12.878  10.716  70.876  1.00  0.00    -0.382 C  
HETATM    4  C   UNL     1     -12.489  11.886  69.989  1.00  0.00    -0.021 C  
HETATM    5  C   UNL     1     -11.566  11.180  68.967  1.00  0.00    -0.324 C  
HETATM    6  O   UNL     1     -11.791  12.865  70.787  1.00  0.00    -0.494 OA 
HETATM    7  O   UNL     1     -10.865  10.177  69.726  1.00  0.00    -0.240 OA 
HETATM    8  C   UNL     1     -11.540  10.008  70.994  1.00  0.00    -0.393 C  
HETATM    9  H   UNL     1     -11.548  13.597  70.233  1.00  0.00     0.000 HD 
ENDROOT
BRANCH   5  10
HETATM   10  O   UNL     1     -10.743  12.149  68.362  1.00  0.00    -0.211 OA 
BRANCH  10  11
HETATM   11  P   UNL     1      -9.363  11.800  67.380  1.00  0.00    -0.182 P  
HETATM   12  O   UNL     1      -9.658  13.128  66.475  1.00  0.00    -0.260 OA 
HETATM   13  O   UNL     1      -8.445  12.249  68.526  1.00  0.00    -0.152 OA 
BRANCH  11  14
HETATM   14  O   UNL     1      -7.982  11.452  66.397  1.00  0.00    -0.156 OA 
HETATM   15  P   UNL     1      -8.166   9.891  65.676  1.00  0.00    -0.151 P  
HETATM   16  O   UNL     1      -8.332   8.493  65.030  1.00  0.00    -0.153 OA 
HETATM   17  O   UNL     1      -8.923  10.682  64.452  1.00  0.00    -0.192 OA 
HETATM   18  O   UNL     1      -6.663  10.154  65.063  1.00  0.00    -0.120 OA 
ENDBRANCH  11  14
ENDBRANCH  10  11
ENDBRANCH   5  10
BRANCH   8  19
HETATM   19  C   UNL     1     -11.694   8.524  71.317  1.00  0.00    -0.284 C  
BRANCH  19  20
HETATM   20  O   UNL     1     -10.549   7.871  70.802  1.00  0.00    -0.209 OA 
HETATM   21  P   UNL     1     -10.606   6.298  70.587  1.00  0.00    -0.281 P  
HETATM   22  O   UNL     1      -9.288   6.058  69.722  1.00  0.00    -0.147 OA 
HETATM   23  O   UNL     1     -10.737   5.468  71.811  1.00  0.00    -0.231 OA 
HETATM   24  O   UNL     1     -11.729   6.150  69.465  1.00  0.00    -0.298 OA 
ENDBRANCH  19  20
ENDBRANCH   8  19
TORSDOF 5
ENDMDL
MODEL      171
REMARK 921   NORMALIZED FREE ENERGY PREDICTED BY IDOCK:   -4.19 KCAL/MOL
REMARK 922        TOTAL FREE ENERGY PREDICTED BY IDOCK:   -6.12 KCAL/MOL
REMARK 923 INTER-LIGAND FREE ENERGY PREDICTED BY IDOCK:   -5.47 KCAL/MOL
REMARK 924 INTRA-LIGAND FREE ENERGY PREDICTED BY IDOCK:   -0.65 KCAL/MOL
REMARK 927      BINDING AFFINITY PREDICTED BY RF-SCORE:    0.00 PKD
ROOT
HETATM    1  O   UNL     1     -10.097   7.862  70.432  1.00  0.00    -0.192 OA 
HETATM    2  H   UNL     1      -9.510   7.118  70.367  1.00  0.00     0.000 HD 
HETATM    3  C   UNL     1     -10.062   8.677  69.265  1.00  0.00    -0.202 C  
HETATM    4  C   UNL     1     -11.001   9.865  69.369  1.00  0.00    -0.230 C  
HETATM    5  C   UNL     1     -10.420  10.789  68.271  1.00  0.00    -0.181 C  
HETATM    6  O   UNL     1     -10.891  10.433  70.691  1.00  0.00    -0.412 OA 
HETATM    7  O   UNL     1      -8.996  10.586  68.325  1.00  0.00    -0.131 OA 
HETATM    8  C   UNL     1      -8.734   9.393  69.100  1.00  0.00    -0.142 C  
HETATM    9  H   UNL     1     -11.478  11.177  70.756  1.00  0.00     0.000 HD 
ENDROOT
BRANCH   5  10
HETATM   10  O   UNL     1     -10.841  12.109  68.526  1.00  0.00    -0.216 OA 
BRANCH  10  11
HETATM   11  P   UNL     1     -11.243  13.270  67.310  1.00  0.00    -0.321 P  
HETATM   12  O   UNL     1      -9.821  14.036  67.557  1.00  0.00    -0.229 OA 
HETATM   13  O   UNL     1     -10.987  12.213  66.228  1.00  0.00    -0.270 OA 
BRANCH  11  14
HETATM   14  O   UNL     1     -11.645  14.433  66.093  1.00  0.00    -0.353 OA 
HETATM   15  P   UNL     1     -12.053  13.614  64.625  1.00  0.00    -0.416 P  
HETATM   16  O   UNL     1     -12.418  12.880  63.311  1.00  0.00    -0.685 OA 
HETATM   17  O   UNL     1     -13.587  13.593  65.208  1.00  0.00    -0.365 OA 
HETATM   18  O   UNL     1     -12.198  15.123  63.990  1.00  0.00    -0.621 OA 
ENDBRANCH  11  14
ENDBRANCH  10  11
ENDBRANCH   5  10
BRANCH   8  19
HETATM   19  C   UNL     1      -7.689   8.526  68.400  1.00  0.00    -0.101 C  
BRANCH  19  20
HETATM   20  O   UNL     1      -8.148   8.320  67.077  1.00  0.00    -0.102 OA 
HETATM   21  P   UNL     1      -7.073   8.178  65.916  1.00  0.00    -0.065 P  
HETATM   22  O   UNL     1      -7.984   7.651  64.717  1.00  0.00    -0.129 OA 
HETATM   23  O   UNL     1      -6.251   9.379  65.624  1.00  0.00    -0.062 OA 
HETATM   24  O   UNL     1      -6.312   6.837  66.322  1.00  0.00    -0.042 OA 
ENDBRANCH  19  20
ENDBRANCH   8  19
TORSDOF 5
ENDMDL
MODEL      172
REMARK 921   NORMALIZED FREE ENERGY PREDICTED BY IDOCK:   -4.17 KCAL/MOL
REMARK 922        TOTAL FREE ENERGY PREDICTED BY IDOCK:   -6.09 KCAL/MOL
REMARK 923 INTER-LIGAND FREE ENERGY PREDICTED BY IDOCK:   -5.61 KCAL/MOL
REMARK 924 INTRA-LIGAND FREE ENERGY PREDICTED BY IDOCK:   -0.48 KCAL/MOL
REMARK 927      BINDING AFFINITY PREDICTED BY RF-SCORE:    0.00 PKD
ROOT
HETATM    1  O   UNL     1      -6.062  15.625  69.463  1.00  0.00    -0.123 OA 
HETATM    2  H   UNL     1      -5.507  16.368  69.673  1.00  0.00     0.000 HD 
HETATM    3  C   UNL     1      -6.986  15.924  68.421  1.00  0.00    -0.116 C  
HETATM    4  C   UNL     1      -7.873  14.739  68.086  1.00  0.00    -0.125 C  
HETATM    5  C   UNL     1      -9.033  15.446  67.346  1.00  0.00    -0.191 C  
HETATM    6  O   UNL     1      -8.296  14.110  69.313  1.00  0.00    -0.353 OA 
HETATM    7  O   UNL     1      -9.199  16.704  68.025  1.00  0.00    -0.216 OA 
HETATM    8  C   UNL     1      -8.034  16.935  68.850  1.00  0.00    -0.224 C  
HETATM    9  H   UNL     1      -8.851  13.368  69.103  1.00  0.00     0.000 HD 
ENDROOT
BRANCH   5  10
HETATM   10  O   UNL     1     -10.162  14.604  67.373  1.00  0.00    -0.239 OA 
BRANCH  10  11
HETATM   11  P   UNL     1     -10.125  12.893  67.125  1.00  0.00    -0.250 P  
HETATM   12  O   UNL     1     -10.912  12.661  68.538  1.00  0.00    -0.238 OA 
HETATM   13  O   UNL     1     -11.204  13.035  66.043  1.00  0.00    -0.282 OA 
BRANCH  11  14
HETATM   14  O   UNL     1     -10.088  11.181  66.878  1.00  0.00    -0.203 OA 
HETATM   15  P   UNL     1      -9.959  10.845  65.187  1.00  0.00    -0.325 P  
HETATM   16  O   UNL     1      -9.843  10.544  63.672  1.00  0.00    -0.312 OA 
HETATM   17  O   UNL     1      -8.336  10.914  65.422  1.00  0.00    -0.144 OA 
HETATM   18  O   UNL     1     -10.067   9.267  65.637  1.00  0.00    -0.215 OA 
ENDBRANCH  11  14
ENDBRANCH  10  11
ENDBRANCH   5  10
BRANCH   8  19
HETATM   19  C   UNL     1      -7.551  18.376  68.693  1.00  0.00    -0.302 C  
BRANCH  19  20
HETATM   20  O   UNL     1      -8.473  19.025  67.838  1.00  0.00    -0.283 OA 
HETATM   21  P   UNL     1      -7.940  19.625  66.467  1.00  0.00    -0.329 P  
HETATM   22  O   UNL     1      -9.313  19.945  65.719  1.00  0.00    -0.339 OA 
HETATM   23  O   UNL     1      -6.979  20.752  66.566  1.00  0.00    -0.265 OA 
HETATM   24  O   UNL     1      -7.475  18.316  65.684  1.00  0.00    -0.532 OA 
ENDBRANCH  19  20
ENDBRANCH   8  19
TORSDOF 5
ENDMDL
MODEL      173
REMARK 921   NORMALIZED FREE ENERGY PREDICTED BY IDOCK:   -4.16 KCAL/MOL
REMARK 922        TOTAL FREE ENERGY PREDICTED BY IDOCK:   -6.08 KCAL/MOL
REMARK 923 INTER-LIGAND FREE ENERGY PREDICTED BY IDOCK:   -5.33 KCAL/MOL
REMARK 924 INTRA-LIGAND FREE ENERGY PREDICTED BY IDOCK:   -0.75 KCAL/MOL
REMARK 927      BINDING AFFINITY PREDICTED BY RF-SCORE:    0.00 PKD
ROOT
HETATM    1  O   UNL     1     -13.208  10.609  72.261  1.00  0.00    -0.594 OA 
HETATM    2  H   UNL     1     -13.053   9.904  72.880  1.00  0.00     0.000 HD 
HETATM    3  C   UNL     1     -12.636  10.337  70.985  1.00  0.00    -0.390 C  
HETATM    4  C   UNL     1     -12.883  11.464  69.998  1.00  0.00     0.175 C  
HETATM    5  C   UNL     1     -11.795  11.162  68.939  1.00  0.00    -0.337 C  
HETATM    6  O   UNL     1     -12.676  12.725  70.666  1.00  0.00    -0.200 OA 
HETATM    7  O   UNL     1     -10.669  10.670  69.688  1.00  0.00    -0.243 OA 
HETATM    8  C   UNL     1     -11.119  10.334  71.021  1.00  0.00    -0.035 C  
HETATM    9  H   UNL     1     -12.830  13.430  70.048  1.00  0.00     0.000 HD 
ENDROOT
BRANCH   5  10
HETATM   10  O   UNL     1     -11.550  12.337  68.201  1.00  0.00    -0.297 OA 
BRANCH  10  11
HETATM   11  P   UNL     1      -9.987  12.879  67.698  1.00  0.00    -0.228 P  
HETATM   12  O   UNL     1     -10.426  12.724  66.132  1.00  0.00    -0.259 OA 
HETATM   13  O   UNL     1     -10.358  14.309  68.115  1.00  0.00    -0.224 OA 
BRANCH  11  14
HETATM   14  O   UNL     1      -8.423  13.422  67.193  1.00  0.00    -0.199 OA 
HETATM   15  P   UNL     1      -7.222  12.808  68.276  1.00  0.00    -0.138 P  
HETATM   16  O   UNL     1      -6.147  12.257  69.246  1.00  0.00    -0.079 OA 
HETATM   17  O   UNL     1      -7.167  11.505  67.280  1.00  0.00    -0.113 OA 
HETATM   18  O   UNL     1      -6.163  13.682  67.371  1.00  0.00    -0.323 OA 
ENDBRANCH  11  14
ENDBRANCH  10  11
ENDBRANCH   5  10
BRANCH   8  19
HETATM   19  C   UNL     1     -10.550   8.983  71.447  1.00  0.00    -0.323 C  
BRANCH  19  20
HETATM   20  O   UNL     1     -10.560   8.155  70.299  1.00  0.00    -0.219 OA 
HETATM   21  P   UNL     1     -11.084   6.662  70.448  1.00  0.00    -0.375 P  
HETATM   22  O   UNL     1     -11.224   6.233  68.918  1.00  0.00    -0.370 OA 
HETATM   23  O   UNL     1     -10.274   5.758  71.302  1.00  0.00    -0.200 OA 
HETATM   24  O   UNL     1     -12.615   6.879  70.837  1.00  0.00    -0.357 OA 
ENDBRANCH  19  20
ENDBRANCH   8  19
TORSDOF 5
ENDMDL
MODEL      174
REMARK 921   NORMALIZED FREE ENERGY PREDICTED BY IDOCK:   -4.13 KCAL/MOL
REMARK 922        TOTAL FREE ENERGY PREDICTED BY IDOCK:   -6.04 KCAL/MOL
REMARK 923 INTER-LIGAND FREE ENERGY PREDICTED BY IDOCK:   -5.50 KCAL/MOL
REMARK 924 INTRA-LIGAND FREE ENERGY PREDICTED BY IDOCK:   -0.54 KCAL/MOL
REMARK 927      BINDING AFFINITY PREDICTED BY RF-SCORE:    0.00 PKD
ROOT
HETATM    1  O   UNL     1     -10.365  16.720  68.312  1.00  0.00    -0.285 OA 
HETATM    2  H   UNL     1     -11.116  17.141  67.909  1.00  0.00     0.000 HD 
HETATM    3  C   UNL     1      -9.989  15.528  67.629  1.00  0.00    -0.233 C  
HETATM    4  C   UNL     1      -8.790  14.855  68.273  1.00  0.00    -0.172 C  
HETATM    5  C   UNL     1      -8.912  13.427  67.689  1.00  0.00    -0.202 C  
HETATM    6  O   UNL     1      -8.949  14.887  69.707  1.00  0.00    -0.438 OA 
HETATM    7  O   UNL     1     -10.327  13.172  67.616  1.00  0.00    -0.218 OA 
HETATM    8  C   UNL     1     -11.026  14.429  67.772  1.00  0.00    -0.274 C  
HETATM    9  H   UNL     1      -8.199  14.466  70.109  1.00  0.00     0.000 HD 
ENDROOT
BRANCH   5  10
HETATM   10  O   UNL     1      -8.192  12.542  68.515  1.00  0.00    -0.147 OA 
BRANCH  10  11
HETATM   11  P   UNL     1      -7.935  10.865  68.180  1.00  0.00    -0.129 P  
HETATM   12  O   UNL     1      -6.483  11.209  67.515  1.00  0.00    -0.062 OA 
HETATM   13  O   UNL     1      -7.683  10.614  69.673  1.00  0.00    -0.146 OA 
BRANCH  11  14
HETATM   14  O   UNL     1      -7.678   9.187  67.844  1.00  0.00    -0.092 OA 
HETATM   15  P   UNL     1      -7.862   8.273  69.301  1.00  0.00    -0.112 P  
HETATM   16  O   UNL     1      -8.027   7.455  70.606  1.00  0.00    -0.096 OA 
HETATM   17  O   UNL     1      -9.450   8.180  68.897  1.00  0.00    -0.150 OA 
HETATM   18  O   UNL     1      -7.438   6.981  68.376  1.00  0.00    -0.097 OA 
ENDBRANCH  11  14
ENDBRANCH  10  11
ENDBRANCH   5  10
BRANCH   8  19
HETATM   19  C   UNL     1     -12.142  14.545  66.736  1.00  0.00    -0.288 C  
BRANCH  19  20
HETATM   20  O   UNL     1     -12.084  13.377  65.938  1.00  0.00    -0.391 OA 
HETATM   21  P   UNL     1     -11.680  13.526  64.409  1.00  0.00    -0.421 P  
HETATM   22  O   UNL     1     -11.428  12.001  64.009  1.00  0.00    -0.353 OA 
HETATM   23  O   UNL     1     -12.626  14.274  63.544  1.00  0.00    -0.814 OA 
HETATM   24  O   UNL     1     -10.180  14.058  64.505  1.00  0.00    -0.381 OA 
ENDBRANCH  19  20
ENDBRANCH   8  19
TORSDOF 5
ENDMDL
MODEL      175
REMARK 921   NORMALIZED FREE ENERGY PREDICTED BY IDOCK:   -4.09 KCAL/MOL
REMARK 922        TOTAL FREE ENERGY PREDICTED BY IDOCK:   -5.99 KCAL/MOL
REMARK 923 INTER-LIGAND FREE ENERGY PREDICTED BY IDOCK:   -5.26 KCAL/MOL
REMARK 924 INTRA-LIGAND FREE ENERGY PREDICTED BY IDOCK:   -0.72 KCAL/MOL
REMARK 927      BINDING AFFINITY PREDICTED BY RF-SCORE:    0.00 PKD
ROOT
HETATM    1  O   UNL     1      -7.572  13.722  67.249  1.00  0.00    -0.293 OA 
HETATM    2  H   UNL     1      -7.892  14.522  66.848  1.00  0.00     0.000 HD 
HETATM    3  C   UNL     1      -8.564  12.701  67.274  1.00  0.00    -0.196 C  
HETATM    4  C   UNL     1      -8.053  11.423  67.915  1.00  0.00    -0.126 C  
HETATM    5  C   UNL     1      -9.387  10.716  68.253  1.00  0.00    -0.156 C  
HETATM    6  O   UNL     1      -7.289  11.763  69.090  1.00  0.00    -0.240 OA 
HETATM    7  O   UNL     1     -10.288  11.774  68.628  1.00  0.00    -0.215 OA 
HETATM    8  C   UNL     1      -9.713  13.034  68.209  1.00  0.00    -0.221 C  
HETATM    9  H   UNL     1      -6.969  10.964  69.491  1.00  0.00     0.000 HD 
ENDROOT
BRANCH   5  10
HETATM   10  O   UNL     1      -9.145   9.759  69.258  1.00  0.00    -0.160 OA 
BRANCH  10  11
HETATM   11  P   UNL     1     -10.339   8.697  69.920  1.00  0.00    -0.216 P  
HETATM   12  O   UNL     1     -10.489   7.948  68.476  1.00  0.00    -0.206 OA 
HETATM   13  O   UNL     1      -9.238   7.951  70.686  1.00  0.00    -0.155 OA 
BRANCH  11  14
HETATM   14  O   UNL     1     -11.533   7.635  70.582  1.00  0.00    -0.282 OA 
HETATM   15  P   UNL     1     -11.086   7.197  72.195  1.00  0.00    -0.272 P  
HETATM   16  O   UNL     1     -10.685   6.806  73.639  1.00  0.00    -0.316 OA 
HETATM   17  O   UNL     1     -11.920   8.533  72.657  1.00  0.00    -0.373 OA 
HETATM   18  O   UNL     1     -12.424   6.242  72.155  1.00  0.00    -0.291 OA 
ENDBRANCH  11  14
ENDBRANCH  10  11
ENDBRANCH   5  10
BRANCH   8  19
HETATM   19  C   UNL     1     -10.774  13.903  67.539  1.00  0.00    -0.267 C  
BRANCH  19  20
HETATM   20  O   UNL     1     -10.868  15.093  68.300  1.00  0.00    -0.247 OA 
HETATM   21  P   UNL     1      -9.969  16.334  67.879  1.00  0.00    -0.252 P  
HETATM   22  O   UNL     1     -10.618  17.495  68.761  1.00  0.00    -0.330 OA 
HETATM   23  O   UNL     1      -8.501  16.163  68.013  1.00  0.00    -0.165 OA 
HETATM   24  O   UNL     1     -10.548  16.697  66.438  1.00  0.00    -0.284 OA 
ENDBRANCH  19  20
ENDBRANCH   8  19
TORSDOF 5
ENDMDL
MODEL      176
REMARK 921   NORMALIZED FREE ENERGY PREDICTED BY IDOCK:   -4.09 KCAL/MOL
REMARK 922        TOTAL FREE ENERGY PREDICTED BY IDOCK:   -5.99 KCAL/MOL
REMARK 923 INTER-LIGAND FREE ENERGY PREDICTED BY IDOCK:   -5.21 KCAL/MOL
REMARK 924 INTRA-LIGAND FREE ENERGY PREDICTED BY IDOCK:   -0.78 KCAL/MOL
REMARK 927      BINDING AFFINITY PREDICTED BY RF-SCORE:    0.00 PKD
ROOT
HETATM    1  O   UNL     1      -9.797  12.918  64.070  1.00  0.00    -0.673 OA 
HETATM    2  H   UNL     1      -9.801  13.862  63.961  1.00  0.00     0.000 HD 
HETATM    3  C   UNL     1     -10.030  12.533  65.421  1.00  0.00    -0.219 C  
HETATM    4  C   UNL     1     -10.024  11.025  65.595  1.00  0.00    -0.248 C  
HETATM    5  C   UNL     1      -9.799  10.911  67.121  1.00  0.00    -0.184 C  
HETATM    6  O   UNL     1      -8.935  10.470  64.828  1.00  0.00    -0.187 OA 
HETATM    7  O   UNL     1      -8.911  11.995  67.451  1.00  0.00    -0.165 OA 
HETATM    8  C   UNL     1      -8.882  12.917  66.337  1.00  0.00     0.074 C  
HETATM    9  H   UNL     1      -8.932   9.527  64.936  1.00  0.00     0.000 HD 
ENDROOT
BRANCH   5  10
HETATM   10  O   UNL     1      -9.297   9.626  67.406  1.00  0.00    -0.133 OA 
BRANCH  10  11
HETATM   11  P   UNL     1      -9.817   8.631  68.722  1.00  0.00    -0.181 P  
HETATM   12  O   UNL     1     -11.053   9.656  69.022  1.00  0.00    -0.177 OA 
HETATM   13  O   UNL     1     -10.344   7.595  67.719  1.00  0.00    -0.194 OA 
BRANCH  11  14
HETATM   14  O   UNL     1     -10.338   7.636  70.038  1.00  0.00    -0.212 OA 
HETATM   15  P   UNL     1      -9.932   5.987  69.710  1.00  0.00    -0.202 P  
HETATM   16  O   UNL     1      -9.569   4.510  69.416  1.00  0.00    -0.161 OA 
HETATM   17  O   UNL     1      -8.501   6.322  70.440  1.00  0.00    -0.130 OA 
HETATM   18  O   UNL     1     -10.704   5.664  71.126  1.00  0.00    -0.251 OA 
ENDBRANCH  11  14
ENDBRANCH  10  11
ENDBRANCH   5  10
BRANCH   8  19
HETATM   19  C   UNL     1      -8.993  14.355  66.837  1.00  0.00    -0.243 C  
BRANCH  19  20
HETATM   20  O   UNL     1      -9.766  15.061  65.885  1.00  0.00    -0.306 OA 
HETATM   21  P   UNL     1     -10.235  16.538  66.236  1.00  0.00    -0.326 P  
HETATM   22  O   UNL     1     -10.761  17.039  64.815  1.00  0.00    -0.760 OA 
HETATM   23  O   UNL     1     -11.189  16.679  67.364  1.00  0.00    -0.082 OA 
HETATM   24  O   UNL     1      -8.849  17.320  66.331  1.00  0.00    -0.247 OA 
ENDBRANCH  19  20
ENDBRANCH   8  19
TORSDOF 5
ENDMDL
MODEL      177
REMARK 921   NORMALIZED FREE ENERGY PREDICTED BY IDOCK:   -4.08 KCAL/MOL
REMARK 922        TOTAL FREE ENERGY PREDICTED BY IDOCK:   -5.98 KCAL/MOL
REMARK 923 INTER-LIGAND FREE ENERGY PREDICTED BY IDOCK:   -5.37 KCAL/MOL
REMARK 924 INTRA-LIGAND FREE ENERGY PREDICTED BY IDOCK:   -0.61 KCAL/MOL
REMARK 927      BINDING AFFINITY PREDICTED BY RF-SCORE:    0.00 PKD
ROOT
HETATM    1  O   UNL     1     -10.922  11.147  66.503  1.00  0.00    -0.271 OA 
HETATM    2  H   UNL     1     -10.456  11.060  65.680  1.00  0.00     0.000 HD 
HETATM    3  C   UNL     1     -10.354  10.339  67.529  1.00  0.00    -0.229 C  
HETATM    4  C   UNL     1     -11.099  10.477  68.845  1.00  0.00    -0.261 C  
HETATM    5  C   UNL     1     -10.626   9.200  69.580  1.00  0.00    -0.223 C  
HETATM    6  O   UNL     1     -12.517  10.476  68.580  1.00  0.00    -0.699 OA 
HETATM    7  O   UNL     1     -10.514   8.197  68.554  1.00  0.00    -0.207 OA 
HETATM    8  C   UNL     1     -10.539   8.856  67.266  1.00  0.00    -0.234 C  
HETATM    9  H   UNL     1     -12.984  10.563  69.404  1.00  0.00     0.000 HD 
ENDROOT
BRANCH   5  10
HETATM   10  O   UNL     1     -11.550   8.903  70.601  1.00  0.00    -0.271 OA 
BRANCH  10  11
HETATM   11  P   UNL     1     -11.217   7.908  71.976  1.00  0.00    -0.337 P  
HETATM   12  O   UNL     1     -12.622   8.376  72.667  1.00  0.00    -0.323 OA 
HETATM   13  O   UNL     1     -11.537   6.661  71.140  1.00  0.00    -0.298 OA 
BRANCH  11  14
HETATM   14  O   UNL     1     -10.885   6.913  73.352  1.00  0.00    -0.306 OA 
HETATM   15  P   UNL     1     -10.448   5.325  72.822  1.00  0.00    -0.248 P  
HETATM   16  O   UNL     1     -10.056   3.904  72.348  1.00  0.00    -0.159 OA 
HETATM   17  O   UNL     1      -8.910   5.897  72.779  1.00  0.00    -0.125 OA 
HETATM   18  O   UNL     1     -10.384   4.963  74.425  1.00  0.00    -0.242 OA 
ENDBRANCH  11  14
ENDBRANCH  10  11
ENDBRANCH   5  10
BRANCH   8  19
HETATM   19  C   UNL     1      -9.451   8.286  66.359  1.00  0.00    -0.221 C  
BRANCH  19  20
HETATM   20  O   UNL     1      -8.898   7.171  67.033  1.00  0.00    -0.119 OA 
HETATM   21  P   UNL     1      -9.023   5.739  66.356  1.00  0.00    -0.142 P  
HETATM   22  O   UNL     1      -8.019   4.886  67.257  1.00  0.00    -0.095 OA 
HETATM   23  O   UNL     1     -10.395   5.189  66.218  1.00  0.00    -0.236 OA 
HETATM   24  O   UNL     1      -8.155   5.915  65.030  1.00  0.00    -0.120 OA 
ENDBRANCH  19  20
ENDBRANCH   8  19
TORSDOF 5
ENDMDL
MODEL      178
REMARK 921   NORMALIZED FREE ENERGY PREDICTED BY IDOCK:   -4.08 KCAL/MOL
REMARK 922        TOTAL FREE ENERGY PREDICTED BY IDOCK:   -5.97 KCAL/MOL
REMARK 923 INTER-LIGAND FREE ENERGY PREDICTED BY IDOCK:   -5.98 KCAL/MOL
REMARK 924 INTRA-LIGAND FREE ENERGY PREDICTED BY IDOCK:    0.01 KCAL/MOL
REMARK 927      BINDING AFFINITY PREDICTED BY RF-SCORE:    0.00 PKD
ROOT
HETATM    1  O   UNL     1     -13.233  11.608  72.391  1.00  0.00    -0.527 OA 
HETATM    2  H   UNL     1     -13.580  11.140  73.142  1.00  0.00     0.000 HD 
HETATM    3  C   UNL     1     -12.899  10.730  71.320  1.00  0.00    -0.438 C  
HETATM    4  C   UNL     1     -12.344  11.478  70.121  1.00  0.00    -0.245 C  
HETATM    5  C   UNL     1     -11.636  10.328  69.366  1.00  0.00    -0.146 C  
HETATM    6  O   UNL     1     -11.426  12.489  70.584  1.00  0.00    -0.300 OA 
HETATM    7  O   UNL     1     -11.098   9.479  70.395  1.00  0.00    -0.243 OA 
HETATM    8  C   UNL     1     -11.718   9.836  71.653  1.00  0.00    -0.318 C  
HETATM    9  H   UNL     1     -11.079  12.957  69.834  1.00  0.00     0.000 HD 
ENDROOT
BRANCH   5  10
HETATM   10  O   UNL     1     -10.678  10.885  68.496  1.00  0.00    -0.178 OA 
BRANCH  10  11
HETATM   11  P   UNL     1     -10.891  12.347  67.597  1.00  0.00    -0.248 P  
HETATM   12  O   UNL     1      -9.634  11.949  66.632  1.00  0.00    -0.199 OA 
HETATM   13  O   UNL     1     -12.147  11.753  66.945  1.00  0.00    -0.566 OA 
BRANCH  11  14
HETATM   14  O   UNL     1     -11.104  13.810  66.697  1.00  0.00    -0.304 OA 
HETATM   15  P   UNL     1     -11.130  15.156  67.783  1.00  0.00    -0.321 P  
HETATM   16  O   UNL     1     -11.153  16.361  68.756  1.00  0.00    -0.328 OA 
HETATM   17  O   UNL     1      -9.501  15.190  67.585  1.00  0.00    -0.200 OA 
HETATM   18  O   UNL     1     -11.422  16.054  66.437  1.00  0.00     0.177 OA 
ENDBRANCH  11  14
ENDBRANCH  10  11
ENDBRANCH   5  10
BRANCH   8  19
HETATM   19  C   UNL     1     -12.136   8.580  72.413  1.00  0.00    -0.367 C  
BRANCH  19  20
HETATM   20  O   UNL     1     -11.022   7.707  72.407  1.00  0.00    -0.255 OA 
HETATM   21  P   UNL     1     -11.254   6.185  72.014  1.00  0.00    -0.293 P  
HETATM   22  O   UNL     1      -9.750   5.685  71.825  1.00  0.00    -0.155 OA 
HETATM   23  O   UNL     1     -12.091   5.383  72.941  1.00  0.00    -0.172 OA 
HETATM   24  O   UNL     1     -11.723   6.296  70.494  1.00  0.00    -0.354 OA 
ENDBRANCH  19  20
ENDBRANCH   8  19
TORSDOF 5
ENDMDL
MODEL      179
REMARK 921   NORMALIZED FREE ENERGY PREDICTED BY IDOCK:   -4.07 KCAL/MOL
REMARK 922        TOTAL FREE ENERGY PREDICTED BY IDOCK:   -5.97 KCAL/MOL
REMARK 923 INTER-LIGAND FREE ENERGY PREDICTED BY IDOCK:   -5.23 KCAL/MOL
REMARK 924 INTRA-LIGAND FREE ENERGY PREDICTED BY IDOCK:   -0.74 KCAL/MOL
REMARK 927      BINDING AFFINITY PREDICTED BY RF-SCORE:    0.00 PKD
ROOT
HETATM    1  O   UNL     1      -8.148  11.916  66.275  1.00  0.00    -0.379 OA 
HETATM    2  H   UNL     1      -8.641  12.722  66.180  1.00  0.00     0.000 HD 
HETATM    3  C   UNL     1      -8.951  10.764  66.039  1.00  0.00    -0.181 C  
HETATM    4  C   UNL     1      -8.164   9.476  66.192  1.00  0.00    -0.115 C  
HETATM    5  C   UNL     1      -9.312   8.455  66.377  1.00  0.00    -0.214 C  
HETATM    6  O   UNL     1      -7.318   9.581  67.356  1.00  0.00    -0.086 OA 
HETATM    7  O   UNL     1     -10.314   9.153  67.139  1.00  0.00    -0.241 OA 
HETATM    8  C   UNL     1     -10.008  10.566  67.111  1.00  0.00    -0.193 C  
HETATM    9  H   UNL     1      -6.824   8.774  67.451  1.00  0.00     0.000 HD 
ENDROOT
BRANCH   5  10
HETATM   10  O   UNL     1      -8.791   7.302  66.997  1.00  0.00    -0.123 OA 
BRANCH  10  11
HETATM   11  P   UNL     1      -8.546   5.782  66.210  1.00  0.00    -0.139 P  
HETATM   12  O   UNL     1      -7.042   6.243  65.767  1.00  0.00    -0.066 OA 
HETATM   13  O   UNL     1      -8.408   5.105  67.580  1.00  0.00    -0.106 OA 
BRANCH  11  14
HETATM   14  O   UNL     1      -8.299   4.261  65.422  1.00  0.00    -0.108 OA 
HETATM   15  P   UNL     1      -9.736   3.814  64.569  1.00  0.00    -0.196 P  
HETATM   16  O   UNL     1     -11.024   3.414  63.806  1.00  0.00    -0.271 OA 
HETATM   17  O   UNL     1      -9.100   4.649  63.307  1.00  0.00    -0.138 OA 
HETATM   18  O   UNL     1      -8.922   2.432  64.208  1.00  0.00    -0.098 OA 
ENDBRANCH  11  14
ENDBRANCH  10  11
ENDBRANCH   5  10
BRANCH   8  19
HETATM   19  C   UNL     1     -11.273  11.377  66.839  1.00  0.00    -0.264 C  
BRANCH  19  20
HETATM   20  O   UNL     1     -10.937  12.341  65.858  1.00  0.00    -0.280 OA 
HETATM   21  P   UNL     1     -12.032  13.418  65.450  1.00  0.00    -0.445 P  
HETATM   22  O   UNL     1     -11.150  14.449  64.611  1.00  0.00    -0.381 OA 
HETATM   23  O   UNL     1     -13.247  12.902  64.771  1.00  0.00    -0.764 OA 
HETATM   24  O   UNL     1     -12.227  14.232  66.808  1.00  0.00    -0.441 OA 
ENDBRANCH  19  20
ENDBRANCH   8  19
TORSDOF 5
ENDMDL
MODEL      180
REMARK 921   NORMALIZED FREE ENERGY PREDICTED BY IDOCK:   -4.05 KCAL/MOL
REMARK 922        TOTAL FREE ENERGY PREDICTED BY IDOCK:   -5.94 KCAL/MOL
REMARK 923 INTER-LIGAND FREE ENERGY PREDICTED BY IDOCK:   -5.09 KCAL/MOL
REMARK 924 INTRA-LIGAND FREE ENERGY PREDICTED BY IDOCK:   -0.85 KCAL/MOL
REMARK 927      BINDING AFFINITY PREDICTED BY RF-SCORE:    0.00 PKD
ROOT
HETATM    1  O   UNL     1      -8.789   8.454  64.572  1.00  0.00    -0.413 OA 
HETATM    2  H   UNL     1      -8.621   9.306  64.186  1.00  0.00     0.000 HD 
HETATM    3  C   UNL     1      -9.540   8.550  65.778  1.00  0.00     0.002 C  
HETATM    4  C   UNL     1      -9.808   7.189  66.395  1.00  0.00    -0.046 C  
HETATM    5  C   UNL     1     -10.161   7.594  67.846  1.00  0.00    -0.198 C  
HETATM    6  O   UNL     1      -8.605   6.395  66.315  1.00  0.00    -0.128 OA 
HETATM    7  O   UNL     1      -9.308   8.715  68.141  1.00  0.00    -0.137 OA 
HETATM    8  C   UNL     1      -8.754   9.207  66.899  1.00  0.00    -0.123 C  
HETATM    9  H   UNL     1      -8.773   5.543  66.701  1.00  0.00     0.000 HD 
ENDROOT
BRANCH   5  10
HETATM   10  O   UNL     1      -9.979   6.474  68.681  1.00  0.00    -0.139 OA 
BRANCH  10  11
HETATM   11  P   UNL     1     -10.148   6.486  70.402  1.00  0.00    -0.190 P  
HETATM   12  O   UNL     1     -11.727   6.092  70.261  1.00  0.00    -0.319 OA 
HETATM   13  O   UNL     1      -9.374   5.163  70.479  1.00  0.00    -0.146 OA 
BRANCH  11  14
HETATM   14  O   UNL     1     -10.318   6.498  72.124  1.00  0.00    -0.196 OA 
HETATM   15  P   UNL     1      -9.167   7.594  72.809  1.00  0.00    -0.221 P  
HETATM   16  O   UNL     1      -8.137   8.574  73.422  1.00  0.00    -0.373 OA 
HETATM   17  O   UNL     1     -10.328   8.738  72.618  1.00  0.00    -0.176 OA 
HETATM   18  O   UNL     1      -9.755   7.082  74.257  1.00  0.00    -0.275 OA 
ENDBRANCH  11  14
ENDBRANCH  10  11
ENDBRANCH   5  10
BRANCH   8  19
HETATM   19  C   UNL     1      -8.835  10.731  66.850  1.00  0.00    -0.140 C  
BRANCH  19  20
HETATM   20  O   UNL     1      -9.983  11.056  66.088  1.00  0.00    -0.215 OA 
HETATM   21  P   UNL     1     -11.218  11.725  66.831  1.00  0.00    -0.287 P  
HETATM   22  O   UNL     1     -12.102  12.198  65.589  1.00  0.00    -0.545 OA 
HETATM   23  O   UNL     1     -11.916  10.889  67.840  1.00  0.00    -0.585 OA 
HETATM   24  O   UNL     1     -10.610  13.119  67.310  1.00  0.00    -0.244 OA 
ENDBRANCH  19  20
ENDBRANCH   8  19
TORSDOF 5
ENDMDL
MODEL      181
REMARK 921   NORMALIZED FREE ENERGY PREDICTED BY IDOCK:   -4.04 KCAL/MOL
REMARK 922        TOTAL FREE ENERGY PREDICTED BY IDOCK:   -5.93 KCAL/MOL
REMARK 923 INTER-LIGAND FREE ENERGY PREDICTED BY IDOCK:   -6.20 KCAL/MOL
REMARK 924 INTRA-LIGAND FREE ENERGY PREDICTED BY IDOCK:    0.27 KCAL/MOL
REMARK 927      BINDING AFFINITY PREDICTED BY RF-SCORE:    0.00 PKD
ROOT
HETATM    1  O   UNL     1     -12.190  16.230  63.753  1.00  0.00    -1.239 OA 
HETATM    2  H   UNL     1     -11.858  17.116  63.835  1.00  0.00     0.000 HD 
HETATM    3  C   UNL     1     -11.873  15.431  64.889  1.00  0.00    -0.095 C  
HETATM    4  C   UNL     1     -12.403  14.014  64.757  1.00  0.00    -0.413 C  
HETATM    5  C   UNL     1     -11.536  13.283  65.810  1.00  0.00    -0.337 C  
HETATM    6  O   UNL     1     -12.160  13.547  63.414  1.00  0.00    -0.781 OA 
HETATM    7  O   UNL     1     -10.246  13.917  65.739  1.00  0.00    -0.298 OA 
HETATM    8  C   UNL     1     -10.385  15.155  65.005  1.00  0.00    -0.344 C  
HETATM    9  H   UNL     1     -12.492  12.661  63.332  1.00  0.00     0.000 HD 
ENDROOT
BRANCH   5  10
HETATM   10  O   UNL     1     -11.538  11.906  65.514  1.00  0.00    -0.317 OA 
BRANCH  10  11
HETATM   11  P   UNL     1     -11.066  10.657  66.614  1.00  0.00     0.326 P  
HETATM   12  O   UNL     1     -10.240   9.905  65.422  1.00  0.00    -0.273 OA 
HETATM   13  O   UNL     1     -10.082  11.629  67.280  1.00  0.00    -0.196 OA 
BRANCH  11  14
HETATM   14  O   UNL     1     -10.594   9.408  67.714  1.00  0.00    -0.252 OA 
HETATM   15  P   UNL     1      -9.417   8.389  66.959  1.00  0.00    -0.209 P  
HETATM   16  O   UNL     1      -8.364   7.478  66.283  1.00  0.00    -0.120 OA 
HETATM   17  O   UNL     1      -8.305   9.435  67.562  1.00  0.00    -0.120 OA 
HETATM   18  O   UNL     1      -9.500   7.508  68.344  1.00  0.00    -0.148 OA 
ENDBRANCH  11  14
ENDBRANCH  10  11
ENDBRANCH   5  10
BRANCH   8  19
HETATM   19  C   UNL     1      -9.639  16.280  65.718  1.00  0.00    -0.231 C  
BRANCH  19  20
HETATM   20  O   UNL     1      -8.351  15.783  66.031  1.00  0.00    -0.143 OA 
HETATM   21  P   UNL     1      -7.331  16.743  66.782  1.00  0.00    -0.266 P  
HETATM   22  O   UNL     1      -6.192  15.708  67.206  1.00  0.00    -0.293 OA 
HETATM   23  O   UNL     1      -6.872  17.939  66.032  1.00  0.00    -0.255 OA 
HETATM   24  O   UNL     1      -8.056  16.976  68.183  1.00  0.00    -0.198 OA 
ENDBRANCH  19  20
ENDBRANCH   8  19
TORSDOF 5
ENDMDL
MODEL      182
REMARK 921   NORMALIZED FREE ENERGY PREDICTED BY IDOCK:   -4.04 KCAL/MOL
REMARK 922        TOTAL FREE ENERGY PREDICTED BY IDOCK:   -5.93 KCAL/MOL
REMARK 923 INTER-LIGAND FREE ENERGY PREDICTED BY IDOCK:   -4.98 KCAL/MOL
REMARK 924 INTRA-LIGAND FREE ENERGY PREDICTED BY IDOCK:   -0.95 KCAL/MOL
REMARK 927      BINDING AFFINITY PREDICTED BY RF-SCORE:    0.00 PKD
ROOT
HETATM    1  O   UNL     1     -10.134   4.503  67.455  1.00  0.00    -0.151 OA 
HETATM    2  H   UNL     1      -9.487   3.808  67.469  1.00  0.00     0.000 HD 
HETATM    3  C   UNL     1      -9.587   5.735  66.994  1.00  0.00    -0.135 C  
HETATM    4  C   UNL     1     -10.620   6.847  66.971  1.00  0.00    -0.333 C  
HETATM    5  C   UNL     1      -9.703   8.092  66.931  1.00  0.00    -0.226 C  
HETATM    6  O   UNL     1     -11.411   6.775  68.175  1.00  0.00    -0.545 OA 
HETATM    7  O   UNL     1      -8.570   7.750  67.749  1.00  0.00    -0.121 OA 
HETATM    8  C   UNL     1      -8.580   6.320  67.968  1.00  0.00    -0.116 C  
HETATM    9  H   UNL     1     -12.058   7.470  68.160  1.00  0.00     0.000 HD 
ENDROOT
BRANCH   5  10
HETATM   10  O   UNL     1     -10.441   9.207  67.377  1.00  0.00    -0.249 OA 
BRANCH  10  11
HETATM   11  P   UNL     1     -10.338  10.795  66.702  1.00  0.00    -0.228 P  
HETATM   12  O   UNL     1      -9.018  11.108  67.613  1.00  0.00    -0.137 OA 
HETATM   13  O   UNL     1      -9.827  10.192  65.386  1.00  0.00    -0.268 OA 
BRANCH  11  14
HETATM   14  O   UNL     1     -10.234  12.385  66.026  1.00  0.00    -0.236 OA 
HETATM   15  P   UNL     1     -11.793  12.873  65.458  1.00  0.00    -0.457 P  
HETATM   16  O   UNL     1     -13.189  13.310  64.949  1.00  0.00    -0.703 OA 
HETATM   17  O   UNL     1     -12.026  13.458  66.973  1.00  0.00    -0.382 OA 
HETATM   18  O   UNL     1     -11.021  14.227  64.935  1.00  0.00    -0.362 OA 
ENDBRANCH  11  14
ENDBRANCH  10  11
ENDBRANCH   5  10
BRANCH   8  19
HETATM   19  C   UNL     1      -7.179   5.744  67.772  1.00  0.00    -0.076 C  
BRANCH  19  20
HETATM   20  O   UNL     1      -7.324   4.575  66.988  1.00  0.00    -0.078 OA 
HETATM   21  P   UNL     1      -6.805   3.196  67.583  1.00  0.00    -0.050 P  
HETATM   22  O   UNL     1      -7.445   2.158  66.553  1.00  0.00    -0.063 OA 
HETATM   23  O   UNL     1      -5.341   3.076  67.797  1.00  0.00    -0.012 OA 
HETATM   24  O   UNL     1      -7.760   2.991  68.843  1.00  0.00    -0.048 OA 
ENDBRANCH  19  20
ENDBRANCH   8  19
TORSDOF 5
ENDMDL
MODEL      183
REMARK 921   NORMALIZED FREE ENERGY PREDICTED BY IDOCK:   -4.04 KCAL/MOL
REMARK 922        TOTAL FREE ENERGY PREDICTED BY IDOCK:   -5.92 KCAL/MOL
REMARK 923 INTER-LIGAND FREE ENERGY PREDICTED BY IDOCK:   -5.52 KCAL/MOL
REMARK 924 INTRA-LIGAND FREE ENERGY PREDICTED BY IDOCK:   -0.40 KCAL/MOL
REMARK 927      BINDING AFFINITY PREDICTED BY RF-SCORE:    0.00 PKD
ROOT
HETATM    1  O   UNL     1     -11.017   5.725  67.628  1.00  0.00    -0.294 OA 
HETATM    2  H   UNL     1     -10.723   4.884  67.297  1.00  0.00     0.000 HD 
HETATM    3  C   UNL     1     -10.468   6.812  66.891  1.00  0.00    -0.280 C  
HETATM    4  C   UNL     1     -10.937   8.156  67.419  1.00  0.00     0.130 C  
HETATM    5  C   UNL     1      -9.865   9.094  66.816  1.00  0.00    -0.226 C  
HETATM    6  O   UNL     1     -10.906   8.128  68.861  1.00  0.00    -0.408 OA 
HETATM    7  O   UNL     1      -8.641   8.338  66.853  1.00  0.00    -0.116 OA 
HETATM    8  C   UNL     1      -8.969   6.949  67.092  1.00  0.00    -0.120 C  
HETATM    9  H   UNL     1     -11.200   8.969  69.192  1.00  0.00     0.000 HD 
ENDROOT
BRANCH   5  10
HETATM   10  O   UNL     1      -9.845  10.290  67.560  1.00  0.00    -0.165 OA 
BRANCH  10  11
HETATM   11  P   UNL     1     -10.040  11.873  66.893  1.00  0.00    -0.214 P  
HETATM   12  O   UNL     1     -11.634  11.592  66.665  1.00  0.00    -0.493 OA 
HETATM   13  O   UNL     1      -9.900  12.474  68.298  1.00  0.00    -0.222 OA 
BRANCH  11  14
HETATM   14  O   UNL     1     -10.236  13.458  66.225  1.00  0.00    -0.283 OA 
HETATM   15  P   UNL     1     -11.880  13.677  65.733  1.00  0.00    -0.422 P  
HETATM   16  O   UNL     1     -13.352  13.872  65.293  1.00  0.00    -0.732 OA 
HETATM   17  O   UNL     1     -12.137  14.215  67.262  1.00  0.00    -0.417 OA 
HETATM   18  O   UNL     1     -11.372  15.141  65.185  1.00  0.00    -0.368 OA 
ENDBRANCH  11  14
ENDBRANCH  10  11
ENDBRANCH   5  10
BRANCH   8  19
HETATM   19  C   UNL     1      -8.171   6.047  66.154  1.00  0.00    -0.121 C  
BRANCH  19  20
HETATM   20  O   UNL     1      -9.105   5.434  65.284  1.00  0.00    -0.141 OA 
HETATM   21  P   UNL     1      -9.126   3.847  65.195  1.00  0.00    -0.163 P  
HETATM   22  O   UNL     1     -10.485   3.604  64.394  1.00  0.00    -0.220 OA 
HETATM   23  O   UNL     1      -7.917   3.200  64.628  1.00  0.00    -0.081 OA 
HETATM   24  O   UNL     1      -9.572   3.432  66.668  1.00  0.00    -0.167 OA 
ENDBRANCH  19  20
ENDBRANCH   8  19
TORSDOF 5
ENDMDL
MODEL      184
REMARK 921   NORMALIZED FREE ENERGY PREDICTED BY IDOCK:   -4.02 KCAL/MOL
REMARK 922        TOTAL FREE ENERGY PREDICTED BY IDOCK:   -5.91 KCAL/MOL
REMARK 923 INTER-LIGAND FREE ENERGY PREDICTED BY IDOCK:   -5.02 KCAL/MOL
REMARK 924 INTRA-LIGAND FREE ENERGY PREDICTED BY IDOCK:   -0.89 KCAL/MOL
REMARK 927      BINDING AFFINITY PREDICTED BY RF-SCORE:    0.00 PKD
ROOT
HETATM    1  O   UNL     1      -7.426   9.754  67.497  1.00  0.00    -0.090 OA 
HETATM    2  H   UNL     1      -7.175   9.895  66.592  1.00  0.00     0.000 HD 
HETATM    3  C   UNL     1      -8.822   9.507  67.634  1.00  0.00    -0.118 C  
HETATM    4  C   UNL     1      -9.224   9.282  69.081  1.00  0.00    -0.149 C  
HETATM    5  C   UNL     1     -10.748   9.536  69.000  1.00  0.00    -0.202 C  
HETATM    6  O   UNL     1      -8.542  10.246  69.910  1.00  0.00    -0.355 OA 
HETATM    7  O   UNL     1     -10.902  10.592  68.035  1.00  0.00    -0.219 OA 
HETATM    8  C   UNL     1      -9.660  10.730  67.306  1.00  0.00    -0.160 C  
HETATM    9  H   UNL     1      -8.793  10.104  70.816  1.00  0.00     0.000 HD 
ENDROOT
BRANCH   5  10
HETATM   10  O   UNL     1     -11.221   9.838  70.292  1.00  0.00    -0.254 OA 
BRANCH  10  11
HETATM   11  P   UNL     1     -11.231   8.736  71.625  1.00  0.00    -0.374 P  
HETATM   12  O   UNL     1     -12.477   9.548  72.300  1.00  0.00    -0.322 OA 
HETATM   13  O   UNL     1     -11.850   7.662  70.720  1.00  0.00    -0.279 OA 
BRANCH  11  14
HETATM   14  O   UNL     1     -11.242   7.634  72.958  1.00  0.00    -0.384 OA 
HETATM   15  P   UNL     1      -9.761   6.740  72.979  1.00  0.00    -0.184 P  
HETATM   16  O   UNL     1      -8.435   5.940  72.997  1.00  0.00    -0.118 OA 
HETATM   17  O   UNL     1      -9.179   7.963  73.906  1.00  0.00    -0.267 OA 
HETATM   18  O   UNL     1     -10.426   5.943  74.254  1.00  0.00    -0.275 OA 
ENDBRANCH  11  14
ENDBRANCH  10  11
ENDBRANCH   5  10
BRANCH   8  19
HETATM   19  C   UNL     1      -9.936  10.861  65.810  1.00  0.00    -0.247 C  
BRANCH  19  20
HETATM   20  O   UNL     1      -9.571   9.629  65.217  1.00  0.00    -0.274 OA 
HETATM   21  P   UNL     1      -8.623   9.655  63.942  1.00  0.00    -0.223 P  
HETATM   22  O   UNL     1      -8.226   8.114  63.824  1.00  0.00    -0.145 OA 
HETATM   23  O   UNL     1      -9.181  10.275  62.714  1.00  0.00    -0.246 OA 
HETATM   24  O   UNL     1      -7.274  10.264  64.536  1.00  0.00    -0.134 OA 
ENDBRANCH  19  20
ENDBRANCH   8  19
TORSDOF 5
ENDMDL
MODEL      185
REMARK 921   NORMALIZED FREE ENERGY PREDICTED BY IDOCK:   -3.99 KCAL/MOL
REMARK 922        TOTAL FREE ENERGY PREDICTED BY IDOCK:   -5.86 KCAL/MOL
REMARK 923 INTER-LIGAND FREE ENERGY PREDICTED BY IDOCK:   -5.25 KCAL/MOL
REMARK 924 INTRA-LIGAND FREE ENERGY PREDICTED BY IDOCK:   -0.62 KCAL/MOL
REMARK 927      BINDING AFFINITY PREDICTED BY RF-SCORE:    0.00 PKD
ROOT
HETATM    1  O   UNL     1     -10.866  11.424  66.472  1.00  0.00    -0.271 OA 
HETATM    2  H   UNL     1     -10.382  11.259  65.671  1.00  0.00     0.000 HD 
HETATM    3  C   UNL     1     -10.352  10.680  67.573  1.00  0.00    -0.214 C  
HETATM    4  C   UNL     1     -11.125  10.944  68.852  1.00  0.00    -0.252 C  
HETATM    5  C   UNL     1     -10.715   9.713  69.696  1.00  0.00    -0.240 C  
HETATM    6  O   UNL     1     -12.535  10.967  68.549  1.00  0.00    -0.742 OA 
HETATM    7  O   UNL     1     -10.610   8.630  68.754  1.00  0.00    -0.211 OA 
HETATM    8  C   UNL     1     -10.580   9.187  67.419  1.00  0.00    -0.244 C  
HETATM    9  H   UNL     1     -13.019  11.132  69.350  1.00  0.00     0.000 HD 
ENDROOT
BRANCH   5  10
HETATM   10  O   UNL     1     -11.674   9.526  70.711  1.00  0.00    -0.278 OA 
BRANCH  10  11
HETATM   11  P   UNL     1     -11.509   8.427  72.036  1.00  0.00    -0.395 P  
HETATM   12  O   UNL     1     -12.989   8.849  72.584  1.00  0.00    -0.407 OA 
HETATM   13  O   UNL     1     -11.720   7.250  71.074  1.00  0.00    -0.287 OA 
BRANCH  11  14
HETATM   14  O   UNL     1     -11.344   7.327  73.362  1.00  0.00    -0.173 OA 
HETATM   15  P   UNL     1     -10.682   5.834  72.793  1.00  0.00    -0.276 P  
HETATM   16  O   UNL     1     -10.089   4.497  72.284  1.00  0.00    -0.178 OA 
HETATM   17  O   UNL     1      -9.217   6.514  73.087  1.00  0.00    -0.129 OA 
HETATM   18  O   UNL     1     -10.877   5.321  74.343  1.00  0.00    -0.294 OA 
ENDBRANCH  11  14
ENDBRANCH  10  11
ENDBRANCH   5  10
BRANCH   8  19
HETATM   19  C   UNL     1      -9.490   8.514  66.589  1.00  0.00    -0.207 C  
BRANCH  19  20
HETATM   20  O   UNL     1      -8.555   9.521  66.248  1.00  0.00    -0.127 OA 
HETATM   21  P   UNL     1      -7.017   9.129  66.168  1.00  0.00    -0.087 P  
HETATM   22  O   UNL     1      -6.408  10.424  65.462  1.00  0.00    -0.113 OA 
HETATM   23  O   UNL     1      -6.370   8.722  67.441  1.00  0.00    -0.055 OA 
HETATM   24  O   UNL     1      -6.995   8.093  64.957  1.00  0.00    -0.067 OA 
ENDBRANCH  19  20
ENDBRANCH   8  19
TORSDOF 5
ENDMDL
MODEL      186
REMARK 921   NORMALIZED FREE ENERGY PREDICTED BY IDOCK:   -3.99 KCAL/MOL
REMARK 922        TOTAL FREE ENERGY PREDICTED BY IDOCK:   -5.86 KCAL/MOL
REMARK 923 INTER-LIGAND FREE ENERGY PREDICTED BY IDOCK:   -5.17 KCAL/MOL
REMARK 924 INTRA-LIGAND FREE ENERGY PREDICTED BY IDOCK:   -0.69 KCAL/MOL
REMARK 927      BINDING AFFINITY PREDICTED BY RF-SCORE:    0.00 PKD
ROOT
HETATM    1  O   UNL     1      -8.356  11.273  65.442  1.00  0.00    -0.373 OA 
HETATM    2  H   UNL     1      -8.179  12.155  65.136  1.00  0.00     0.000 HD 
HETATM    3  C   UNL     1      -9.377  11.245  66.435  1.00  0.00    -0.192 C  
HETATM    4  C   UNL     1      -9.659   9.835  66.924  1.00  0.00    -0.180 C  
HETATM    5  C   UNL     1     -10.380  10.132  68.261  1.00  0.00    -0.186 C  
HETATM    6  O   UNL     1      -8.406   9.144  67.108  1.00  0.00    -0.115 OA 
HETATM    7  O   UNL     1      -9.724  11.299  68.789  1.00  0.00    -0.205 OA 
HETATM    8  C   UNL     1      -8.939  11.900  67.733  1.00  0.00    -0.173 C  
HETATM    9  H   UNL     1      -8.583   8.262  67.414  1.00  0.00     0.000 HD 
ENDROOT
BRANCH   5  10
HETATM   10  O   UNL     1     -10.301   8.987  69.077  1.00  0.00    -0.210 OA 
BRANCH  10  11
HETATM   11  P   UNL     1      -9.853   8.992  70.747  1.00  0.00    -0.284 P  
HETATM   12  O   UNL     1     -11.314   9.605  71.147  1.00  0.00    -0.327 OA 
HETATM   13  O   UNL     1      -9.997   7.464  70.782  1.00  0.00    -0.183 OA 
BRANCH  11  14
HETATM   14  O   UNL     1      -9.406   8.998  72.419  1.00  0.00    -0.288 OA 
HETATM   15  P   UNL     1      -8.170   7.818  72.689  1.00  0.00    -0.157 P  
HETATM   16  O   UNL     1      -7.064   6.762  72.931  1.00  0.00    -0.075 OA 
HETATM   17  O   UNL     1      -7.114   9.023  72.333  1.00  0.00    -0.326 OA 
HETATM   18  O   UNL     1      -8.301   8.252  74.270  1.00  0.00    -0.253 OA 
ENDBRANCH  11  14
ENDBRANCH  10  11
ENDBRANCH   5  10
BRANCH   8  19
HETATM   19  C   UNL     1      -9.142  13.413  67.717  1.00  0.00    -0.202 C  
BRANCH  19  20
HETATM   20  O   UNL     1     -10.057  13.714  68.754  1.00  0.00    -0.211 OA 
HETATM   21  P   UNL     1     -11.033  14.953  68.565  1.00  0.00    -0.283 P  
HETATM   22  O   UNL     1     -12.058  14.721  69.766  1.00  0.00    -0.302 OA 
HETATM   23  O   UNL     1     -10.398  16.294  68.507  1.00  0.00    -0.239 OA 
HETATM   24  O   UNL     1     -11.923  14.497  67.323  1.00  0.00    -0.405 OA 
ENDBRANCH  19  20
ENDBRANCH   8  19
TORSDOF 5
ENDMDL
MODEL      187
REMARK 921   NORMALIZED FREE ENERGY PREDICTED BY IDOCK:   -3.99 KCAL/MOL
REMARK 922        TOTAL FREE ENERGY PREDICTED BY IDOCK:   -5.86 KCAL/MOL
REMARK 923 INTER-LIGAND FREE ENERGY PREDICTED BY IDOCK:   -5.11 KCAL/MOL
REMARK 924 INTRA-LIGAND FREE ENERGY PREDICTED BY IDOCK:   -0.75 KCAL/MOL
REMARK 927      BINDING AFFINITY PREDICTED BY RF-SCORE:    0.00 PKD
ROOT
HETATM    1  O   UNL     1      -8.851   8.333  69.964  1.00  0.00    -0.132 OA 
HETATM    2  H   UNL     1      -9.225   7.848  70.690  1.00  0.00     0.000 HD 
HETATM    3  C   UNL     1      -9.377   9.653  69.873  1.00  0.00    -0.228 C  
HETATM    4  C   UNL     1      -8.780  10.428  68.711  1.00  0.00    -0.146 C  
HETATM    5  C   UNL     1      -9.828  11.555  68.547  1.00  0.00    -0.195 C  
HETATM    6  O   UNL     1      -8.708   9.562  67.560  1.00  0.00    -0.125 OA 
HETATM    7  O   UNL     1     -11.094  10.935  68.836  1.00  0.00    -0.212 OA 
HETATM    8  C   UNL     1     -10.844   9.665  69.481  1.00  0.00    -0.231 C  
HETATM    9  H   UNL     1      -8.334  10.046  66.833  1.00  0.00     0.000 HD 
ENDROOT
BRANCH   5  10
HETATM   10  O   UNL     1      -9.711  12.089  67.248  1.00  0.00    -0.183 OA 
BRANCH  10  11
HETATM   11  P   UNL     1      -9.197  13.700  66.885  1.00  0.00    -0.209 P  
HETATM   12  O   UNL     1     -10.225  13.752  65.616  1.00  0.00    -0.296 OA 
HETATM   13  O   UNL     1      -9.980  14.214  68.101  1.00  0.00    -0.220 OA 
BRANCH  11  14
HETATM   14  O   UNL     1      -8.684  15.312  66.521  1.00  0.00    -0.283 OA 
HETATM   15  P   UNL     1      -7.858  15.976  67.887  1.00  0.00    -0.149 P  
HETATM   16  O   UNL     1      -7.119  16.571  69.112  1.00  0.00    -0.208 OA 
HETATM   17  O   UNL     1      -6.503  15.323  67.231  1.00  0.00    -0.303 OA 
HETATM   18  O   UNL     1      -7.766  17.348  66.985  1.00  0.00    -0.187 OA 
ENDBRANCH  11  14
ENDBRANCH  10  11
ENDBRANCH   5  10
BRANCH   8  19
HETATM   19  C   UNL     1     -11.768   9.491  70.685  1.00  0.00    -0.262 C  
BRANCH  19  20
HETATM   20  O   UNL     1     -11.258   8.408  71.440  1.00  0.00    -0.242 OA 
HETATM   21  P   UNL     1     -11.938   6.982  71.271  1.00  0.00    -0.377 P  
HETATM   22  O   UNL     1     -10.879   6.049  72.016  1.00  0.00    -0.232 OA 
HETATM   23  O   UNL     1     -13.344   6.860  71.731  1.00  0.00    -0.335 OA 
HETATM   24  O   UNL     1     -11.619   6.634  69.748  1.00  0.00    -0.351 OA 
ENDBRANCH  19  20
ENDBRANCH   8  19
TORSDOF 5
ENDMDL
MODEL      188
REMARK 921   NORMALIZED FREE ENERGY PREDICTED BY IDOCK:   -3.96 KCAL/MOL
REMARK 922        TOTAL FREE ENERGY PREDICTED BY IDOCK:   -5.83 KCAL/MOL
REMARK 923 INTER-LIGAND FREE ENERGY PREDICTED BY IDOCK:   -5.13 KCAL/MOL
REMARK 924 INTRA-LIGAND FREE ENERGY PREDICTED BY IDOCK:   -0.69 KCAL/MOL
REMARK 927      BINDING AFFINITY PREDICTED BY RF-SCORE:    0.00 PKD
ROOT
HETATM    1  O   UNL     1      -6.893   8.103  68.123  1.00  0.00    -0.071 OA 
HETATM    2  H   UNL     1      -6.763   7.499  68.844  1.00  0.00     0.000 HD 
HETATM    3  C   UNL     1      -8.221   8.616  68.084  1.00  0.00    -0.115 C  
HETATM    4  C   UNL     1      -8.427   9.582  66.931  1.00  0.00    -0.127 C  
HETATM    5  C   UNL     1      -9.971   9.582  66.828  1.00  0.00    -0.233 C  
HETATM    6  O   UNL     1      -7.790   9.046  65.753  1.00  0.00    -0.096 OA 
HETATM    7  O   UNL     1     -10.367   8.232  67.132  1.00  0.00    -0.264 OA 
HETATM    8  C   UNL     1      -9.242   7.550  67.733  1.00  0.00    -0.135 C  
HETATM    9  H   UNL     1      -7.919   9.650  65.031  1.00  0.00     0.000 HD 
ENDROOT
BRANCH   5  10
HETATM   10  O   UNL     1     -10.335  10.032  65.543  1.00  0.00    -0.241 OA 
BRANCH  10  11
HETATM   11  P   UNL     1     -10.378  11.689  65.052  1.00  0.00    -0.307 P  
HETATM   12  O   UNL     1      -9.325  11.369  63.844  1.00  0.00    -0.174 OA 
HETATM   13  O   UNL     1     -11.783  11.472  64.474  1.00  0.00    -0.170 OA 
BRANCH  11  14
HETATM   14  O   UNL     1     -10.421  13.347  64.559  1.00  0.00    -0.404 OA 
HETATM   15  P   UNL     1     -11.957  14.030  64.966  1.00  0.00    -0.450 P  
HETATM   16  O   UNL     1     -13.333  14.640  65.330  1.00  0.00    -0.331 OA 
HETATM   17  O   UNL     1     -11.271  14.405  66.409  1.00  0.00    -0.329 OA 
HETATM   18  O   UNL     1     -11.394  15.383  64.221  1.00  0.00    -0.265 OA 
ENDBRANCH  11  14
ENDBRANCH  10  11
ENDBRANCH   5  10
BRANCH   8  19
HETATM   19  C   UNL     1      -9.696   6.754  68.955  1.00  0.00    -0.137 C  
BRANCH  19  20
HETATM   20  O   UNL     1     -10.067   7.698  69.943  1.00  0.00    -0.192 OA 
HETATM   21  P   UNL     1     -11.032   7.228  71.114  1.00  0.00    -0.259 P  
HETATM   22  O   UNL     1     -10.913   8.459  72.122  1.00  0.00    -0.293 OA 
HETATM   23  O   UNL     1     -12.411   6.844  70.721  1.00  0.00    -0.356 OA 
HETATM   24  O   UNL     1     -10.144   6.139  71.868  1.00  0.00    -0.186 OA 
ENDBRANCH  19  20
ENDBRANCH   8  19
TORSDOF 5
ENDMDL
MODEL      189
REMARK 921   NORMALIZED FREE ENERGY PREDICTED BY IDOCK:   -3.92 KCAL/MOL
REMARK 922        TOTAL FREE ENERGY PREDICTED BY IDOCK:   -5.77 KCAL/MOL
REMARK 923 INTER-LIGAND FREE ENERGY PREDICTED BY IDOCK:   -5.07 KCAL/MOL
REMARK 924 INTRA-LIGAND FREE ENERGY PREDICTED BY IDOCK:   -0.70 KCAL/MOL
REMARK 927      BINDING AFFINITY PREDICTED BY RF-SCORE:    0.00 PKD
ROOT
HETATM    1  O   UNL     1      -7.284   9.387  66.784  1.00  0.00    -0.082 OA 
HETATM    2  H   UNL     1      -7.928   8.704  66.928  1.00  0.00     0.000 HD 
HETATM    3  C   UNL     1      -7.484  10.505  67.643  1.00  0.00    -0.092 C  
HETATM    4  C   UNL     1      -6.455  11.596  67.411  1.00  0.00    -0.103 C  
HETATM    5  C   UNL     1      -7.166  12.808  68.059  1.00  0.00    -0.115 C  
HETATM    6  O   UNL     1      -6.258  11.760  65.991  1.00  0.00    -0.444 OA 
HETATM    7  O   UNL     1      -8.563  12.623  67.766  1.00  0.00    -0.157 OA 
HETATM    8  C   UNL     1      -8.760  11.262  67.318  1.00  0.00    -0.145 C  
HETATM    9  H   UNL     1      -5.614  12.442  65.846  1.00  0.00     0.000 HD 
ENDROOT
BRANCH   5  10
HETATM   10  O   UNL     1      -6.602  13.990  67.541  1.00  0.00    -0.219 OA 
BRANCH  10  11
HETATM   11  P   UNL     1      -7.490  15.423  67.156  1.00  0.00    -0.035 P  
HETATM   12  O   UNL     1      -7.741  15.706  68.746  1.00  0.00    -0.143 OA 
HETATM   13  O   UNL     1      -6.177  16.128  66.790  1.00  0.00    -0.303 OA 
BRANCH  11  14
HETATM   14  O   UNL     1      -8.379  16.857  66.772  1.00  0.00    -0.196 OA 
HETATM   15  P   UNL     1      -9.683  16.460  65.708  1.00  0.00    -0.042 P  
HETATM   16  O   UNL     1     -10.850  16.104  64.755  1.00  0.00    -0.634 OA 
HETATM   17  O   UNL     1     -10.556  16.202  67.073  1.00  0.00    -0.310 OA 
HETATM   18  O   UNL     1      -9.977  18.078  65.694  1.00  0.00    -0.519 OA 
ENDBRANCH  11  14
ENDBRANCH  10  11
ENDBRANCH   5  10
BRANCH   8  19
HETATM   19  C   UNL     1      -9.986  10.653  67.996  1.00  0.00    -0.160 C  
BRANCH  19  20
HETATM   20  O   UNL     1     -10.356  11.535  69.040  1.00  0.00    -0.194 OA 
HETATM   21  P   UNL     1     -11.770  12.253  68.957  1.00  0.00    -0.292 P  
HETATM   22  O   UNL     1     -11.894  12.855  70.430  1.00  0.00    -0.284 OA 
HETATM   23  O   UNL     1     -11.958  13.220  67.846  1.00  0.00    -0.345 OA 
HETATM   24  O   UNL     1     -12.780  11.023  69.053  1.00  0.00    -0.260 OA 
ENDBRANCH  19  20
ENDBRANCH   8  19
TORSDOF 5
ENDMDL
MODEL      190
REMARK 921   NORMALIZED FREE ENERGY PREDICTED BY IDOCK:   -3.92 KCAL/MOL
REMARK 922        TOTAL FREE ENERGY PREDICTED BY IDOCK:   -5.76 KCAL/MOL
REMARK 923 INTER-LIGAND FREE ENERGY PREDICTED BY IDOCK:   -4.92 KCAL/MOL
REMARK 924 INTRA-LIGAND FREE ENERGY PREDICTED BY IDOCK:   -0.85 KCAL/MOL
REMARK 927      BINDING AFFINITY PREDICTED BY RF-SCORE:    0.00 PKD
ROOT
HETATM    1  O   UNL     1      -7.741   7.147  69.372  1.00  0.00    -0.103 OA 
HETATM    2  H   UNL     1      -7.122   6.554  68.962  1.00  0.00     0.000 HD 
HETATM    3  C   UNL     1      -8.795   7.516  68.487  1.00  0.00    -0.126 C  
HETATM    4  C   UNL     1      -9.784   8.465  69.141  1.00  0.00    -0.171 C  
HETATM    5  C   UNL     1     -10.477   9.063  67.893  1.00  0.00    -0.234 C  
HETATM    6  O   UNL     1      -9.053   9.451  69.899  1.00  0.00    -0.171 OA 
HETATM    7  O   UNL     1      -9.439   9.171  66.903  1.00  0.00    -0.153 OA 
HETATM    8  C   UNL     1      -8.308   8.380  67.337  1.00  0.00    -0.124 C  
HETATM    9  H   UNL     1      -9.673  10.045  70.308  1.00  0.00     0.000 HD 
ENDROOT
BRANCH   5  10
HETATM   10  O   UNL     1     -11.079  10.283  68.257  1.00  0.00    -0.261 OA 
BRANCH  10  11
HETATM   11  P   UNL     1     -10.964  11.752  67.351  1.00  0.00    -0.299 P  
HETATM   12  O   UNL     1     -12.185  12.398  68.222  1.00  0.00    -0.275 OA 
HETATM   13  O   UNL     1      -9.667  12.098  68.095  1.00  0.00    -0.197 OA 
BRANCH  11  14
HETATM   14  O   UNL     1     -10.848  13.221  66.445  1.00  0.00    -0.285 OA 
HETATM   15  P   UNL     1     -11.061  12.879  64.762  1.00  0.00    -0.351 P  
HETATM   16  O   UNL     1     -11.252  12.573  63.256  1.00  0.00    -0.452 OA 
HETATM   17  O   UNL     1     -12.663  13.100  65.046  1.00  0.00    -0.621 OA 
HETATM   18  O   UNL     1     -10.767  14.482  64.545  1.00  0.00    -0.356 OA 
ENDBRANCH  11  14
ENDBRANCH  10  11
ENDBRANCH   5  10
BRANCH   8  19
HETATM   19  C   UNL     1      -7.765   7.550  66.176  1.00  0.00    -0.090 C  
BRANCH  19  20
HETATM   20  O   UNL     1      -8.362   8.056  64.997  1.00  0.00    -0.147 OA 
HETATM   21  P   UNL     1      -7.426   8.734  63.906  1.00  0.00    -0.130 P  
HETATM   22  O   UNL     1      -8.429   8.846  62.670  1.00  0.00    -0.196 OA 
HETATM   23  O   UNL     1      -6.748   9.992  64.305  1.00  0.00    -0.123 OA 
HETATM   24  O   UNL     1      -6.514   7.512  63.438  1.00  0.00    -0.053 OA 
ENDBRANCH  19  20
ENDBRANCH   8  19
TORSDOF 5
ENDMDL
MODEL      191
REMARK 921   NORMALIZED FREE ENERGY PREDICTED BY IDOCK:   -3.91 KCAL/MOL
REMARK 922        TOTAL FREE ENERGY PREDICTED BY IDOCK:   -5.76 KCAL/MOL
REMARK 923 INTER-LIGAND FREE ENERGY PREDICTED BY IDOCK:   -5.54 KCAL/MOL
REMARK 924 INTRA-LIGAND FREE ENERGY PREDICTED BY IDOCK:   -0.22 KCAL/MOL
REMARK 927      BINDING AFFINITY PREDICTED BY RF-SCORE:    0.00 PKD
ROOT
HETATM    1  O   UNL     1      -5.979  17.343  69.302  1.00  0.00    -0.194 OA 
HETATM    2  H   UNL     1      -6.023  18.200  69.711  1.00  0.00     0.000 HD 
HETATM    3  C   UNL     1      -6.917  17.207  68.240  1.00  0.00    -0.187 C  
HETATM    4  C   UNL     1      -6.847  15.837  67.587  1.00  0.00    -0.173 C  
HETATM    5  C   UNL     1      -8.217  15.788  66.871  1.00  0.00    -0.253 C  
HETATM    6  O   UNL     1      -6.720  14.835  68.618  1.00  0.00    -0.083 OA 
HETATM    7  O   UNL     1      -9.127  16.469  67.755  1.00  0.00    -0.202 OA 
HETATM    8  C   UNL     1      -8.353  17.199  68.734  1.00  0.00    -0.236 C  
HETATM    9  H   UNL     1      -6.676  13.978  68.209  1.00  0.00     0.000 HD 
ENDROOT
BRANCH   5  10
HETATM   10  O   UNL     1      -8.539  14.442  66.610  1.00  0.00    -0.164 OA 
BRANCH  10  11
HETATM   11  P   UNL     1      -9.805  13.559  67.390  1.00  0.00    -0.238 P  
HETATM   12  O   UNL     1      -9.932  12.574  66.093  1.00  0.00    -0.246 OA 
HETATM   13  O   UNL     1      -8.770  12.918  68.325  1.00  0.00    -0.183 OA 
BRANCH  11  14
HETATM   14  O   UNL     1     -11.072  12.675  68.170  1.00  0.00    -0.223 OA 
HETATM   15  P   UNL     1     -10.893  10.989  67.829  1.00  0.00    -0.291 P  
HETATM   16  O   UNL     1     -10.733   9.479  67.522  1.00  0.00    -0.282 OA 
HETATM   17  O   UNL     1      -9.944  10.944  69.167  1.00  0.00    -0.210 OA 
HETATM   18  O   UNL     1     -12.289  10.814  68.678  1.00  0.00    -0.430 OA 
ENDBRANCH  11  14
ENDBRANCH  10  11
ENDBRANCH   5  10
BRANCH   8  19
HETATM   19  C   UNL     1      -8.915  18.608  68.910  1.00  0.00    -0.182 C  
BRANCH  19  20
HETATM   20  O   UNL     1      -7.994  19.494  68.300  1.00  0.00    -0.314 OA 
HETATM   21  P   UNL     1      -8.342  20.074  66.862  1.00  0.00    -0.314 P  
HETATM   22  O   UNL     1      -7.246  21.225  66.724  1.00  0.00    -0.286 OA 
HETATM   23  O   UNL     1      -8.395  19.094  65.749  1.00  0.00    -0.431 OA 
HETATM   24  O   UNL     1      -9.648  20.941  67.154  1.00  0.00    -0.414 OA 
ENDBRANCH  19  20
ENDBRANCH   8  19
TORSDOF 5
ENDMDL
MODEL      192
REMARK 921   NORMALIZED FREE ENERGY PREDICTED BY IDOCK:   -3.90 KCAL/MOL
REMARK 922        TOTAL FREE ENERGY PREDICTED BY IDOCK:   -5.74 KCAL/MOL
REMARK 923 INTER-LIGAND FREE ENERGY PREDICTED BY IDOCK:   -5.65 KCAL/MOL
REMARK 924 INTRA-LIGAND FREE ENERGY PREDICTED BY IDOCK:   -0.10 KCAL/MOL
REMARK 927      BINDING AFFINITY PREDICTED BY RF-SCORE:    0.00 PKD
ROOT
HETATM    1  O   UNL     1     -11.201  14.914  65.548  1.00  0.00    -0.335 OA 
HETATM    2  H   UNL     1     -10.790  15.770  65.508  1.00  0.00     0.000 HD 
HETATM    3  C   UNL     1     -11.555  14.550  66.878  1.00  0.00    -0.385 C  
HETATM    4  C   UNL     1     -12.211  13.182  66.941  1.00  0.00    -0.222 C  
HETATM    5  C   UNL     1     -12.032  12.844  68.440  1.00  0.00    -0.248 C  
HETATM    6  O   UNL     1     -11.493  12.279  66.075  1.00  0.00    -0.346 OA 
HETATM    7  O   UNL     1     -10.751  13.395  68.798  1.00  0.00    -0.247 OA 
HETATM    8  C   UNL     1     -10.339  14.308  67.754  1.00  0.00    -0.238 C  
HETATM    9  H   UNL     1     -11.904  11.423  66.114  1.00  0.00     0.000 HD 
ENDROOT
BRANCH   5  10
HETATM   10  O   UNL     1     -12.143  11.449  68.601  1.00  0.00    -0.518 OA 
BRANCH  10  11
HETATM   11  P   UNL     1     -11.226  10.507  69.725  1.00  0.00    -0.329 P  
HETATM   12  O   UNL     1     -12.563  10.268  70.632  1.00  0.00    -0.313 OA 
HETATM   13  O   UNL     1     -11.177   9.358  68.708  1.00  0.00    -0.020 OA 
BRANCH  11  14
HETATM   14  O   UNL     1     -10.308   9.565  70.849  1.00  0.00    -0.291 OA 
HETATM   15  P   UNL     1     -11.377   8.840  72.001  1.00  0.00    -0.296 P  
HETATM   16  O   UNL     1     -12.334   8.192  73.031  1.00  0.00    -0.159 OA 
HETATM   17  O   UNL     1     -11.480   7.595  70.936  1.00  0.00    -0.277 OA 
HETATM   18  O   UNL     1     -10.004   8.270  72.703  1.00  0.00    -0.277 OA 
ENDBRANCH  11  14
ENDBRANCH  10  11
ENDBRANCH   5  10
BRANCH   8  19
HETATM   19  C   UNL     1      -9.795  15.598  68.363  1.00  0.00    -0.206 C  
BRANCH  19  20
HETATM   20  O   UNL     1      -8.653  15.958  67.608  1.00  0.00    -0.160 OA 
HETATM   21  P   UNL     1      -7.234  15.929  68.323  1.00  0.00    -0.127 P  
HETATM   22  O   UNL     1      -6.257  16.072  67.069  1.00  0.00    -0.314 OA 
HETATM   23  O   UNL     1      -7.026  16.907  69.420  1.00  0.00    -0.236 OA 
HETATM   24  O   UNL     1      -7.058  14.381  68.662  1.00  0.00    -0.102 OA 
ENDBRANCH  19  20
ENDBRANCH   8  19
TORSDOF 5
ENDMDL
MODEL      193
REMARK 921   NORMALIZED FREE ENERGY PREDICTED BY IDOCK:   -3.90 KCAL/MOL
REMARK 922        TOTAL FREE ENERGY PREDICTED BY IDOCK:   -5.74 KCAL/MOL
REMARK 923 INTER-LIGAND FREE ENERGY PREDICTED BY IDOCK:   -4.92 KCAL/MOL
REMARK 924 INTRA-LIGAND FREE ENERGY PREDICTED BY IDOCK:   -0.82 KCAL/MOL
REMARK 927      BINDING AFFINITY PREDICTED BY RF-SCORE:    0.00 PKD
ROOT
HETATM    1  O   UNL     1     -10.287  13.592  64.843  1.00  0.00    -0.366 OA 
HETATM    2  H   UNL     1      -9.961  14.464  64.656  1.00  0.00     0.000 HD 
HETATM    3  C   UNL     1     -10.751  13.469  66.184  1.00  0.00    -0.289 C  
HETATM    4  C   UNL     1     -11.272  12.075  66.484  1.00  0.00    -0.334 C  
HETATM    5  C   UNL     1     -11.231  12.078  68.030  1.00  0.00    -0.258 C  
HETATM    6  O   UNL     1     -10.374  11.106  65.904  1.00  0.00    -0.246 OA 
HETATM    7  O   UNL     1     -10.060  12.841  68.373  1.00  0.00    -0.232 OA 
HETATM    8  C   UNL     1      -9.624  13.562  67.197  1.00  0.00    -0.241 C  
HETATM    9  H   UNL     1     -10.700  10.234  66.091  1.00  0.00     0.000 HD 
ENDROOT
BRANCH   5  10
HETATM   10  O   UNL     1     -11.221  10.743  68.481  1.00  0.00    -0.239 OA 
BRANCH  10  11
HETATM   11  P   UNL     1      -9.883   9.972  69.260  1.00  0.00    -0.237 P  
HETATM   12  O   UNL     1     -10.897   9.279  70.338  1.00  0.00    -0.224 OA 
HETATM   13  O   UNL     1      -9.770   8.997  68.079  1.00  0.00    -0.148 OA 
BRANCH  11  14
HETATM   14  O   UNL     1      -8.545   9.200  70.039  1.00  0.00    -0.133 OA 
HETATM   15  P   UNL     1      -7.359   8.770  68.856  1.00  0.00    -0.080 P  
HETATM   16  O   UNL     1      -6.297   8.384  67.796  1.00  0.00    -0.051 OA 
HETATM   17  O   UNL     1      -6.735  10.265  69.116  1.00  0.00    -0.052 OA 
HETATM   18  O   UNL     1      -6.551   8.094  70.119  1.00  0.00    -0.036 OA 
ENDBRANCH  11  14
ENDBRANCH  10  11
ENDBRANCH   5  10
BRANCH   8  19
HETATM   19  C   UNL     1      -9.284  15.007  67.557  1.00  0.00    -0.188 C  
BRANCH  19  20
HETATM   20  O   UNL     1      -8.003  15.272  67.015  1.00  0.00    -0.204 OA 
HETATM   21  P   UNL     1      -7.574  16.786  66.795  1.00  0.00    -0.300 P  
HETATM   22  O   UNL     1      -6.015  16.623  66.500  1.00  0.00    -0.313 OA 
HETATM   23  O   UNL     1      -8.347  17.553  65.785  1.00  0.00    -0.538 OA 
HETATM   24  O   UNL     1      -7.537  17.348  68.287  1.00  0.00    -0.215 OA 
ENDBRANCH  19  20
ENDBRANCH   8  19
TORSDOF 5
ENDMDL
MODEL      194
REMARK 921   NORMALIZED FREE ENERGY PREDICTED BY IDOCK:   -3.88 KCAL/MOL
REMARK 922        TOTAL FREE ENERGY PREDICTED BY IDOCK:   -5.72 KCAL/MOL
REMARK 923 INTER-LIGAND FREE ENERGY PREDICTED BY IDOCK:   -5.03 KCAL/MOL
REMARK 924 INTRA-LIGAND FREE ENERGY PREDICTED BY IDOCK:   -0.69 KCAL/MOL
REMARK 927      BINDING AFFINITY PREDICTED BY RF-SCORE:    0.00 PKD
ROOT
HETATM    1  O   UNL     1     -12.733   9.328  72.420  1.00  0.00    -0.370 OA 
HETATM    2  H   UNL     1     -12.882   8.832  73.217  1.00  0.00     0.000 HD 
HETATM    3  C   UNL     1     -11.755   8.718  71.584  1.00  0.00    -0.332 C  
HETATM    4  C   UNL     1     -11.516   9.510  70.311  1.00  0.00    -0.206 C  
HETATM    5  C   UNL     1     -10.145   8.945  69.872  1.00  0.00    -0.195 C  
HETATM    6  O   UNL     1     -11.462  10.914  70.638  1.00  0.00    -0.396 OA 
HETATM    7  O   UNL     1      -9.425   8.712  71.097  1.00  0.00    -0.176 OA 
HETATM    8  C   UNL     1     -10.366   8.760  72.195  1.00  0.00    -0.308 C  
HETATM    9  H   UNL     1     -11.313  11.410  69.841  1.00  0.00     0.000 HD 
ENDROOT
BRANCH   5  10
HETATM   10  O   UNL     1      -9.540   9.866  68.994  1.00  0.00    -0.169 OA 
BRANCH  10  11
HETATM   11  P   UNL     1      -9.803   9.923  67.286  1.00  0.00    -0.204 P  
HETATM   12  O   UNL     1     -10.907  11.111  67.485  1.00  0.00    -0.219 OA 
HETATM   13  O   UNL     1      -8.444  10.615  67.110  1.00  0.00    -0.126 OA 
BRANCH  11  14
HETATM   14  O   UNL     1     -10.066   9.980  65.577  1.00  0.00    -0.298 OA 
HETATM   15  P   UNL     1      -8.542  10.029  64.760  1.00  0.00    -0.207 P  
HETATM   16  O   UNL     1      -7.177  10.072  64.030  1.00  0.00    -0.128 OA 
HETATM   17  O   UNL     1      -8.615   8.389  64.785  1.00  0.00    -0.147 OA 
HETATM   18  O   UNL     1      -9.441  10.157  63.390  1.00  0.00    -0.290 OA 
ENDBRANCH  11  14
ENDBRANCH  10  11
ENDBRANCH   5  10
BRANCH   8  19
HETATM   19  C   UNL     1     -10.117   7.600  73.156  1.00  0.00    -0.323 C  
BRANCH  19  20
HETATM   20  O   UNL     1      -9.843   6.461  72.360  1.00  0.00    -0.167 OA 
HETATM   21  P   UNL     1     -10.200   5.027  72.943  1.00  0.00    -0.200 P  
HETATM   22  O   UNL     1     -10.040   4.119  71.641  1.00  0.00    -0.181 OA 
HETATM   23  O   UNL     1      -9.434   4.588  74.136  1.00  0.00    -0.115 OA 
HETATM   24  O   UNL     1     -11.789   5.097  73.063  1.00  0.00    -0.273 OA 
ENDBRANCH  19  20
ENDBRANCH   8  19
TORSDOF 5
ENDMDL
MODEL      195
REMARK 921   NORMALIZED FREE ENERGY PREDICTED BY IDOCK:   -3.86 KCAL/MOL
REMARK 922        TOTAL FREE ENERGY PREDICTED BY IDOCK:   -5.70 KCAL/MOL
REMARK 923 INTER-LIGAND FREE ENERGY PREDICTED BY IDOCK:   -5.08 KCAL/MOL
REMARK 924 INTRA-LIGAND FREE ENERGY PREDICTED BY IDOCK:   -0.62 KCAL/MOL
REMARK 927      BINDING AFFINITY PREDICTED BY RF-SCORE:    0.00 PKD
ROOT
HETATM    1  O   UNL     1     -10.671  17.130  68.395  1.00  0.00    -0.361 OA 
HETATM    2  H   UNL     1     -11.469  17.435  67.979  1.00  0.00     0.000 HD 
HETATM    3  C   UNL     1      -9.761  16.562  67.459  1.00  0.00    -0.242 C  
HETATM    4  C   UNL     1      -8.487  16.074  68.124  1.00  0.00    -0.169 C  
HETATM    5  C   UNL     1      -7.946  15.110  67.041  1.00  0.00    -0.188 C  
HETATM    6  O   UNL     1      -8.830  15.397  69.352  1.00  0.00    -0.245 OA 
HETATM    7  O   UNL     1      -9.115  14.497  66.468  1.00  0.00    -0.258 OA 
HETATM    8  C   UNL     1     -10.276  15.260  66.870  1.00  0.00    -0.268 C  
HETATM    9  H   UNL     1      -8.032  15.093  69.768  1.00  0.00     0.000 HD 
ENDROOT
BRANCH   5  10
HETATM   10  O   UNL     1      -7.043  14.215  67.648  1.00  0.00    -0.161 OA 
BRANCH  10  11
HETATM   11  P   UNL     1      -7.178  12.492  67.603  1.00  0.00    -0.157 P  
HETATM   12  O   UNL     1      -5.575  12.348  67.879  1.00  0.00    -0.065 OA 
HETATM   13  O   UNL     1      -7.857  12.518  68.979  1.00  0.00     0.058 OA 
BRANCH  11  14
HETATM   14  O   UNL     1      -7.313  10.767  67.558  1.00  0.00    -0.089 OA 
HETATM   15  P   UNL     1      -7.283  10.229  65.914  1.00  0.00    -0.136 P  
HETATM   16  O   UNL     1      -7.255   9.748  64.442  1.00  0.00    -0.117 OA 
HETATM   17  O   UNL     1      -5.653  10.165  66.095  1.00  0.00    -0.054 OA 
HETATM   18  O   UNL     1      -7.521   8.732  66.549  1.00  0.00    -0.083 OA 
ENDBRANCH  11  14
ENDBRANCH  10  11
ENDBRANCH   5  10
BRANCH   8  19
HETATM   19  C   UNL     1     -11.200  15.487  65.676  1.00  0.00    -0.155 C  
BRANCH  19  20
HETATM   20  O   UNL     1     -12.120  14.412  65.660  1.00  0.00    -0.379 OA 
HETATM   21  P   UNL     1     -12.167  13.475  64.378  1.00  0.00    -0.339 P  
HETATM   22  O   UNL     1     -13.061  12.267  64.914  1.00  0.00    -0.654 OA 
HETATM   23  O   UNL     1     -12.623  14.106  63.114  1.00  0.00    -0.686 OA 
HETATM   24  O   UNL     1     -10.721  12.805  64.396  1.00  0.00    -0.329 OA 
ENDBRANCH  19  20
ENDBRANCH   8  19
TORSDOF 5
ENDMDL
MODEL      196
REMARK 921   NORMALIZED FREE ENERGY PREDICTED BY IDOCK:   -3.83 KCAL/MOL
REMARK 922        TOTAL FREE ENERGY PREDICTED BY IDOCK:   -5.66 KCAL/MOL
REMARK 923 INTER-LIGAND FREE ENERGY PREDICTED BY IDOCK:   -4.74 KCAL/MOL
REMARK 924 INTRA-LIGAND FREE ENERGY PREDICTED BY IDOCK:   -0.92 KCAL/MOL
REMARK 927      BINDING AFFINITY PREDICTED BY RF-SCORE:    0.00 PKD
ROOT
HETATM    1  O   UNL     1      -9.687  14.137  67.808  1.00  0.00    -0.215 OA 
HETATM    2  H   UNL     1     -10.021  14.880  67.320  1.00  0.00     0.000 HD 
HETATM    3  C   UNL     1      -9.262  13.081  66.952  1.00  0.00    -0.236 C  
HETATM    4  C   UNL     1      -8.729  11.893  67.732  1.00  0.00    -0.158 C  
HETATM    5  C   UNL     1      -8.818  10.780  66.660  1.00  0.00    -0.145 C  
HETATM    6  O   UNL     1      -9.593  11.649  68.861  1.00  0.00    -0.378 OA 
HETATM    7  O   UNL     1     -10.010  11.076  65.911  1.00  0.00    -0.221 OA 
HETATM    8  C   UNL     1     -10.421  12.428  66.220  1.00  0.00    -0.245 C  
HETATM    9  H   UNL     1      -9.259  10.905  69.350  1.00  0.00     0.000 HD 
ENDROOT
BRANCH   5  10
HETATM   10  O   UNL     1      -8.820   9.530  67.310  1.00  0.00    -0.127 OA 
BRANCH  10  11
HETATM   11  P   UNL     1      -8.371   8.032  66.573  1.00  0.00    -0.133 P  
HETATM   12  O   UNL     1      -7.035   8.730  65.944  1.00  0.00    -0.074 OA 
HETATM   13  O   UNL     1      -7.970   7.485  67.950  1.00  0.00    -0.115 OA 
BRANCH  11  14
HETATM   14  O   UNL     1      -7.921   6.533  65.835  1.00  0.00    -0.104 OA 
HETATM   15  P   UNL     1      -8.265   5.230  66.919  1.00  0.00    -0.107 P  
HETATM   16  O   UNL     1      -8.573   4.064  67.891  1.00  0.00    -0.093 OA 
HETATM   17  O   UNL     1      -9.751   5.206  66.223  1.00  0.00    -0.152 OA 
HETATM   18  O   UNL     1      -7.588   4.277  65.764  1.00  0.00    -0.083 OA 
ENDBRANCH  11  14
ENDBRANCH  10  11
ENDBRANCH   5  10
BRANCH   8  19
HETATM   19  C   UNL     1     -10.795  13.173  64.941  1.00  0.00    -0.332 C  
BRANCH  19  20
HETATM   20  O   UNL     1     -10.176  14.444  65.012  1.00  0.00    -0.409 OA 
HETATM   21  P   UNL     1     -11.101  15.736  65.044  1.00  0.00    -0.222 P  
HETATM   22  O   UNL     1     -10.042  16.861  65.444  1.00  0.00    -0.586 OA 
HETATM   23  O   UNL     1     -11.902  16.006  63.823  1.00  0.00    -0.782 OA 
HETATM   24  O   UNL     1     -11.882  15.559  66.422  1.00  0.00     0.176 OA 
ENDBRANCH  19  20
ENDBRANCH   8  19
TORSDOF 5
ENDMDL
MODEL      197
REMARK 921   NORMALIZED FREE ENERGY PREDICTED BY IDOCK:   -3.81 KCAL/MOL
REMARK 922        TOTAL FREE ENERGY PREDICTED BY IDOCK:   -5.62 KCAL/MOL
REMARK 923 INTER-LIGAND FREE ENERGY PREDICTED BY IDOCK:   -4.72 KCAL/MOL
REMARK 924 INTRA-LIGAND FREE ENERGY PREDICTED BY IDOCK:   -0.90 KCAL/MOL
REMARK 927      BINDING AFFINITY PREDICTED BY RF-SCORE:    0.00 PKD
ROOT
HETATM    1  O   UNL     1      -6.705   8.003  67.488  1.00  0.00    -0.065 OA 
HETATM    2  H   UNL     1      -6.575   8.294  66.593  1.00  0.00     0.000 HD 
HETATM    3  C   UNL     1      -8.007   7.465  67.693  1.00  0.00    -0.114 C  
HETATM    4  C   UNL     1      -8.215   7.000  69.123  1.00  0.00    -0.122 C  
HETATM    5  C   UNL     1      -9.760   6.946  69.188  1.00  0.00    -0.155 C  
HETATM    6  O   UNL     1      -7.653   7.981  70.020  1.00  0.00    -0.079 OA 
HETATM    7  O   UNL     1     -10.207   8.052  68.383  1.00  0.00    -0.198 OA 
HETATM    8  C   UNL     1      -9.092   8.521  67.590  1.00  0.00    -0.135 C  
HETATM    9  H   UNL     1      -7.783   7.690  70.915  1.00  0.00     0.000 HD 
ENDROOT
BRANCH   5  10
HETATM   10  O   UNL     1     -10.154   6.998  70.539  1.00  0.00    -0.190 OA 
BRANCH  10  11
HETATM   11  P   UNL     1     -11.072   8.278  71.253  1.00  0.00    -0.276 P  
HETATM   12  O   UNL     1     -11.977   7.189  72.067  1.00  0.00    -0.289 OA 
HETATM   13  O   UNL     1      -9.879   8.616  72.158  1.00  0.00    -0.297 OA 
BRANCH  11  14
HETATM   14  O   UNL     1     -11.990   9.559  71.968  1.00  0.00    -0.348 OA 
HETATM   15  P   UNL     1     -12.201  10.831  70.815  1.00  0.00    -0.409 P  
HETATM   16  O   UNL     1     -12.389  11.969  69.782  1.00  0.00    -0.172 OA 
HETATM   17  O   UNL     1     -13.554  10.024  70.356  1.00  0.00    -0.006 OA 
HETATM   18  O   UNL     1     -12.956  11.624  72.040  1.00  0.00    -0.416 OA 
ENDBRANCH  11  14
ENDBRANCH  10  11
ENDBRANCH   5  10
BRANCH   8  19
HETATM   19  C   UNL     1      -9.533   8.763  66.148  1.00  0.00    -0.247 C  
BRANCH  19  20
HETATM   20  O   UNL     1     -10.483   9.812  66.181  1.00  0.00    -0.179 OA 
HETATM   21  P   UNL     1     -10.012  11.272  65.765  1.00  0.00    -0.261 P  
HETATM   22  O   UNL     1     -11.415  12.021  65.635  1.00  0.00    -0.344 OA 
HETATM   23  O   UNL     1      -9.012  11.921  66.649  1.00  0.00    -0.191 OA 
HETATM   24  O   UNL     1      -9.634  11.080  64.228  1.00  0.00    -0.231 OA 
ENDBRANCH  19  20
ENDBRANCH   8  19
TORSDOF 5
ENDMDL
MODEL      198
REMARK 921   NORMALIZED FREE ENERGY PREDICTED BY IDOCK:   -3.79 KCAL/MOL
REMARK 922        TOTAL FREE ENERGY PREDICTED BY IDOCK:   -5.60 KCAL/MOL
REMARK 923 INTER-LIGAND FREE ENERGY PREDICTED BY IDOCK:   -5.78 KCAL/MOL
REMARK 924 INTRA-LIGAND FREE ENERGY PREDICTED BY IDOCK:    0.18 KCAL/MOL
REMARK 927      BINDING AFFINITY PREDICTED BY RF-SCORE:    0.00 PKD
ROOT
HETATM    1  O   UNL     1      -8.695  15.039  66.233  1.00  0.00    -0.453 OA 
HETATM    2  H   UNL     1      -8.610  15.955  66.471  1.00  0.00     0.000 HD 
HETATM    3  C   UNL     1      -9.926  14.480  66.682  1.00  0.00    -0.270 C  
HETATM    4  C   UNL     1     -10.061  13.016  66.302  1.00  0.00    -0.282 C  
HETATM    5  C   UNL     1     -11.165  12.563  67.286  1.00  0.00    -0.295 C  
HETATM    6  O   UNL     1      -8.800  12.354  66.534  1.00  0.00    -0.322 OA 
HETATM    7  O   UNL     1     -10.912  13.299  68.497  1.00  0.00    -0.246 OA 
HETATM    8  C   UNL     1      -9.994  14.375  68.195  1.00  0.00    -0.223 C  
HETATM    9  H   UNL     1      -8.885  11.439  66.296  1.00  0.00     0.000 HD 
ENDROOT
BRANCH   5  10
HETATM   10  O   UNL     1     -11.099  11.162  67.419  1.00  0.00    -0.273 OA 
BRANCH  10  11
HETATM   11  P   UNL     1     -10.473  10.328  68.799  1.00  0.00    -0.233 P  
HETATM   12  O   UNL     1      -9.666   9.297  67.822  1.00  0.00    -0.142 OA 
HETATM   13  O   UNL     1      -9.526  11.504  69.069  1.00  0.00    -0.073 OA 
BRANCH  11  14
HETATM   14  O   UNL     1      -9.846   9.493  70.178  1.00  0.00    -0.212 OA 
HETATM   15  P   UNL     1     -11.158   8.913  71.147  1.00  0.00    -0.343 P  
HETATM   16  O   UNL     1     -12.332   8.395  72.013  1.00  0.00    -0.320 OA 
HETATM   17  O   UNL     1     -11.089   7.565  70.214  1.00  0.00    -0.257 OA 
HETATM   18  O   UNL     1      -9.983   8.395  72.174  1.00  0.00    -0.247 OA 
ENDBRANCH  11  14
ENDBRANCH  10  11
ENDBRANCH   5  10
BRANCH   8  19
HETATM   19  C   UNL     1     -10.467  15.673  68.847  1.00  0.00    -0.220 C  
BRANCH  19  20
HETATM   20  O   UNL     1     -10.336  16.691  67.873  1.00  0.00    -0.286 OA 
HETATM   21  P   UNL     1      -9.405  17.936  68.201  1.00  0.00    -0.303 P  
HETATM   22  O   UNL     1      -9.296  18.624  66.765  1.00  0.00    -0.288 OA 
HETATM   23  O   UNL     1      -9.846  18.819  69.310  1.00  0.00    -0.266 OA 
HETATM   24  O   UNL     1      -7.965  17.261  68.315  1.00  0.00    -0.224 OA 
ENDBRANCH  19  20
ENDBRANCH   8  19
TORSDOF 5
ENDMDL
MODEL      199
REMARK 921   NORMALIZED FREE ENERGY PREDICTED BY IDOCK:   -3.78 KCAL/MOL
REMARK 922        TOTAL FREE ENERGY PREDICTED BY IDOCK:   -5.59 KCAL/MOL
REMARK 923 INTER-LIGAND FREE ENERGY PREDICTED BY IDOCK:   -6.17 KCAL/MOL
REMARK 924 INTRA-LIGAND FREE ENERGY PREDICTED BY IDOCK:    0.58 KCAL/MOL
REMARK 927      BINDING AFFINITY PREDICTED BY RF-SCORE:    0.00 PKD
ROOT
HETATM    1  O   UNL     1      -9.416  15.552  68.797  1.00  0.00    -0.190 OA 
HETATM    2  H   UNL     1      -9.541  16.375  69.255  1.00  0.00     0.000 HD 
HETATM    3  C   UNL     1     -10.653  14.931  68.463  1.00  0.00    -0.245 C  
HETATM    4  C   UNL     1     -10.454  13.616  67.731  1.00  0.00    -0.240 C  
HETATM    5  C   UNL     1     -11.839  12.957  67.937  1.00  0.00    -0.339 C  
HETATM    6  O   UNL     1      -9.387  12.883  68.369  1.00  0.00    -0.262 OA 
HETATM    7  O   UNL     1     -12.250  13.355  69.258  1.00  0.00    -0.284 OA 
HETATM    8  C   UNL     1     -11.406  14.447  69.690  1.00  0.00    -0.263 C  
HETATM    9  H   UNL     1      -9.262  12.060  67.911  1.00  0.00     0.000 HD 
ENDROOT
BRANCH   5  10
HETATM   10  O   UNL     1     -11.707  11.567  67.750  1.00  0.00    -0.514 OA 
BRANCH  10  11
HETATM   11  P   UNL     1     -10.326  10.790  67.057  1.00  0.00    -0.249 P  
HETATM   12  O   UNL     1     -10.772   9.372  67.733  1.00  0.00    -0.265 OA 
HETATM   13  O   UNL     1     -10.998  10.846  65.678  1.00  0.00    -0.112 OA 
BRANCH  11  14
HETATM   14  O   UNL     1      -8.945  10.012  66.363  1.00  0.00    -0.141 OA 
HETATM   15  P   UNL     1      -7.590  11.085  66.418  1.00  0.00    -0.060 P  
HETATM   16  O   UNL     1      -6.377  12.046  66.468  1.00  0.00    -0.066 OA 
HETATM   17  O   UNL     1      -7.296  10.440  67.899  1.00  0.00    -0.085 OA 
HETATM   18  O   UNL     1      -6.792   9.891  65.618  1.00  0.00    -0.094 OA 
ENDBRANCH  11  14
ENDBRANCH  10  11
ENDBRANCH   5  10
BRANCH   8  19
HETATM   19  C   UNL     1     -12.251  15.549  70.326  1.00  0.00    -0.400 C  
BRANCH  19  20
HETATM   20  O   UNL     1     -11.868  15.624  71.687  1.00  0.00    -0.343 OA 
HETATM   21  P   UNL     1     -12.946  15.263  72.797  1.00  0.00    -0.550 P  
HETATM   22  O   UNL     1     -12.026  15.164  74.097  1.00  0.00    -0.534 OA 
HETATM   23  O   UNL     1     -14.118  16.168  72.901  1.00  0.00    -0.456 OA 
HETATM   24  O   UNL     1     -13.222  13.719  72.510  1.00  0.00    -0.478 OA 
ENDBRANCH  19  20
ENDBRANCH   8  19
TORSDOF 5
ENDMDL
MODEL      200
REMARK 921   NORMALIZED FREE ENERGY PREDICTED BY IDOCK:   -3.77 KCAL/MOL
REMARK 922        TOTAL FREE ENERGY PREDICTED BY IDOCK:   -5.58 KCAL/MOL
REMARK 923 INTER-LIGAND FREE ENERGY PREDICTED BY IDOCK:   -4.75 KCAL/MOL
REMARK 924 INTRA-LIGAND FREE ENERGY PREDICTED BY IDOCK:   -0.82 KCAL/MOL
REMARK 927      BINDING AFFINITY PREDICTED BY RF-SCORE:    0.00 PKD
ROOT
HETATM    1  O   UNL     1      -6.254  13.785  70.907  1.00  0.00    -0.398 OA 
HETATM    2  H   UNL     1      -6.322  12.881  71.192  1.00  0.00     0.000 HD 
HETATM    3  C   UNL     1      -6.856  13.993  69.633  1.00  0.00    -0.017 C  
HETATM    4  C   UNL     1      -6.745  15.437  69.178  1.00  0.00    -0.138 C  
HETATM    5  C   UNL     1      -6.999  15.281  67.659  1.00  0.00    -0.185 C  
HETATM    6  O   UNL     1      -5.419  15.921  69.475  1.00  0.00    -0.109 OA 
HETATM    7  O   UNL     1      -6.378  14.033  67.302  1.00  0.00    -0.295 OA 
HETATM    8  C   UNL     1      -6.099  13.297  68.516  1.00  0.00    -0.083 C  
HETATM    9  H   UNL     1      -5.350  16.825  69.190  1.00  0.00     0.000 HD 
ENDROOT
BRANCH   5  10
HETATM   10  O   UNL     1      -6.479  16.412  66.999  1.00  0.00    -0.180 OA 
BRANCH  10  11
HETATM   11  P   UNL     1      -7.086  18.022  67.171  1.00  0.00    -0.203 P  
HETATM   12  O   UNL     1      -5.636  18.520  67.736  1.00  0.00    -0.162 OA 
HETATM   13  O   UNL     1      -7.041  18.192  65.646  1.00  0.00    -0.488 OA 
BRANCH  11  14
HETATM   14  O   UNL     1      -7.692  19.634  67.342  1.00  0.00    -0.251 OA 
HETATM   15  P   UNL     1      -9.407  19.632  67.112  1.00  0.00    -0.383 P  
HETATM   16  O   UNL     1     -10.942  19.630  66.906  1.00  0.00    -0.452 OA 
HETATM   17  O   UNL     1      -9.499  19.352  68.727  1.00  0.00    -0.377 OA 
HETATM   18  O   UNL     1      -9.289  21.263  67.290  1.00  0.00    -0.152 OA 
ENDBRANCH  11  14
ENDBRANCH  10  11
ENDBRANCH   5  10
BRANCH   8  19
HETATM   19  C   UNL     1      -6.513  11.836  68.356  1.00  0.00    -0.053 C  
BRANCH  19  20
HETATM   20  O   UNL     1      -7.270  11.753  67.163  1.00  0.00    -0.132 OA 
HETATM   21  P   UNL     1      -8.740  11.155  67.240  1.00  0.00    -0.145 P  
HETATM   22  O   UNL     1      -9.305  11.547  65.800  1.00  0.00    -0.226 OA 
HETATM   23  O   UNL     1      -8.853   9.723  67.612  1.00  0.00    -0.125 OA 
HETATM   24  O   UNL     1      -9.492  12.223  68.155  1.00  0.00    -0.203 OA 
ENDBRANCH  19  20
ENDBRANCH   8  19
TORSDOF 5
ENDMDL
MODEL      201
REMARK 921   NORMALIZED FREE ENERGY PREDICTED BY IDOCK:   -3.77 KCAL/MOL
REMARK 922        TOTAL FREE ENERGY PREDICTED BY IDOCK:   -5.57 KCAL/MOL
REMARK 923 INTER-LIGAND FREE ENERGY PREDICTED BY IDOCK:   -4.65 KCAL/MOL
REMARK 924 INTRA-LIGAND FREE ENERGY PREDICTED BY IDOCK:   -0.92 KCAL/MOL
REMARK 927      BINDING AFFINITY PREDICTED BY RF-SCORE:    0.00 PKD
ROOT
HETATM    1  O   UNL     1      -7.560  16.650  68.853  1.00  0.00    -0.219 OA 
HETATM    2  H   UNL     1      -7.845  17.533  68.653  1.00  0.00     0.000 HD 
HETATM    3  C   UNL     1      -8.238  15.676  68.065  1.00  0.00    -0.144 C  
HETATM    4  C   UNL     1      -7.783  14.264  68.384  1.00  0.00    -0.134 C  
HETATM    5  C   UNL     1      -8.958  13.443  67.803  1.00  0.00    -0.205 C  
HETATM    6  O   UNL     1      -7.659  14.125  69.815  1.00  0.00    -0.341 OA 
HETATM    7  O   UNL     1     -10.132  14.235  68.060  1.00  0.00    -0.219 OA 
HETATM    8  C   UNL     1      -9.711  15.573  68.415  1.00  0.00    -0.203 C  
HETATM    9  H   UNL     1      -7.374  13.241  70.015  1.00  0.00     0.000 HD 
ENDROOT
BRANCH   5  10
HETATM   10  O   UNL     1      -8.958  12.170  68.407  1.00  0.00    -0.186 OA 
BRANCH  10  11
HETATM   11  P   UNL     1      -8.726  10.677  67.565  1.00  0.00    -0.124 P  
HETATM   12  O   UNL     1     -10.073  10.065  68.258  1.00  0.00    -0.149 OA 
HETATM   13  O   UNL     1      -9.175  11.352  66.262  1.00  0.00    -0.196 OA 
BRANCH  11  14
HETATM   14  O   UNL     1      -8.495   9.183  66.724  1.00  0.00    -0.120 OA 
HETATM   15  P   UNL     1      -7.909   9.504  65.128  1.00  0.00    -0.126 P  
HETATM   16  O   UNL     1      -7.384   9.793  63.700  1.00  0.00    -0.112 OA 
HETATM   17  O   UNL     1      -6.412   9.438  65.798  1.00  0.00    -0.066 OA 
HETATM   18  O   UNL     1      -8.007   7.877  64.918  1.00  0.00    -0.125 OA 
ENDBRANCH  11  14
ENDBRANCH  10  11
ENDBRANCH   5  10
BRANCH   8  19
HETATM   19  C   UNL     1     -10.559  16.608  67.679  1.00  0.00    -0.321 C  
BRANCH  19  20
HETATM   20  O   UNL     1     -10.631  17.748  68.515  1.00  0.00    -0.343 OA 
HETATM   21  P   UNL     1     -10.025  19.116  67.981  1.00  0.00    -0.426 P  
HETATM   22  O   UNL     1     -10.600  20.145  69.057  1.00  0.00    -0.179 OA 
HETATM   23  O   UNL     1      -8.556  19.153  67.771  1.00  0.00    -0.289 OA 
HETATM   24  O   UNL     1     -10.963  19.437  66.733  1.00  0.00    -0.421 OA 
ENDBRANCH  19  20
ENDBRANCH   8  19
TORSDOF 5
ENDMDL
MODEL      202
REMARK 921   NORMALIZED FREE ENERGY PREDICTED BY IDOCK:   -3.69 KCAL/MOL
REMARK 922        TOTAL FREE ENERGY PREDICTED BY IDOCK:   -5.47 KCAL/MOL
REMARK 923 INTER-LIGAND FREE ENERGY PREDICTED BY IDOCK:   -4.84 KCAL/MOL
REMARK 924 INTRA-LIGAND FREE ENERGY PREDICTED BY IDOCK:   -0.63 KCAL/MOL
REMARK 927      BINDING AFFINITY PREDICTED BY RF-SCORE:    0.00 PKD
ROOT
HETATM    1  O   UNL     1     -11.618  11.319  70.917  1.00  0.00    -0.332 OA 
HETATM    2  H   UNL     1     -11.826  12.230  71.089  1.00  0.00     0.000 HD 
HETATM    3  C   UNL     1     -10.988  11.142  69.652  1.00  0.00    -0.192 C  
HETATM    4  C   UNL     1     -10.656   9.687  69.377  1.00  0.00    -0.225 C  
HETATM    5  C   UNL     1     -10.470   9.718  67.841  1.00  0.00    -0.239 C  
HETATM    6  O   UNL     1     -11.771   8.868  69.787  1.00  0.00    -0.407 OA 
HETATM    7  O   UNL     1     -11.443  10.666  67.365  1.00  0.00    -0.436 OA 
HETATM    8  C   UNL     1     -11.926  11.431  68.493  1.00  0.00    -0.225 C  
HETATM    9  H   UNL     1     -11.563   7.957  69.615  1.00  0.00     0.000 HD 
ENDROOT
BRANCH   5  10
HETATM   10  O   UNL     1     -10.625   8.409  67.344  1.00  0.00    -0.281 OA 
BRANCH  10  11
HETATM   11  P   UNL     1      -9.323   7.359  66.904  1.00  0.00    -0.173 P  
HETATM   12  O   UNL     1      -8.267   8.319  67.697  1.00  0.00    -0.124 OA 
HETATM   13  O   UNL     1      -9.824   6.326  67.923  1.00  0.00    -0.120 OA 
BRANCH  11  14
HETATM   14  O   UNL     1      -8.021   6.308  66.464  1.00  0.00    -0.105 OA 
HETATM   15  P   UNL     1      -8.659   4.842  65.804  1.00  0.00    -0.137 P  
HETATM   16  O   UNL     1      -9.232   3.530  65.214  1.00  0.00    -0.141 OA 
HETATM   17  O   UNL     1      -8.613   5.617  64.359  1.00  0.00    -0.097 OA 
HETATM   18  O   UNL     1      -7.089   4.362  65.722  1.00  0.00    -0.067 OA 
ENDBRANCH  11  14
ENDBRANCH  10  11
ENDBRANCH   5  10
BRANCH   8  19
HETATM   19  C   UNL     1     -11.978  12.916  68.143  1.00  0.00    -0.261 C  
BRANCH  19  20
HETATM   20  O   UNL     1     -11.500  13.041  66.817  1.00  0.00    -0.312 OA 
HETATM   21  P   UNL     1     -10.244  13.977  66.550  1.00  0.00    -0.292 P  
HETATM   22  O   UNL     1      -9.871  13.570  65.053  1.00  0.00    -0.194 OA 
HETATM   23  O   UNL     1     -10.436  15.428  66.797  1.00  0.00    -0.286 OA 
HETATM   24  O   UNL     1      -9.089  13.231  67.357  1.00  0.00    -0.196 OA 
ENDBRANCH  19  20
ENDBRANCH   8  19
TORSDOF 5
ENDMDL
MODEL      203
REMARK 921   NORMALIZED FREE ENERGY PREDICTED BY IDOCK:   -3.69 KCAL/MOL
REMARK 922        TOTAL FREE ENERGY PREDICTED BY IDOCK:   -5.47 KCAL/MOL
REMARK 923 INTER-LIGAND FREE ENERGY PREDICTED BY IDOCK:   -5.44 KCAL/MOL
REMARK 924 INTRA-LIGAND FREE ENERGY PREDICTED BY IDOCK:   -0.02 KCAL/MOL
REMARK 927      BINDING AFFINITY PREDICTED BY RF-SCORE:    0.00 PKD
ROOT
HETATM    1  O   UNL     1     -10.542   9.582  70.346  1.00  0.00    -0.233 OA 
HETATM    2  H   UNL     1     -10.667   8.926  71.021  1.00  0.00     0.000 HD 
HETATM    3  C   UNL     1     -10.717   9.046  69.038  1.00  0.00    -0.141 C  
HETATM    4  C   UNL     1     -10.516  10.094  67.958  1.00  0.00    -0.209 C  
HETATM    5  C   UNL     1     -10.271   9.194  66.724  1.00  0.00    -0.261 C  
HETATM    6  O   UNL     1      -9.368  10.900  68.297  1.00  0.00    -0.155 OA 
HETATM    7  O   UNL     1      -9.529   8.067  67.223  1.00  0.00    -0.144 OA 
HETATM    8  C   UNL     1      -9.624   8.060  68.666  1.00  0.00    -0.148 C  
HETATM    9  H   UNL     1      -9.242  11.556  67.622  1.00  0.00     0.000 HD 
ENDROOT
BRANCH   5  10
HETATM   10  O   UNL     1      -9.607   9.953  65.740  1.00  0.00    -0.209 OA 
BRANCH  10  11
HETATM   11  P   UNL     1     -10.385  11.014  64.618  1.00  0.00    -0.310 P  
HETATM   12  O   UNL     1      -9.287  12.180  64.943  1.00  0.00     0.053 OA 
HETATM   13  O   UNL     1      -9.813  10.190  63.456  1.00  0.00    -0.215 OA 
BRANCH  11  14
HETATM   14  O   UNL     1     -11.162  12.076  63.494  1.00  0.00    -0.417 OA 
HETATM   15  P   UNL     1     -12.273  13.097  64.340  1.00  0.00    -0.381 P  
HETATM   16  O   UNL     1     -13.268  14.010  65.098  1.00  0.00    -0.768 OA 
HETATM   17  O   UNL     1     -11.002  14.117  64.530  1.00  0.00    -0.385 OA 
HETATM   18  O   UNL     1     -12.657  13.675  62.850  1.00  0.00    -0.621 OA 
ENDBRANCH  11  14
ENDBRANCH  10  11
ENDBRANCH   5  10
BRANCH   8  19
HETATM   19  C   UNL     1      -9.917   6.649  69.171  1.00  0.00    -0.157 C  
BRANCH  19  20
HETATM   20  O   UNL     1      -9.191   6.486  70.375  1.00  0.00    -0.154 OA 
HETATM   21  P   UNL     1      -9.575   5.277  71.333  1.00  0.00    -0.171 P  
HETATM   22  O   UNL     1      -8.342   5.285  72.345  1.00  0.00    -0.116 OA 
HETATM   23  O   UNL     1     -10.923   5.327  71.953  1.00  0.00    -0.195 OA 
HETATM   24  O   UNL     1      -9.215   4.008  70.436  1.00  0.00    -0.106 OA 
ENDBRANCH  19  20
ENDBRANCH   8  19
TORSDOF 5
ENDMDL
MODEL      204
REMARK 921   NORMALIZED FREE ENERGY PREDICTED BY IDOCK:   -3.68 KCAL/MOL
REMARK 922        TOTAL FREE ENERGY PREDICTED BY IDOCK:   -5.47 KCAL/MOL
REMARK 923 INTER-LIGAND FREE ENERGY PREDICTED BY IDOCK:   -4.98 KCAL/MOL
REMARK 924 INTRA-LIGAND FREE ENERGY PREDICTED BY IDOCK:   -0.48 KCAL/MOL
REMARK 927      BINDING AFFINITY PREDICTED BY RF-SCORE:    0.00 PKD
ROOT
HETATM    1  O   UNL     1      -7.885  12.217  67.021  1.00  0.00    -0.247 OA 
HETATM    2  H   UNL     1      -8.300  12.888  66.491  1.00  0.00     0.000 HD 
HETATM    3  C   UNL     1      -8.463  10.933  66.811  1.00  0.00    -0.139 C  
HETATM    4  C   UNL     1      -7.800   9.861  67.658  1.00  0.00    -0.098 C  
HETATM    5  C   UNL     1      -8.881   8.755  67.622  1.00  0.00    -0.135 C  
HETATM    6  O   UNL     1      -7.581  10.384  68.985  1.00  0.00    -0.089 OA 
HETATM    7  O   UNL     1     -10.137   9.457  67.638  1.00  0.00    -0.184 OA 
HETATM    8  C   UNL     1      -9.887  10.848  67.331  1.00  0.00    -0.173 C  
HETATM    9  H   UNL     1      -7.166   9.714  69.514  1.00  0.00     0.000 HD 
ENDROOT
BRANCH   5  10
HETATM   10  O   UNL     1      -8.672   7.888  68.713  1.00  0.00    -0.128 OA 
BRANCH  10  11
HETATM   11  P   UNL     1      -9.874   7.460  69.880  1.00  0.00    -0.181 P  
HETATM   12  O   UNL     1      -9.035   6.112  70.264  1.00  0.00    -0.149 OA 
HETATM   13  O   UNL     1      -9.359   8.572  70.805  1.00  0.00    -0.154 OA 
BRANCH  11  14
HETATM   14  O   UNL     1     -11.076   7.032  71.049  1.00  0.00    -0.248 OA 
HETATM   15  P   UNL     1     -10.579   5.605  71.891  1.00  0.00    -0.229 P  
HETATM   16  O   UNL     1     -10.133   4.327  72.644  1.00  0.00    -0.152 OA 
HETATM   17  O   UNL     1      -9.832   6.629  72.933  1.00  0.00    -0.160 OA 
HETATM   18  O   UNL     1     -12.033   5.717  72.649  1.00  0.00    -0.250 OA 
ENDBRANCH  11  14
ENDBRANCH  10  11
ENDBRANCH   5  10
BRANCH   8  19
HETATM   19  C   UNL     1     -10.908  11.359  66.317  1.00  0.00    -0.263 C  
BRANCH  19  20
HETATM   20  O   UNL     1     -10.313  11.235  65.039  1.00  0.00    -0.271 OA 
HETATM   21  P   UNL     1     -10.857  12.150  63.860  1.00  0.00    -0.498 P  
HETATM   22  O   UNL     1      -9.729  11.926  62.753  1.00  0.00    -0.269 OA 
HETATM   23  O   UNL     1     -12.253  11.904  63.420  1.00  0.00    -0.531 OA 
HETATM   24  O   UNL     1     -10.485  13.615  64.369  1.00  0.00    -0.432 OA 
ENDBRANCH  19  20
ENDBRANCH   8  19
TORSDOF 5
ENDMDL
MODEL      205
REMARK 921   NORMALIZED FREE ENERGY PREDICTED BY IDOCK:   -3.66 KCAL/MOL
REMARK 922        TOTAL FREE ENERGY PREDICTED BY IDOCK:   -5.43 KCAL/MOL
REMARK 923 INTER-LIGAND FREE ENERGY PREDICTED BY IDOCK:   -4.71 KCAL/MOL
REMARK 924 INTRA-LIGAND FREE ENERGY PREDICTED BY IDOCK:   -0.72 KCAL/MOL
REMARK 927      BINDING AFFINITY PREDICTED BY RF-SCORE:    0.00 PKD
ROOT
HETATM    1  O   UNL     1     -12.378  13.907  68.944  1.00  0.00    -0.468 OA 
HETATM    2  H   UNL     1     -12.611  14.419  68.177  1.00  0.00     0.000 HD 
HETATM    3  C   UNL     1     -11.413  12.904  68.645  1.00  0.00    -0.308 C  
HETATM    4  C   UNL     1     -11.042  12.085  69.869  1.00  0.00     0.200 C  
HETATM    5  C   UNL     1     -10.419  10.835  69.203  1.00  0.00    -0.218 C  
HETATM    6  O   UNL     1     -12.242  11.783  70.610  1.00  0.00    -0.371 OA 
HETATM    7  O   UNL     1     -11.196  10.620  68.010  1.00  0.00    -0.280 OA 
HETATM    8  C   UNL     1     -11.971  11.813  67.748  1.00  0.00    -0.064 C  
HETATM    9  H   UNL     1     -12.009  11.271  71.376  1.00  0.00     0.000 HD 
ENDROOT
BRANCH   5  10
HETATM   10  O   UNL     1     -10.447   9.773  70.128  1.00  0.00    -0.247 OA 
BRANCH  10  11
HETATM   11  P   UNL     1      -9.436   8.372  70.055  1.00  0.00    -0.166 P  
HETATM   12  O   UNL     1     -10.577   7.582  69.192  1.00  0.00    -0.219 OA 
HETATM   13  O   UNL     1      -8.536   9.085  69.037  1.00  0.00    -0.128 OA 
BRANCH  11  14
HETATM   14  O   UNL     1      -8.426   6.969  69.981  1.00  0.00    -0.136 OA 
HETATM   15  P   UNL     1      -7.196   7.080  71.193  1.00  0.00    -0.077 P  
HETATM   16  O   UNL     1      -6.095   7.180  72.277  1.00  0.00    -0.041 OA 
HETATM   17  O   UNL     1      -8.274   6.335  72.180  1.00  0.00    -0.109 OA 
HETATM   18  O   UNL     1      -6.640   5.671  70.555  1.00  0.00    -0.037 OA 
ENDBRANCH  11  14
ENDBRANCH  10  11
ENDBRANCH   5  10
BRANCH   8  19
HETATM   19  C   UNL     1     -11.892  12.181  66.268  1.00  0.00    -0.246 C  
BRANCH  19  20
HETATM   20  O   UNL     1     -11.471  13.531  66.204  1.00  0.00    -0.311 OA 
HETATM   21  P   UNL     1     -11.236  14.183  64.774  1.00  0.00    -0.363 P  
HETATM   22  O   UNL     1     -11.104  15.726  65.159  1.00  0.00    -0.363 OA 
HETATM   23  O   UNL     1     -10.127  13.620  63.963  1.00  0.00    -0.106 OA 
HETATM   24  O   UNL     1     -12.703  14.159  64.147  1.00  0.00    -0.656 OA 
ENDBRANCH  19  20
ENDBRANCH   8  19
TORSDOF 5
ENDMDL
MODEL      206
REMARK 921   NORMALIZED FREE ENERGY PREDICTED BY IDOCK:   -3.65 KCAL/MOL
REMARK 922        TOTAL FREE ENERGY PREDICTED BY IDOCK:   -5.42 KCAL/MOL
REMARK 923 INTER-LIGAND FREE ENERGY PREDICTED BY IDOCK:   -5.25 KCAL/MOL
REMARK 924 INTRA-LIGAND FREE ENERGY PREDICTED BY IDOCK:   -0.17 KCAL/MOL
REMARK 927      BINDING AFFINITY PREDICTED BY RF-SCORE:    0.00 PKD
ROOT
HETATM    1  O   UNL     1      -6.922  15.944  68.729  1.00  0.00    -0.119 OA 
HETATM    2  H   UNL     1      -6.374  16.656  68.419  1.00  0.00     0.000 HD 
HETATM    3  C   UNL     1      -7.767  15.431  67.704  1.00  0.00    -0.160 C  
HETATM    4  C   UNL     1      -8.642  14.294  68.200  1.00  0.00    -0.172 C  
HETATM    5  C   UNL     1      -9.740  14.277  67.110  1.00  0.00    -0.254 C  
HETATM    6  O   UNL     1      -9.157  14.636  69.504  1.00  0.00    -0.401 OA 
HETATM    7  O   UNL     1      -9.938  15.658  66.756  1.00  0.00    -0.239 OA 
HETATM    8  C   UNL     1      -8.831  16.428  67.280  1.00  0.00    -0.188 C  
HETATM    9  H   UNL     1      -9.705  13.924  69.815  1.00  0.00     0.000 HD 
ENDROOT
BRANCH   5  10
HETATM   10  O   UNL     1     -10.877  13.628  67.628  1.00  0.00    -0.252 OA 
BRANCH  10  11
HETATM   11  P   UNL     1     -11.053  11.915  67.783  1.00  0.00    -0.282 P  
HETATM   12  O   UNL     1     -11.602  12.100  69.311  1.00  0.00    -0.275 OA 
HETATM   13  O   UNL     1     -12.284  11.967  66.868  1.00  0.00    -0.529 OA 
BRANCH  11  14
HETATM   14  O   UNL     1     -11.229  10.201  67.940  1.00  0.00    -0.282 OA 
HETATM   15  P   UNL     1      -9.857   9.553  68.770  1.00  0.00    -0.183 P  
HETATM   16  O   UNL     1      -8.627   8.974  69.513  1.00  0.00    -0.129 OA 
HETATM   17  O   UNL     1     -10.709   9.835  70.144  1.00  0.00    -0.245 OA 
HETATM   18  O   UNL     1     -10.562   8.093  68.501  1.00  0.00    -0.186 OA 
ENDBRANCH  11  14
ENDBRANCH  10  11
ENDBRANCH   5  10
BRANCH   8  19
HETATM   19  C   UNL     1      -8.322  17.408  66.225  1.00  0.00    -0.236 C  
BRANCH  19  20
HETATM   20  O   UNL     1      -7.343  18.214  66.855  1.00  0.00    -0.193 OA 
HETATM   21  P   UNL     1      -6.224  18.890  65.951  1.00  0.00    -0.242 P  
HETATM   22  O   UNL     1      -5.578  19.920  66.984  1.00  0.00    -0.173 OA 
HETATM   23  O   UNL     1      -5.276  17.971  65.274  1.00  0.00    -0.159 OA 
HETATM   24  O   UNL     1      -7.079  19.881  65.040  1.00  0.00    -0.348 OA 
ENDBRANCH  19  20
ENDBRANCH   8  19
TORSDOF 5
ENDMDL
MODEL      207
REMARK 921   NORMALIZED FREE ENERGY PREDICTED BY IDOCK:   -3.63 KCAL/MOL
REMARK 922        TOTAL FREE ENERGY PREDICTED BY IDOCK:   -5.39 KCAL/MOL
REMARK 923 INTER-LIGAND FREE ENERGY PREDICTED BY IDOCK:   -4.79 KCAL/MOL
REMARK 924 INTRA-LIGAND FREE ENERGY PREDICTED BY IDOCK:   -0.61 KCAL/MOL
REMARK 927      BINDING AFFINITY PREDICTED BY RF-SCORE:    0.00 PKD
ROOT
HETATM    1  O   UNL     1      -6.226  13.049  70.378  1.00  0.00    -0.357 OA 
HETATM    2  H   UNL     1      -6.309  12.152  70.678  1.00  0.00     0.000 HD 
HETATM    3  C   UNL     1      -7.238  13.395  69.437  1.00  0.00     0.208 C  
HETATM    4  C   UNL     1      -7.106  14.829  68.956  1.00  0.00    -0.127 C  
HETATM    5  C   UNL     1      -7.948  14.777  67.658  1.00  0.00    -0.176 C  
HETATM    6  O   UNL     1      -5.714  15.111  68.706  1.00  0.00    -0.087 OA 
HETATM    7  O   UNL     1      -7.701  13.472  67.104  1.00  0.00    -0.111 OA 
HETATM    8  C   UNL     1      -7.083  12.651  68.122  1.00  0.00    -0.102 C  
HETATM    9  H   UNL     1      -5.631  16.009  68.405  1.00  0.00     0.000 HD 
ENDROOT
BRANCH   5  10
HETATM   10  O   UNL     1      -7.567  15.853  66.833  1.00  0.00    -0.220 OA 
BRANCH  10  11
HETATM   11  P   UNL     1      -8.012  17.504  67.095  1.00  0.00    -0.227 P  
HETATM   12  O   UNL     1      -6.739  17.698  68.101  1.00  0.00    -0.194 OA 
HETATM   13  O   UNL     1      -7.511  17.853  65.686  1.00  0.00    -0.544 OA 
BRANCH  11  14
HETATM   14  O   UNL     1      -8.456  19.156  67.357  1.00  0.00    -0.276 OA 
HETATM   15  P   UNL     1      -9.855  19.533  66.413  1.00  0.00    -0.467 P  
HETATM   16  O   UNL     1     -11.108  19.871  65.568  1.00  0.00    -0.282 OA 
HETATM   17  O   UNL     1     -10.718  19.024  67.713  1.00  0.00    -0.415 OA 
HETATM   18  O   UNL     1      -9.664  21.058  66.999  1.00  0.00    -0.308 OA 
ENDBRANCH  11  14
ENDBRANCH  10  11
ENDBRANCH   5  10
BRANCH   8  19
HETATM   19  C   UNL     1      -7.732  11.270  68.155  1.00  0.00    -0.112 C  
BRANCH  19  20
HETATM   20  O   UNL     1      -7.753  10.860  69.510  1.00  0.00    -0.115 OA 
HETATM   21  P   UNL     1      -8.702   9.654  69.921  1.00  0.00    -0.215 P  
HETATM   22  O   UNL     1      -8.176   9.338  71.394  1.00  0.00    -0.330 OA 
HETATM   23  O   UNL     1     -10.163   9.886  69.791  1.00  0.00    -0.215 OA 
HETATM   24  O   UNL     1      -8.068   8.435  69.112  1.00  0.00    -0.114 OA 
ENDBRANCH  19  20
ENDBRANCH   8  19
TORSDOF 5
ENDMDL
MODEL      208
REMARK 921   NORMALIZED FREE ENERGY PREDICTED BY IDOCK:   -3.63 KCAL/MOL
REMARK 922        TOTAL FREE ENERGY PREDICTED BY IDOCK:   -5.39 KCAL/MOL
REMARK 923 INTER-LIGAND FREE ENERGY PREDICTED BY IDOCK:   -4.80 KCAL/MOL
REMARK 924 INTRA-LIGAND FREE ENERGY PREDICTED BY IDOCK:   -0.59 KCAL/MOL
REMARK 927      BINDING AFFINITY PREDICTED BY RF-SCORE:    0.00 PKD
ROOT
HETATM    1  O   UNL     1     -11.078  20.177  66.411  1.00  0.00    -0.035 OA 
HETATM    2  H   UNL     1     -11.845  19.975  65.888  1.00  0.00     0.000 HD 
HETATM    3  C   UNL     1      -9.934  19.440  65.993  1.00  0.00    -0.367 C  
HETATM    4  C   UNL     1      -8.709  19.762  66.829  1.00  0.00    -0.339 C  
HETATM    5  C   UNL     1      -7.817  18.536  66.520  1.00  0.00    -0.258 C  
HETATM    6  O   UNL     1      -9.097  19.833  68.218  1.00  0.00    -0.336 OA 
HETATM    7  O   UNL     1      -8.729  17.429  66.403  1.00  0.00    -0.253 OA 
HETATM    8  C   UNL     1     -10.071  17.953  66.271  1.00  0.00    -0.351 C  
HETATM    9  H   UNL     1      -8.330  20.034  68.741  1.00  0.00     0.000 HD 
ENDROOT
BRANCH   5  10
HETATM   10  O   UNL     1      -6.858  18.409  67.544  1.00  0.00    -0.199 OA 
BRANCH  10  11
HETATM   11  P   UNL     1      -6.531  16.952  68.417  1.00  0.00    -0.160 P  
HETATM   12  O   UNL     1      -5.155  16.737  67.563  1.00  0.00    -0.111 OA 
HETATM   13  O   UNL     1      -6.154  17.786  69.649  1.00  0.00    -0.242 OA 
BRANCH  11  14
HETATM   14  O   UNL     1      -6.203  15.495  69.290  1.00  0.00    -0.112 OA 
HETATM   15  P   UNL     1      -7.326  14.270  68.810  1.00  0.00    -0.125 P  
HETATM   16  O   UNL     1      -8.332  13.174  68.380  1.00  0.00    -0.157 OA 
HETATM   17  O   UNL     1      -6.234  13.898  67.643  1.00  0.00    -0.221 OA 
HETATM   18  O   UNL     1      -6.587  13.345  69.951  1.00  0.00    -0.050 OA 
ENDBRANCH  11  14
ENDBRANCH  10  11
ENDBRANCH   5  10
BRANCH   8  19
HETATM   19  C   UNL     1     -10.820  17.220  65.161  1.00  0.00     0.058 C  
BRANCH  19  20
HETATM   20  O   UNL     1     -11.465  16.114  65.765  1.00  0.00     0.194 OA 
HETATM   21  P   UNL     1     -11.788  14.844  64.866  1.00  0.00    -0.233 P  
HETATM   22  O   UNL     1     -12.187  13.774  65.980  1.00  0.00    -0.409 OA 
HETATM   23  O   UNL     1     -12.775  15.040  63.774  1.00  0.00    -0.741 OA 
HETATM   24  O   UNL     1     -10.331  14.331  64.469  1.00  0.00    -0.357 OA 
ENDBRANCH  19  20
ENDBRANCH   8  19
TORSDOF 5
ENDMDL
MODEL      209
REMARK 921   NORMALIZED FREE ENERGY PREDICTED BY IDOCK:   -3.59 KCAL/MOL
REMARK 922        TOTAL FREE ENERGY PREDICTED BY IDOCK:   -5.35 KCAL/MOL
REMARK 923 INTER-LIGAND FREE ENERGY PREDICTED BY IDOCK:   -4.62 KCAL/MOL
REMARK 924 INTRA-LIGAND FREE ENERGY PREDICTED BY IDOCK:   -0.73 KCAL/MOL
REMARK 927      BINDING AFFINITY PREDICTED BY RF-SCORE:    0.00 PKD
ROOT
HETATM    1  O   UNL     1      -6.592  12.180  69.907  1.00  0.00    -0.331 OA 
HETATM    2  H   UNL     1      -6.666  11.309  70.280  1.00  0.00     0.000 HD 
HETATM    3  C   UNL     1      -7.760  12.555  69.183  1.00  0.00     0.306 C  
HETATM    4  C   UNL     1      -7.641  13.947  68.588  1.00  0.00    -0.130 C  
HETATM    5  C   UNL     1      -8.748  13.894  67.507  1.00  0.00    -0.193 C  
HETATM    6  O   UNL     1      -6.321  14.104  68.027  1.00  0.00    -0.119 OA 
HETATM    7  O   UNL     1      -8.716  12.546  67.004  1.00  0.00    -0.199 OA 
HETATM    8  C   UNL     1      -7.945  11.734  67.920  1.00  0.00    -0.141 C  
HETATM    9  H   UNL     1      -6.247  14.975  67.655  1.00  0.00     0.000 HD 
ENDROOT
BRANCH   5  10
HETATM   10  O   UNL     1      -8.486  14.892  66.548  1.00  0.00    -0.188 OA 
BRANCH  10  11
HETATM   11  P   UNL     1      -9.335  16.394  66.428  1.00  0.00    -0.334 P  
HETATM   12  O   UNL     1     -10.265  15.785  65.231  1.00  0.00    -0.375 OA 
HETATM   13  O   UNL     1     -10.058  16.080  67.745  1.00  0.00    -0.236 OA 
BRANCH  11  14
HETATM   14  O   UNL     1     -10.184  17.896  66.308  1.00  0.00    -0.349 OA 
HETATM   15  P   UNL     1      -9.527  19.023  67.444  1.00  0.00    -0.316 P  
HETATM   16  O   UNL     1      -8.939  20.031  68.462  1.00  0.00    -0.196 OA 
HETATM   17  O   UNL     1      -8.486  19.437  66.245  1.00  0.00    -0.323 OA 
HETATM   18  O   UNL     1     -10.712  20.032  66.913  1.00  0.00    -0.408 OA 
ENDBRANCH  11  14
ENDBRANCH  10  11
ENDBRANCH   5  10
BRANCH   8  19
HETATM   19  C   UNL     1      -8.661  10.411  68.186  1.00  0.00    -0.125 C  
BRANCH  19  20
HETATM   20  O   UNL     1      -8.796  10.295  69.590  1.00  0.00    -0.175 OA 
HETATM   21  P   UNL     1      -8.892   8.840  70.223  1.00  0.00    -0.192 P  
HETATM   22  O   UNL     1      -8.704   9.168  71.773  1.00  0.00    -0.342 OA 
HETATM   23  O   UNL     1     -10.094   8.043  69.871  1.00  0.00    -0.191 OA 
HETATM   24  O   UNL     1      -7.463   8.225  69.875  1.00  0.00    -0.063 OA 
ENDBRANCH  19  20
ENDBRANCH   8  19
TORSDOF 5
ENDMDL
MODEL      210
REMARK 921   NORMALIZED FREE ENERGY PREDICTED BY IDOCK:   -3.56 KCAL/MOL
REMARK 922        TOTAL FREE ENERGY PREDICTED BY IDOCK:   -5.31 KCAL/MOL
REMARK 923 INTER-LIGAND FREE ENERGY PREDICTED BY IDOCK:   -5.10 KCAL/MOL
REMARK 924 INTRA-LIGAND FREE ENERGY PREDICTED BY IDOCK:   -0.21 KCAL/MOL
REMARK 927      BINDING AFFINITY PREDICTED BY RF-SCORE:    0.00 PKD
ROOT
HETATM    1  O   UNL     1      -6.968  14.912  70.421  1.00  0.00    -0.214 OA 
HETATM    2  H   UNL     1      -7.136  15.669  70.970  1.00  0.00     0.000 HD 
HETATM    3  C   UNL     1      -7.721  14.947  69.213  1.00  0.00    -0.166 C  
HETATM    4  C   UNL     1      -7.452  13.737  68.336  1.00  0.00    -0.119 C  
HETATM    5  C   UNL     1      -8.690  13.772  67.408  1.00  0.00    -0.207 C  
HETATM    6  O   UNL     1      -7.410  12.558  69.166  1.00  0.00    -0.294 OA 
HETATM    7  O   UNL     1      -9.771  14.226  68.243  1.00  0.00    -0.209 OA 
HETATM    8  C   UNL     1      -9.210  14.782  69.455  1.00  0.00     0.041 C  
HETATM    9  H   UNL     1      -7.242  11.801  68.617  1.00  0.00     0.000 HD 
ENDROOT
BRANCH   5  10
HETATM   10  O   UNL     1      -8.869  12.491  66.850  1.00  0.00    -0.205 OA 
BRANCH  10  11
HETATM   11  P   UNL     1     -10.249  11.995  65.935  1.00  0.00    -0.248 P  
HETATM   12  O   UNL     1     -10.971  11.453  67.297  1.00  0.00    -0.249 OA 
HETATM   13  O   UNL     1     -10.662  13.465  65.779  1.00  0.00    -0.269 OA 
BRANCH  11  14
HETATM   14  O   UNL     1     -11.632  11.499  65.020  1.00  0.00    -0.126 OA 
HETATM   15  P   UNL     1     -12.132  12.791  63.985  1.00  0.00    -0.498 P  
HETATM   16  O   UNL     1     -12.580  13.949  63.059  1.00  0.00    -0.694 OA 
HETATM   17  O   UNL     1     -11.092  12.153  62.889  1.00  0.00    -0.105 OA 
HETATM   18  O   UNL     1     -13.365  11.788  63.564  1.00  0.00    -0.518 OA 
ENDBRANCH  11  14
ENDBRANCH  10  11
ENDBRANCH   5  10
BRANCH   8  19
HETATM   19  C   UNL     1      -9.894  16.103  69.797  1.00  0.00    -0.057 C  
BRANCH  19  20
HETATM   20  O   UNL     1     -11.280  15.833  69.897  1.00  0.00    -0.277 OA 
HETATM   21  P   UNL     1     -11.923  15.702  71.344  1.00  0.00    -0.510 P  
HETATM   22  O   UNL     1     -13.479  15.731  70.992  1.00  0.00    -0.581 OA 
HETATM   23  O   UNL     1     -11.467  14.556  72.170  1.00  0.00     0.078 OA 
HETATM   24  O   UNL     1     -11.726  17.170  71.936  1.00  0.00     0.330 OA 
ENDBRANCH  19  20
ENDBRANCH   8  19
TORSDOF 5
ENDMDL
MODEL      211
REMARK 921   NORMALIZED FREE ENERGY PREDICTED BY IDOCK:   -3.53 KCAL/MOL
REMARK 922        TOTAL FREE ENERGY PREDICTED BY IDOCK:   -5.27 KCAL/MOL
REMARK 923 INTER-LIGAND FREE ENERGY PREDICTED BY IDOCK:   -4.46 KCAL/MOL
REMARK 924 INTRA-LIGAND FREE ENERGY PREDICTED BY IDOCK:   -0.81 KCAL/MOL
REMARK 927      BINDING AFFINITY PREDICTED BY RF-SCORE:    0.00 PKD
ROOT
HETATM    1  O   UNL     1     -12.367   7.495  70.347  1.00  0.00    -0.511 OA 
HETATM    2  H   UNL     1     -12.359   6.664  70.809  1.00  0.00     0.000 HD 
HETATM    3  C   UNL     1     -11.156   7.723  69.633  1.00  0.00    -0.042 C  
HETATM    4  C   UNL     1     -11.168   9.050  68.896  1.00  0.00     0.295 C  
HETATM    5  C   UNL     1      -9.654   9.259  68.653  1.00  0.00    -0.147 C  
HETATM    6  O   UNL     1     -11.738  10.057  69.758  1.00  0.00    -0.405 OA 
HETATM    7  O   UNL     1      -9.009   8.732  69.827  1.00  0.00    -0.140 OA 
HETATM    8  C   UNL     1      -9.971   7.935  70.557  1.00  0.00    -0.191 C  
HETATM    9  H   UNL     1     -11.746  10.888  69.297  1.00  0.00     0.000 HD 
ENDROOT
BRANCH   5  10
HETATM   10  O   UNL     1      -9.423  10.628  68.413  1.00  0.00    -0.153 OA 
BRANCH  10  11
HETATM   11  P   UNL     1      -9.677  11.423  66.899  1.00  0.00    -0.199 P  
HETATM   12  O   UNL     1      -8.305  12.285  67.110  1.00  0.00    -0.173 OA 
HETATM   13  O   UNL     1      -9.274  10.136  66.166  1.00  0.00    -0.151 OA 
BRANCH  11  14
HETATM   14  O   UNL     1      -9.930  12.218  65.383  1.00  0.00    -0.262 OA 
HETATM   15  P   UNL     1     -11.550  12.819  65.310  1.00  0.00    -0.386 P  
HETATM   16  O   UNL     1     -13.001  13.356  65.246  1.00  0.00    -0.681 OA 
HETATM   17  O   UNL     1     -10.946  14.180  66.001  1.00  0.00    -0.298 OA 
HETATM   18  O   UNL     1     -11.157  13.288  63.784  1.00  0.00    -0.320 OA 
ENDBRANCH  11  14
ENDBRANCH  10  11
ENDBRANCH   5  10
BRANCH   8  19
HETATM   19  C   UNL     1      -9.337   6.619  71.003  1.00  0.00    -0.160 C  
BRANCH  19  20
HETATM   20  O   UNL     1      -9.762   5.629  70.085  1.00  0.00    -0.159 OA 
HETATM   21  P   UNL     1      -8.657   4.764  69.340  1.00  0.00    -0.084 P  
HETATM   22  O   UNL     1      -9.553   3.612  68.695  1.00  0.00    -0.161 OA 
HETATM   23  O   UNL     1      -7.767   5.493  68.402  1.00  0.00    -0.083 OA 
HETATM   24  O   UNL     1      -7.979   3.971  70.546  1.00  0.00    -0.054 OA 
ENDBRANCH  19  20
ENDBRANCH   8  19
TORSDOF 5
ENDMDL
MODEL      212
REMARK 921   NORMALIZED FREE ENERGY PREDICTED BY IDOCK:   -3.53 KCAL/MOL
REMARK 922        TOTAL FREE ENERGY PREDICTED BY IDOCK:   -5.26 KCAL/MOL
REMARK 923 INTER-LIGAND FREE ENERGY PREDICTED BY IDOCK:   -4.33 KCAL/MOL
REMARK 924 INTRA-LIGAND FREE ENERGY PREDICTED BY IDOCK:   -0.94 KCAL/MOL
REMARK 927      BINDING AFFINITY PREDICTED BY RF-SCORE:    0.00 PKD
ROOT
HETATM    1  O   UNL     1      -5.758  10.220  67.327  1.00  0.00    -0.045 OA 
HETATM    2  H   UNL     1      -5.619  11.139  67.129  1.00  0.00     0.000 HD 
HETATM    3  C   UNL     1      -6.955   9.720  66.738  1.00  0.00    -0.085 C  
HETATM    4  C   UNL     1      -7.178   8.252  67.056  1.00  0.00    -0.083 C  
HETATM    5  C   UNL     1      -8.689   8.117  66.753  1.00  0.00    -0.135 C  
HETATM    6  O   UNL     1      -6.865   8.021  68.445  1.00  0.00    -0.064 OA 
HETATM    7  O   UNL     1      -9.268   9.366  67.172  1.00  0.00    -0.132 OA 
HETATM    8  C   UNL     1      -8.201  10.325  67.360  1.00  0.00    -0.114 C  
HETATM    9  H   UNL     1      -7.004   7.103  68.644  1.00  0.00     0.000 HD 
ENDROOT
BRANCH   5  10
HETATM   10  O   UNL     1      -9.181   6.980  67.424  1.00  0.00    -0.124 OA 
BRANCH  10  11
HETATM   11  P   UNL     1     -10.338   7.015  68.709  1.00  0.00    -0.196 P  
HETATM   12  O   UNL     1     -10.715   5.451  68.425  1.00  0.00    -0.138 OA 
HETATM   13  O   UNL     1      -9.192   7.009  69.729  1.00  0.00    -0.148 OA 
BRANCH  11  14
HETATM   14  O   UNL     1     -11.496   7.048  69.994  1.00  0.00    -0.269 OA 
HETATM   15  P   UNL     1     -10.779   7.760  71.398  1.00  0.00    -0.229 P  
HETATM   16  O   UNL     1     -10.135   8.397  72.655  1.00  0.00    -0.292 OA 
HETATM   17  O   UNL     1     -11.308   9.191  70.792  1.00  0.00    -0.258 OA 
HETATM   18  O   UNL     1     -12.210   7.415  72.130  1.00  0.00    -0.285 OA 
ENDBRANCH  11  14
ENDBRANCH  10  11
ENDBRANCH   5  10
BRANCH   8  19
HETATM   19  C   UNL     1      -8.574  11.664  66.729  1.00  0.00    -0.180 C  
BRANCH  19  20
HETATM   20  O   UNL     1      -9.938  11.892  67.031  1.00  0.00    -0.200 OA 
HETATM   21  P   UNL     1     -10.715  13.016  66.219  1.00  0.00    -0.284 P  
HETATM   22  O   UNL     1     -12.224  12.707  66.635  1.00  0.00    -0.517 OA 
HETATM   23  O   UNL     1     -10.260  14.414  66.424  1.00  0.00    -0.274 OA 
HETATM   24  O   UNL     1     -10.692  12.436  64.733  1.00  0.00    -0.276 OA 
ENDBRANCH  19  20
ENDBRANCH   8  19
TORSDOF 5
ENDMDL
MODEL      213
REMARK 921   NORMALIZED FREE ENERGY PREDICTED BY IDOCK:   -3.53 KCAL/MOL
REMARK 922        TOTAL FREE ENERGY PREDICTED BY IDOCK:   -5.26 KCAL/MOL
REMARK 923 INTER-LIGAND FREE ENERGY PREDICTED BY IDOCK:   -5.20 KCAL/MOL
REMARK 924 INTRA-LIGAND FREE ENERGY PREDICTED BY IDOCK:   -0.06 KCAL/MOL
REMARK 927      BINDING AFFINITY PREDICTED BY RF-SCORE:    0.00 PKD
ROOT
HETATM    1  O   UNL     1     -12.866  16.205  71.216  1.00  0.00    -0.541 OA 
HETATM    2  H   UNL     1     -12.688  17.138  71.187  1.00  0.00     0.000 HD 
HETATM    3  C   UNL     1     -11.829  15.441  70.608  1.00  0.00    -0.351 C  
HETATM    4  C   UNL     1     -12.113  13.951  70.655  1.00  0.00    -0.347 C  
HETATM    5  C   UNL     1     -11.156  13.439  69.553  1.00  0.00    -0.040 C  
HETATM    6  O   UNL     1     -13.502  13.730  70.333  1.00  0.00     0.043 OA 
HETATM    7  O   UNL     1     -11.166  14.464  68.542  1.00  0.00    -0.243 OA 
HETATM    8  C   UNL     1     -11.756  15.657  69.107  1.00  0.00    -0.390 C  
HETATM    9  H   UNL     1     -13.680  12.797  70.363  1.00  0.00     0.000 HD 
ENDROOT
BRANCH   5  10
HETATM   10  O   UNL     1     -11.604  12.175  69.121  1.00  0.00    -0.273 OA 
BRANCH  10  11
HETATM   11  P   UNL     1     -10.619  10.996  68.327  1.00  0.00    -0.223 P  
HETATM   12  O   UNL     1     -11.307   9.809  69.215  1.00  0.00    -0.144 OA 
HETATM   13  O   UNL     1     -11.475  11.146  67.062  1.00  0.00    -0.442 OA 
BRANCH  11  14
HETATM   14  O   UNL     1      -9.634   9.815  67.534  1.00  0.00    -0.145 OA 
HETATM   15  P   UNL     1      -9.889   8.267  68.263  1.00  0.00    -0.183 P  
HETATM   16  O   UNL     1     -10.117   6.882  68.917  1.00  0.00    -0.160 OA 
HETATM   17  O   UNL     1     -11.102   8.089  67.172  1.00  0.00    -0.054 OA 
HETATM   18  O   UNL     1      -8.728   7.744  67.223  1.00  0.00    -0.126 OA 
ENDBRANCH  11  14
ENDBRANCH  10  11
ENDBRANCH   5  10
BRANCH   8  19
HETATM   19  C   UNL     1     -10.928  16.885  68.736  1.00  0.00    -0.234 C  
BRANCH  19  20
HETATM   20  O   UNL     1     -10.486  16.693  67.405  1.00  0.00    -0.309 OA 
HETATM   21  P   UNL     1      -8.971  17.019  67.056  1.00  0.00    -0.239 P  
HETATM   22  O   UNL     1      -8.845  16.370  65.604  1.00  0.00    -0.406 OA 
HETATM   23  O   UNL     1      -8.557  18.440  67.168  1.00  0.00    -0.253 OA 
HETATM   24  O   UNL     1      -8.184  15.943  67.931  1.00  0.00    -0.142 OA 
ENDBRANCH  19  20
ENDBRANCH   8  19
TORSDOF 5
ENDMDL
MODEL      214
REMARK 921   NORMALIZED FREE ENERGY PREDICTED BY IDOCK:   -3.48 KCAL/MOL
REMARK 922        TOTAL FREE ENERGY PREDICTED BY IDOCK:   -5.20 KCAL/MOL
REMARK 923 INTER-LIGAND FREE ENERGY PREDICTED BY IDOCK:   -4.67 KCAL/MOL
REMARK 924 INTRA-LIGAND FREE ENERGY PREDICTED BY IDOCK:   -0.53 KCAL/MOL
REMARK 927      BINDING AFFINITY PREDICTED BY RF-SCORE:    0.00 PKD
ROOT
HETATM    1  O   UNL     1      -7.143   9.251  67.436  1.00  0.00    -0.078 OA 
HETATM    2  H   UNL     1      -7.616   8.548  67.867  1.00  0.00     0.000 HD 
HETATM    3  C   UNL     1      -7.315  10.499  68.100  1.00  0.00    -0.088 C  
HETATM    4  C   UNL     1      -6.560  11.622  67.412  1.00  0.00    -0.106 C  
HETATM    5  C   UNL     1      -7.286  12.858  67.994  1.00  0.00    -0.115 C  
HETATM    6  O   UNL     1      -6.732  11.494  65.985  1.00  0.00    -0.364 OA 
HETATM    7  O   UNL     1      -8.663  12.460  68.117  1.00  0.00    -0.179 OA 
HETATM    8  C   UNL     1      -8.737  11.021  67.991  1.00  0.00    -0.138 C  
HETATM    9  H   UNL     1      -6.259  12.197  65.554  1.00  0.00     0.000 HD 
ENDROOT
BRANCH   5  10
HETATM   10  O   UNL     1      -7.059  13.955  67.139  1.00  0.00    -0.093 OA 
BRANCH  10  11
HETATM   11  P   UNL     1      -7.985  15.415  67.139  1.00  0.00    -0.195 P  
HETATM   12  O   UNL     1      -7.911  15.474  68.770  1.00  0.00    -0.138 OA 
HETATM   13  O   UNL     1      -6.760  16.181  66.619  1.00  0.00    -0.249 OA 
BRANCH  11  14
HETATM   14  O   UNL     1      -8.911  16.877  67.139  1.00  0.00    -0.198 OA 
HETATM   15  P   UNL     1     -10.093  16.811  65.879  1.00  0.00    -0.200 P  
HETATM   16  O   UNL     1     -11.151  16.751  64.749  1.00  0.00    -0.678 OA 
HETATM   17  O   UNL     1     -11.068  16.112  66.998  1.00  0.00    -0.189 OA 
HETATM   18  O   UNL     1     -10.470  18.342  66.346  1.00  0.00    -0.384 OA 
ENDBRANCH  11  14
ENDBRANCH  10  11
ENDBRANCH   5  10
BRANCH   8  19
HETATM   19  C   UNL     1      -9.653  10.441  69.066  1.00  0.00    -0.204 C  
BRANCH  19  20
HETATM   20  O   UNL     1      -9.247   9.100  69.270  1.00  0.00    -0.141 OA 
HETATM   21  P   UNL     1      -8.783   8.663  70.726  1.00  0.00    -0.211 P  
HETATM   22  O   UNL     1      -8.742   7.076  70.570  1.00  0.00    -0.150 OA 
HETATM   23  O   UNL     1      -7.543   9.295  71.243  1.00  0.00    -0.306 OA 
HETATM   24  O   UNL     1     -10.120   8.844  71.575  1.00  0.00    -0.267 OA 
ENDBRANCH  19  20
ENDBRANCH   8  19
TORSDOF 5
ENDMDL
MODEL      215
REMARK 921   NORMALIZED FREE ENERGY PREDICTED BY IDOCK:   -3.48 KCAL/MOL
REMARK 922        TOTAL FREE ENERGY PREDICTED BY IDOCK:   -5.20 KCAL/MOL
REMARK 923 INTER-LIGAND FREE ENERGY PREDICTED BY IDOCK:   -4.40 KCAL/MOL
REMARK 924 INTRA-LIGAND FREE ENERGY PREDICTED BY IDOCK:   -0.80 KCAL/MOL
REMARK 927      BINDING AFFINITY PREDICTED BY RF-SCORE:    0.00 PKD
ROOT
HETATM    1  O   UNL     1     -10.013   9.301  65.306  1.00  0.00    -0.424 OA 
HETATM    2  H   UNL     1      -9.698   8.831  64.542  1.00  0.00     0.000 HD 
HETATM    3  C   UNL     1      -9.022   9.393  66.324  1.00  0.00    -0.156 C  
HETATM    4  C   UNL     1      -9.524  10.144  67.545  1.00  0.00    -0.152 C  
HETATM    5  C   UNL     1      -8.504   9.679  68.610  1.00  0.00    -0.119 C  
HETATM    6  O   UNL     1     -10.870   9.713  67.836  1.00  0.00    -0.354 OA 
HETATM    7  O   UNL     1      -8.219   8.306  68.284  1.00  0.00    -0.125 OA 
HETATM    8  C   UNL     1      -8.704   8.045  66.946  1.00  0.00    -0.130 C  
HETATM    9  H   UNL     1     -11.185  10.183  68.600  1.00  0.00     0.000 HD 
ENDROOT
BRANCH   5  10
HETATM   10  O   UNL     1      -9.065   9.881  69.887  1.00  0.00    -0.218 OA 
BRANCH  10  11
HETATM   11  P   UNL     1      -9.527   8.618  70.974  1.00  0.00    -0.252 P  
HETATM   12  O   UNL     1      -8.259   8.973  71.942  1.00  0.00    -0.362 OA 
HETATM   13  O   UNL     1     -10.701   9.479  71.461  1.00  0.00    -0.340 OA 
BRANCH  11  14
HETATM   14  O   UNL     1      -9.989   7.355  72.063  1.00  0.00    -0.165 OA 
HETATM   15  P   UNL     1     -11.694   7.088  71.946  1.00  0.00    -0.320 P  
HETATM   16  O   UNL     1     -13.221   6.850  71.841  1.00  0.00    -0.307 OA 
HETATM   17  O   UNL     1     -11.322   6.021  70.757  1.00  0.00    -0.301 OA 
HETATM   18  O   UNL     1     -11.462   5.995  73.152  1.00  0.00    -0.146 OA 
ENDBRANCH  11  14
ENDBRANCH  10  11
ENDBRANCH   5  10
BRANCH   8  19
HETATM   19  C   UNL     1      -7.661   7.268  66.147  1.00  0.00    -0.088 C  
BRANCH  19  20
HETATM   20  O   UNL     1      -8.333   6.705  65.035  1.00  0.00    -0.133 OA 
HETATM   21  P   UNL     1      -7.495   6.399  63.720  1.00  0.00    -0.096 P  
HETATM   22  O   UNL     1      -8.533   5.510  62.896  1.00  0.00    -0.114 OA 
HETATM   23  O   UNL     1      -6.936   7.572  63.003  1.00  0.00    -0.064 OA 
HETATM   24  O   UNL     1      -6.477   5.279  64.221  1.00  0.00    -0.035 OA 
ENDBRANCH  19  20
ENDBRANCH   8  19
TORSDOF 5
ENDMDL
MODEL      216
REMARK 921   NORMALIZED FREE ENERGY PREDICTED BY IDOCK:   -3.45 KCAL/MOL
REMARK 922        TOTAL FREE ENERGY PREDICTED BY IDOCK:   -5.16 KCAL/MOL
REMARK 923 INTER-LIGAND FREE ENERGY PREDICTED BY IDOCK:   -5.36 KCAL/MOL
REMARK 924 INTRA-LIGAND FREE ENERGY PREDICTED BY IDOCK:    0.20 KCAL/MOL
REMARK 927      BINDING AFFINITY PREDICTED BY RF-SCORE:    0.00 PKD
ROOT
HETATM    1  O   UNL     1      -8.045   9.768  69.359  1.00  0.00    -0.104 OA 
HETATM    2  H   UNL     1      -8.486   9.135  69.913  1.00  0.00     0.000 HD 
HETATM    3  C   UNL     1      -8.706  11.030  69.355  1.00  0.00     0.220 C  
HETATM    4  C   UNL     1      -8.002  12.041  68.468  1.00  0.00    -0.132 C  
HETATM    5  C   UNL     1      -9.132  13.077  68.258  1.00  0.00    -0.179 C  
HETATM    6  O   UNL     1      -7.606  11.392  67.242  1.00  0.00    -0.122 OA 
HETATM    7  O   UNL     1     -10.342  12.302  68.186  1.00  0.00    -0.203 OA 
HETATM    8  C   UNL     1     -10.062  10.970  68.676  1.00  0.00    -0.197 C  
HETATM    9  H   UNL     1      -7.165  12.025  66.688  1.00  0.00     0.000 HD 
ENDROOT
BRANCH   5  10
HETATM   10  O   UNL     1      -8.840  13.831  67.105  1.00  0.00    -0.215 OA 
BRANCH  10  11
HETATM   11  P   UNL     1     -10.023  14.546  66.066  1.00  0.00    -0.328 P  
HETATM   12  O   UNL     1     -10.340  13.086  65.405  1.00  0.00    -0.291 OA 
HETATM   13  O   UNL     1     -10.971  14.697  67.264  1.00  0.00    -0.300 OA 
BRANCH  11  14
HETATM   14  O   UNL     1     -11.208  15.260  65.026  1.00  0.00    -0.384 OA 
HETATM   15  P   UNL     1     -12.059  14.014  64.181  1.00  0.00    -0.234 P  
HETATM   16  O   UNL     1     -12.822  12.898  63.424  1.00  0.00    -0.650 OA 
HETATM   17  O   UNL     1     -13.084  14.016  65.462  1.00  0.00    -0.713 OA 
HETATM   18  O   UNL     1     -12.831  15.253  63.423  1.00  0.00     0.019 OA 
ENDBRANCH  11  14
ENDBRANCH  10  11
ENDBRANCH   5  10
BRANCH   8  19
HETATM   19  C   UNL     1     -11.168  10.511  69.624  1.00  0.00    -0.282 C  
BRANCH  19  20
HETATM   20  O   UNL     1     -10.530   9.900  70.730  1.00  0.00    -0.290 OA 
HETATM   21  P   UNL     1     -11.010   8.452  71.174  1.00  0.00    -0.271 P  
HETATM   22  O   UNL     1      -9.849   8.043  72.190  1.00  0.00    -0.187 OA 
HETATM   23  O   UNL     1     -12.395   8.345  71.697  1.00  0.00    -0.295 OA 
HETATM   24  O   UNL     1     -10.622   7.564  69.908  1.00  0.00    -0.228 OA 
ENDBRANCH  19  20
ENDBRANCH   8  19
TORSDOF 5
ENDMDL
MODEL      217
REMARK 921   NORMALIZED FREE ENERGY PREDICTED BY IDOCK:   -3.42 KCAL/MOL
REMARK 922        TOTAL FREE ENERGY PREDICTED BY IDOCK:   -5.12 KCAL/MOL
REMARK 923 INTER-LIGAND FREE ENERGY PREDICTED BY IDOCK:   -4.58 KCAL/MOL
REMARK 924 INTRA-LIGAND FREE ENERGY PREDICTED BY IDOCK:   -0.54 KCAL/MOL
REMARK 927      BINDING AFFINITY PREDICTED BY RF-SCORE:    0.00 PKD
ROOT
HETATM    1  O   UNL     1      -9.890  10.472  64.646  1.00  0.00    -0.288 OA 
HETATM    2  H   UNL     1      -9.884  11.382  64.372  1.00  0.00     0.000 HD 
HETATM    3  C   UNL     1     -10.244  10.328  66.018  1.00  0.00    -0.228 C  
HETATM    4  C   UNL     1     -10.254   8.874  66.457  1.00  0.00    -0.249 C  
HETATM    5  C   UNL     1     -10.168   9.035  67.993  1.00  0.00    -0.212 C  
HETATM    6  O   UNL     1      -9.099   8.211  65.900  1.00  0.00    -0.244 OA 
HETATM    7  O   UNL     1      -9.314  10.174  68.204  1.00  0.00    -0.134 OA 
HETATM    8  C   UNL     1      -9.184  10.886  66.951  1.00  0.00    -0.161 C  
HETATM    9  H   UNL     1      -9.105   7.301  66.174  1.00  0.00     0.000 HD 
ENDROOT
BRANCH   5  10
HETATM   10  O   UNL     1      -9.694   7.828  68.545  1.00  0.00    -0.154 OA 
BRANCH  10  11
HETATM   11  P   UNL     1     -10.551   6.863  69.695  1.00  0.00    -0.256 P  
HETATM   12  O   UNL     1     -11.082   5.888  68.497  1.00  0.00    -0.274 OA 
HETATM   13  O   UNL     1      -9.219   6.273  70.179  1.00  0.00    -0.154 OA 
BRANCH  11  14
HETATM   14  O   UNL     1     -11.409   5.897  70.846  1.00  0.00    -0.270 OA 
HETATM   15  P   UNL     1     -11.112   6.499  72.440  1.00  0.00    -0.277 P  
HETATM   16  O   UNL     1     -10.846   7.039  73.867  1.00  0.00    -0.237 OA 
HETATM   17  O   UNL     1     -12.412   7.468  72.183  1.00  0.00    -0.274 OA 
HETATM   18  O   UNL     1     -12.024   5.224  72.937  1.00  0.00    -0.227 OA 
ENDBRANCH  11  14
ENDBRANCH  10  11
ENDBRANCH   5  10
BRANCH   8  19
HETATM   19  C   UNL     1      -9.341  12.388  67.176  1.00  0.00    -0.199 C  
BRANCH  19  20
HETATM   20  O   UNL     1      -8.558  12.716  68.309  1.00  0.00    -0.178 OA 
HETATM   21  P   UNL     1      -7.209  13.525  68.088  1.00  0.00    -0.158 P  
HETATM   22  O   UNL     1      -6.852  13.940  69.587  1.00  0.00    -0.087 OA 
HETATM   23  O   UNL     1      -6.135  12.829  67.336  1.00  0.00    -0.158 OA 
HETATM   24  O   UNL     1      -7.739  14.915  67.514  1.00  0.00    -0.160 OA 
ENDBRANCH  19  20
ENDBRANCH   8  19
TORSDOF 5
ENDMDL
MODEL      218
REMARK 921   NORMALIZED FREE ENERGY PREDICTED BY IDOCK:   -3.41 KCAL/MOL
REMARK 922        TOTAL FREE ENERGY PREDICTED BY IDOCK:   -5.11 KCAL/MOL
REMARK 923 INTER-LIGAND FREE ENERGY PREDICTED BY IDOCK:   -4.26 KCAL/MOL
REMARK 924 INTRA-LIGAND FREE ENERGY PREDICTED BY IDOCK:   -0.85 KCAL/MOL
REMARK 927      BINDING AFFINITY PREDICTED BY RF-SCORE:    0.00 PKD
ROOT
HETATM    1  O   UNL     1      -8.922  11.788  65.218  1.00  0.00    -0.414 OA 
HETATM    2  H   UNL     1      -8.635  12.693  65.257  1.00  0.00     0.000 HD 
HETATM    3  C   UNL     1      -9.818  11.463  66.277  1.00  0.00    -0.218 C  
HETATM    4  C   UNL     1     -10.277  10.017  66.215  1.00  0.00    -0.215 C  
HETATM    5  C   UNL     1     -10.786   9.813  67.662  1.00  0.00    -0.274 C  
HETATM    6  O   UNL     1      -9.144   9.181  65.899  1.00  0.00    -0.175 OA 
HETATM    7  O   UNL     1      -9.889  10.580  68.486  1.00  0.00    -0.156 OA 
HETATM    8  C   UNL     1      -9.136  11.474  67.634  1.00  0.00    -0.168 C  
HETATM    9  H   UNL     1      -9.432   8.276  65.859  1.00  0.00     0.000 HD 
ENDROOT
BRANCH   5  10
HETATM   10  O   UNL     1     -10.810   8.432  67.938  1.00  0.00    -0.118 OA 
BRANCH  10  11
HETATM   11  P   UNL     1      -9.852   7.648  69.145  1.00  0.00    -0.179 P  
HETATM   12  O   UNL     1     -11.190   7.368  70.040  1.00  0.00    -0.251 OA 
HETATM   13  O   UNL     1      -9.688   6.437  68.215  1.00  0.00    -0.126 OA 
BRANCH  11  14
HETATM   14  O   UNL     1      -8.893   6.863  70.353  1.00  0.00    -0.149 OA 
HETATM   15  P   UNL     1      -7.792   5.767  69.593  1.00  0.00    -0.098 P  
HETATM   16  O   UNL     1      -6.806   4.786  68.912  1.00  0.00    -0.048 OA 
HETATM   17  O   UNL     1      -6.767   7.047  69.513  1.00  0.00    -0.046 OA 
HETATM   18  O   UNL     1      -7.352   5.370  71.126  1.00  0.00    -0.078 OA 
ENDBRANCH  11  14
ENDBRANCH  10  11
ENDBRANCH   5  10
BRANCH   8  19
HETATM   19  C   UNL     1      -9.083  12.871  68.247  1.00  0.00    -0.180 C  
BRANCH  19  20
HETATM   20  O   UNL     1      -9.694  13.749  67.319  1.00  0.00    -0.231 OA 
HETATM   21  P   UNL     1     -10.885  14.672  67.823  1.00  0.00    -0.284 P  
HETATM   22  O   UNL     1     -11.032  15.679  66.594  1.00  0.00    -0.299 OA 
HETATM   23  O   UNL     1     -12.128  13.979  68.244  1.00  0.00    -0.355 OA 
HETATM   24  O   UNL     1     -10.158  15.609  68.889  1.00  0.00    -0.200 OA 
ENDBRANCH  19  20
ENDBRANCH   8  19
TORSDOF 5
ENDMDL
MODEL      219
REMARK 921   NORMALIZED FREE ENERGY PREDICTED BY IDOCK:   -3.35 KCAL/MOL
REMARK 922        TOTAL FREE ENERGY PREDICTED BY IDOCK:   -5.03 KCAL/MOL
REMARK 923 INTER-LIGAND FREE ENERGY PREDICTED BY IDOCK:   -4.33 KCAL/MOL
REMARK 924 INTRA-LIGAND FREE ENERGY PREDICTED BY IDOCK:   -0.70 KCAL/MOL
REMARK 927      BINDING AFFINITY PREDICTED BY RF-SCORE:    0.00 PKD
ROOT
HETATM    1  O   UNL     1     -12.403   7.996  73.053  1.00  0.00    -0.657 OA 
HETATM    2  H   UNL     1     -12.124   7.973  73.960  1.00  0.00     0.000 HD 
HETATM    3  C   UNL     1     -11.414   7.471  72.173  1.00  0.00    -0.291 C  
HETATM    4  C   UNL     1     -11.859   7.509  70.723  1.00  0.00    -0.228 C  
HETATM    5  C   UNL     1     -10.498   7.373  69.999  1.00  0.00    -0.226 C  
HETATM    6  O   UNL     1     -12.504   8.774  70.465  1.00  0.00    -0.472 OA 
HETATM    7  O   UNL     1      -9.565   8.104  70.815  1.00  0.00    -0.163 OA 
HETATM    8  C   UNL     1     -10.178   8.350  72.102  1.00  0.00    -0.320 C  
HETATM    9  H   UNL     1     -12.783   8.798  69.557  1.00  0.00     0.000 HD 
ENDROOT
BRANCH   5  10
HETATM   10  O   UNL     1     -10.640   7.856  68.683  1.00  0.00    -0.190 OA 
BRANCH  10  11
HETATM   11  P   UNL     1      -9.364   8.540  67.738  1.00  0.00    -0.140 P  
HETATM   12  O   UNL     1      -9.716   7.524  66.508  1.00  0.00    -0.203 OA 
HETATM   13  O   UNL     1     -10.213   9.800  67.520  1.00  0.00    -0.191 OA 
BRANCH  11  14
HETATM   14  O   UNL     1      -8.087   9.225  66.792  1.00  0.00    -0.110 OA 
HETATM   15  P   UNL     1      -7.857  10.879  67.244  1.00  0.00    -0.125 P  
HETATM   16  O   UNL     1      -7.653  12.360  67.649  1.00  0.00    -0.118 OA 
HETATM   17  O   UNL     1      -6.808  10.299  68.365  1.00  0.00    -0.060 OA 
HETATM   18  O   UNL     1      -6.733  10.902  66.044  1.00  0.00    -0.125 OA 
ENDBRANCH  11  14
ENDBRANCH  10  11
ENDBRANCH   5  10
BRANCH   8  19
HETATM   19  C   UNL     1      -9.188   8.053  73.226  1.00  0.00    -0.278 C  
BRANCH  19  20
HETATM   20  O   UNL     1      -8.202   7.193  72.686  1.00  0.00    -0.106 OA 
HETATM   21  P   UNL     1      -7.218   6.447  73.686  1.00  0.00    -0.081 P  
HETATM   22  O   UNL     1      -6.536   5.385  72.710  1.00  0.00    -0.059 OA 
HETATM   23  O   UNL     1      -6.288   7.305  74.462  1.00  0.00    -0.082 OA 
HETATM   24  O   UNL     1      -8.215   5.505  74.500  1.00  0.00    -0.106 OA 
ENDBRANCH  19  20
ENDBRANCH   8  19
TORSDOF 5
ENDMDL
MODEL      220
REMARK 921   NORMALIZED FREE ENERGY PREDICTED BY IDOCK:   -3.33 KCAL/MOL
REMARK 922        TOTAL FREE ENERGY PREDICTED BY IDOCK:   -5.01 KCAL/MOL
REMARK 923 INTER-LIGAND FREE ENERGY PREDICTED BY IDOCK:   -4.30 KCAL/MOL
REMARK 924 INTRA-LIGAND FREE ENERGY PREDICTED BY IDOCK:   -0.71 KCAL/MOL
REMARK 927      BINDING AFFINITY PREDICTED BY RF-SCORE:    0.00 PKD
ROOT
HETATM    1  O   UNL     1      -7.046   7.730  71.721  1.00  0.00    -0.060 OA 
HETATM    2  H   UNL     1      -7.377   7.074  72.323  1.00  0.00     0.000 HD 
HETATM    3  C   UNL     1      -8.094   8.406  71.034  1.00  0.00    -0.119 C  
HETATM    4  C   UNL     1      -7.565   9.455  70.072  1.00  0.00    -0.113 C  
HETATM    5  C   UNL     1      -8.796   9.652  69.154  1.00  0.00    -0.157 C  
HETATM    6  O   UNL     1      -6.427   8.913  69.370  1.00  0.00    -0.043 OA 
HETATM    7  O   UNL     1      -9.390   8.346  69.038  1.00  0.00    -0.147 OA 
HETATM    8  C   UNL     1      -8.830   7.496  70.066  1.00  0.00    -0.144 C  
HETATM    9  H   UNL     1      -6.096   9.570  68.768  1.00  0.00     0.000 HD 
ENDROOT
BRANCH   5  10
HETATM   10  O   UNL     1      -8.362  10.217  67.939  1.00  0.00    -0.113 OA 
BRANCH  10  11
HETATM   11  P   UNL     1      -9.013  11.654  67.230  1.00  0.00    -0.181 P  
HETATM   12  O   UNL     1      -8.241  12.566  68.344  1.00  0.00    -0.161 OA 
HETATM   13  O   UNL     1      -8.045  11.498  66.048  1.00  0.00    -0.032 OA 
BRANCH  11  14
HETATM   14  O   UNL     1      -9.663  13.092  66.521  1.00  0.00    -0.257 OA 
HETATM   15  P   UNL     1     -11.151  12.719  65.721  1.00  0.00    -0.308 P  
HETATM   16  O   UNL     1     -12.483  12.384  65.005  1.00  0.00    -0.549 OA 
HETATM   17  O   UNL     1     -11.863  13.028  67.167  1.00  0.00    -0.368 OA 
HETATM   18  O   UNL     1     -11.138  14.299  65.266  1.00  0.00    -0.307 OA 
ENDBRANCH  11  14
ENDBRANCH  10  11
ENDBRANCH   5  10
BRANCH   8  19
HETATM   19  C   UNL     1      -9.936   6.693  70.749  1.00  0.00    -0.184 C  
BRANCH  19  20
HETATM   20  O   UNL     1      -9.424   6.275  72.000  1.00  0.00    -0.153 OA 
HETATM   21  P   UNL     1     -10.415   6.212  73.240  1.00  0.00    -0.272 P  
HETATM   22  O   UNL     1      -9.531   5.410  74.299  1.00  0.00    -0.131 OA 
HETATM   23  O   UNL     1     -10.971   7.506  73.709  1.00  0.00    -0.266 OA 
HETATM   24  O   UNL     1     -11.444   5.078  72.793  1.00  0.00    -0.239 OA 
ENDBRANCH  19  20
ENDBRANCH   8  19
TORSDOF 5
ENDMDL
MODEL      221
REMARK 921   NORMALIZED FREE ENERGY PREDICTED BY IDOCK:   -3.33 KCAL/MOL
REMARK 922        TOTAL FREE ENERGY PREDICTED BY IDOCK:   -5.01 KCAL/MOL
REMARK 923 INTER-LIGAND FREE ENERGY PREDICTED BY IDOCK:   -4.22 KCAL/MOL
REMARK 924 INTRA-LIGAND FREE ENERGY PREDICTED BY IDOCK:   -0.79 KCAL/MOL
REMARK 927      BINDING AFFINITY PREDICTED BY RF-SCORE:    0.00 PKD
ROOT
HETATM    1  O   UNL     1      -7.204  10.170  69.357  1.00  0.00    -0.072 OA 
HETATM    2  H   UNL     1      -7.156   9.467  69.994  1.00  0.00     0.000 HD 
HETATM    3  C   UNL     1      -8.440  10.875  69.429  1.00  0.00     0.091 C  
HETATM    4  C   UNL     1      -8.519  11.998  68.411  1.00  0.00    -0.147 C  
HETATM    5  C   UNL     1     -10.046  12.239  68.364  1.00  0.00    -0.215 C  
HETATM    6  O   UNL     1      -7.989  11.527  67.154  1.00  0.00    -0.144 OA 
HETATM    7  O   UNL     1     -10.636  10.935  68.514  1.00  0.00    -0.170 OA 
HETATM    8  C   UNL     1      -9.617  10.024  68.986  1.00  0.00    -0.196 C  
HETATM    9  H   UNL     1      -8.038  12.230  66.517  1.00  0.00     0.000 HD 
ENDROOT
BRANCH   5  10
HETATM   10  O   UNL     1     -10.359  12.897  67.158  1.00  0.00    -0.236 OA 
BRANCH  10  11
HETATM   11  P   UNL     1     -10.560  14.606  66.987  1.00  0.00    -0.289 P  
HETATM   12  O   UNL     1     -11.765  14.367  65.910  1.00  0.00    -0.360 OA 
HETATM   13  O   UNL     1     -11.218  14.658  68.373  1.00  0.00    -0.252 OA 
BRANCH  11  14
HETATM   14  O   UNL     1     -10.761  16.316  66.816  1.00  0.00    -0.293 OA 
HETATM   15  P   UNL     1     -10.495  17.083  68.343  1.00  0.00    -0.383 P  
HETATM   16  O   UNL     1     -10.257  17.770  69.710  1.00  0.00     0.076 OA 
HETATM   17  O   UNL     1      -8.918  17.155  67.894  1.00  0.00    -0.223 OA 
HETATM   18  O   UNL     1     -10.896  18.470  67.555  1.00  0.00    -0.422 OA 
ENDBRANCH  11  14
ENDBRANCH  10  11
ENDBRANCH   5  10
BRANCH   8  19
HETATM   19  C   UNL     1     -10.165   9.156  70.117  1.00  0.00    -0.205 C  
BRANCH  19  20
HETATM   20  O   UNL     1      -9.156   8.217  70.438  1.00  0.00    -0.147 OA 
HETATM   21  P   UNL     1      -9.561   6.686  70.569  1.00  0.00    -0.167 P  
HETATM   22  O   UNL     1      -8.125   5.991  70.605  1.00  0.00    -0.111 OA 
HETATM   23  O   UNL     1     -10.477   6.337  71.683  1.00  0.00    -0.208 OA 
HETATM   24  O   UNL     1     -10.025   6.331  69.085  1.00  0.00    -0.142 OA 
ENDBRANCH  19  20
ENDBRANCH   8  19
TORSDOF 5
ENDMDL
MODEL      222
REMARK 921   NORMALIZED FREE ENERGY PREDICTED BY IDOCK:   -3.31 KCAL/MOL
REMARK 922        TOTAL FREE ENERGY PREDICTED BY IDOCK:   -4.98 KCAL/MOL
REMARK 923 INTER-LIGAND FREE ENERGY PREDICTED BY IDOCK:   -4.68 KCAL/MOL
REMARK 924 INTRA-LIGAND FREE ENERGY PREDICTED BY IDOCK:   -0.30 KCAL/MOL
REMARK 927      BINDING AFFINITY PREDICTED BY RF-SCORE:    0.00 PKD
ROOT
HETATM    1  O   UNL     1      -5.727  12.792  68.203  1.00  0.00    -0.067 OA 
HETATM    2  H   UNL     1      -5.837  13.258  67.382  1.00  0.00     0.000 HD 
HETATM    3  C   UNL     1      -6.581  11.657  68.294  1.00  0.00    -0.059 C  
HETATM    4  C   UNL     1      -6.405  10.912  69.605  1.00  0.00    -0.100 C  
HETATM    5  C   UNL     1      -7.718  10.095  69.652  1.00  0.00    -0.163 C  
HETATM    6  O   UNL     1      -6.308  11.873  70.678  1.00  0.00    -0.533 OA 
HETATM    7  O   UNL     1      -8.717  10.957  69.076  1.00  0.00    -0.159 OA 
HETATM    8  C   UNL     1      -8.046  12.042  68.394  1.00  0.00    -0.154 C  
HETATM    9  H   UNL     1      -6.197  11.407  71.498  1.00  0.00     0.000 HD 
ENDROOT
BRANCH   5  10
HETATM   10  O   UNL     1      -7.962   9.714  70.986  1.00  0.00    -0.301 OA 
BRANCH  10  11
HETATM   11  P   UNL     1      -8.855   8.313  71.466  1.00  0.00    -0.205 P  
HETATM   12  O   UNL     1     -10.229   9.195  71.522  1.00  0.00    -0.323 OA 
HETATM   13  O   UNL     1      -8.747   7.765  70.036  1.00  0.00    -0.138 OA 
BRANCH  11  14
HETATM   14  O   UNL     1      -9.749   6.911  71.946  1.00  0.00    -0.162 OA 
HETATM   15  P   UNL     1     -11.441   7.211  71.746  1.00  0.00    -0.296 P  
HETATM   16  O   UNL     1     -12.956   7.480  71.568  1.00  0.00    -0.345 OA 
HETATM   17  O   UNL     1     -11.237   6.642  70.221  1.00  0.00    -0.297 OA 
HETATM   18  O   UNL     1     -11.638   5.713  72.396  1.00  0.00    -0.284 OA 
ENDBRANCH  11  14
ENDBRANCH  10  11
ENDBRANCH   5  10
BRANCH   8  19
HETATM   19  C   UNL     1      -8.680  12.279  67.025  1.00  0.00    -0.199 C  
BRANCH  19  20
HETATM   20  O   UNL     1      -9.550  11.190  66.783  1.00  0.00    -0.186 OA 
HETATM   21  P   UNL     1      -9.257  10.249  65.536  1.00  0.00    -0.230 P  
HETATM   22  O   UNL     1     -10.240   9.028  65.835  1.00  0.00    -0.165 OA 
HETATM   23  O   UNL     1      -9.387  10.871  64.194  1.00  0.00    -0.217 OA 
HETATM   24  O   UNL     1      -7.853   9.602  65.924  1.00  0.00    -0.099 OA 
ENDBRANCH  19  20
ENDBRANCH   8  19
TORSDOF 5
ENDMDL
MODEL      223
REMARK 921   NORMALIZED FREE ENERGY PREDICTED BY IDOCK:   -3.31 KCAL/MOL
REMARK 922        TOTAL FREE ENERGY PREDICTED BY IDOCK:   -4.98 KCAL/MOL
REMARK 923 INTER-LIGAND FREE ENERGY PREDICTED BY IDOCK:   -4.46 KCAL/MOL
REMARK 924 INTRA-LIGAND FREE ENERGY PREDICTED BY IDOCK:   -0.52 KCAL/MOL
REMARK 927      BINDING AFFINITY PREDICTED BY RF-SCORE:    0.00 PKD
ROOT
HETATM    1  O   UNL     1     -10.560  10.854  70.043  1.00  0.00    -0.454 OA 
HETATM    2  H   UNL     1     -10.428  11.728  70.389  1.00  0.00     0.000 HD 
HETATM    3  C   UNL     1      -9.540  10.482  69.121  1.00  0.00    -0.199 C  
HETATM    4  C   UNL     1      -9.752   9.084  68.568  1.00  0.00    -0.159 C  
HETATM    5  C   UNL     1      -8.862   9.137  67.303  1.00  0.00    -0.124 C  
HETATM    6  O   UNL     1     -11.150   8.911  68.258  1.00  0.00    -0.467 OA 
HETATM    7  O   UNL     1      -8.998  10.480  66.804  1.00  0.00    -0.136 OA 
HETATM    8  C   UNL     1      -9.596  11.293  67.839  1.00  0.00    -0.178 C  
HETATM    9  H   UNL     1     -11.283   8.036  67.912  1.00  0.00     0.000 HD 
ENDROOT
BRANCH   5  10
HETATM   10  O   UNL     1      -9.284   8.128  66.415  1.00  0.00    -0.176 OA 
BRANCH  10  11
HETATM   11  P   UNL     1      -8.578   6.553  66.300  1.00  0.00    -0.147 P  
HETATM   12  O   UNL     1      -8.289   6.788  64.709  1.00  0.00    -0.095 OA 
HETATM   13  O   UNL     1      -7.339   7.064  67.047  1.00  0.00    -0.082 OA 
BRANCH  11  14
HETATM   14  O   UNL     1      -7.871   4.978  66.183  1.00  0.00    -0.097 OA 
HETATM   15  P   UNL     1      -8.699   3.895  67.247  1.00  0.00    -0.128 P  
HETATM   16  O   UNL     1      -9.441   2.925  68.200  1.00  0.00    -0.205 OA 
HETATM   17  O   UNL     1      -9.703   3.613  65.979  1.00  0.00    -0.166 OA 
HETATM   18  O   UNL     1      -7.588   2.788  66.755  1.00  0.00    -0.069 OA 
ENDBRANCH  11  14
ENDBRANCH  10  11
ENDBRANCH   5  10
BRANCH   8  19
HETATM   19  C   UNL     1      -8.857  12.624  67.961  1.00  0.00    -0.195 C  
BRANCH  19  20
HETATM   20  O   UNL     1      -9.636  13.589  67.278  1.00  0.00    -0.222 OA 
HETATM   21  P   UNL     1     -10.914  14.185  68.010  1.00  0.00    -0.274 P  
HETATM   22  O   UNL     1     -11.269  15.412  67.054  1.00  0.00    -0.312 OA 
HETATM   23  O   UNL     1     -12.022  13.236  68.284  1.00  0.00    -0.342 OA 
HETATM   24  O   UNL     1     -10.267  14.951  69.249  1.00  0.00    -0.229 OA 
ENDBRANCH  19  20
ENDBRANCH   8  19
TORSDOF 5
ENDMDL
MODEL      224
REMARK 921   NORMALIZED FREE ENERGY PREDICTED BY IDOCK:   -3.31 KCAL/MOL
REMARK 922        TOTAL FREE ENERGY PREDICTED BY IDOCK:   -4.98 KCAL/MOL
REMARK 923 INTER-LIGAND FREE ENERGY PREDICTED BY IDOCK:   -5.21 KCAL/MOL
REMARK 924 INTRA-LIGAND FREE ENERGY PREDICTED BY IDOCK:    0.23 KCAL/MOL
REMARK 927      BINDING AFFINITY PREDICTED BY RF-SCORE:    0.00 PKD
ROOT
HETATM    1  O   UNL     1      -9.551  10.397  69.811  1.00  0.00    -0.382 OA 
HETATM    2  H   UNL     1      -9.252  11.299  69.838  1.00  0.00     0.000 HD 
HETATM    3  C   UNL     1      -9.263   9.774  68.563  1.00  0.00    -0.134 C  
HETATM    4  C   UNL     1      -9.741   8.334  68.519  1.00  0.00    -0.156 C  
HETATM    5  C   UNL     1      -9.766   8.084  66.992  1.00  0.00    -0.211 C  
HETATM    6  O   UNL     1     -11.052   8.258  69.118  1.00  0.00    -0.432 OA 
HETATM    7  O   UNL     1     -10.188   9.333  66.415  1.00  0.00    -0.273 OA 
HETATM    8  C   UNL     1     -10.074  10.364  67.422  1.00  0.00    -0.196 C  
HETATM    9  H   UNL     1     -11.350   7.356  69.091  1.00  0.00     0.000 HD 
ENDROOT
BRANCH   5  10
HETATM   10  O   UNL     1     -10.616   6.991  66.730  1.00  0.00    -0.281 OA 
BRANCH  10  11
HETATM   11  P   UNL     1     -10.127   5.333  66.745  1.00  0.00    -0.269 P  
HETATM   12  O   UNL     1     -11.221   4.989  65.581  1.00  0.00    -0.025 OA 
HETATM   13  O   UNL     1      -8.829   5.719  66.022  1.00  0.00    -0.141 OA 
BRANCH  11  14
HETATM   14  O   UNL     1      -9.638   3.673  66.758  1.00  0.00    -0.204 OA 
HETATM   15  P   UNL     1      -7.937   3.575  67.057  1.00  0.00    -0.084 P  
HETATM   16  O   UNL     1      -6.413   3.489  67.323  1.00  0.00    -0.036 OA 
HETATM   17  O   UNL     1      -8.342   3.540  68.646  1.00  0.00    -0.074 OA 
HETATM   18  O   UNL     1      -8.138   1.956  66.856  1.00  0.00    -0.069 OA 
ENDBRANCH  11  14
ENDBRANCH  10  11
ENDBRANCH   5  10
BRANCH   8  19
HETATM   19  C   UNL     1      -9.422  11.612  66.831  1.00  0.00    -0.185 C  
BRANCH  19  20
HETATM   20  O   UNL     1     -10.156  12.723  67.311  1.00  0.00    -0.222 OA 
HETATM   21  P   UNL     1     -11.743  12.656  67.271  1.00  0.00    -0.270 P  
HETATM   22  O   UNL     1     -12.126  13.916  68.172  1.00  0.00    -0.365 OA 
HETATM   23  O   UNL     1     -12.370  12.608  65.926  1.00  0.00    -0.593 OA 
HETATM   24  O   UNL     1     -12.057  11.463  68.281  1.00  0.00    -0.606 OA 
ENDBRANCH  19  20
ENDBRANCH   8  19
TORSDOF 5
ENDMDL
MODEL      225
REMARK 921   NORMALIZED FREE ENERGY PREDICTED BY IDOCK:   -3.13 KCAL/MOL
REMARK 922        TOTAL FREE ENERGY PREDICTED BY IDOCK:   -4.76 KCAL/MOL
REMARK 923 INTER-LIGAND FREE ENERGY PREDICTED BY IDOCK:   -4.69 KCAL/MOL
REMARK 924 INTRA-LIGAND FREE ENERGY PREDICTED BY IDOCK:   -0.06 KCAL/MOL
REMARK 927      BINDING AFFINITY PREDICTED BY RF-SCORE:    0.00 PKD
ROOT
HETATM    1  O   UNL     1      -6.844  16.528  69.086  1.00  0.00    -0.193 OA 
HETATM    2  H   UNL     1      -6.676  17.459  68.999  1.00  0.00     0.000 HD 
HETATM    3  C   UNL     1      -7.474  15.987  67.929  1.00  0.00    -0.129 C  
HETATM    4  C   UNL     1      -7.744  14.500  68.067  1.00  0.00    -0.135 C  
HETATM    5  C   UNL     1      -8.816  14.297  66.970  1.00  0.00    -0.226 C  
HETATM    6  O   UNL     1      -8.248  14.238  69.394  1.00  0.00    -0.357 OA 
HETATM    7  O   UNL     1      -9.607  15.500  66.992  1.00  0.00    -0.217 OA 
HETATM    8  C   UNL     1      -8.890  16.505  67.746  1.00  0.00    -0.197 C  
HETATM    9  H   UNL     1      -8.416  13.307  69.481  1.00  0.00     0.000 HD 
ENDROOT
BRANCH   5  10
HETATM   10  O   UNL     1      -9.528  13.114  67.251  1.00  0.00    -0.211 OA 
BRANCH  10  11
HETATM   11  P   UNL     1      -8.952  11.515  66.931  1.00  0.00    -0.189 P  
HETATM   12  O   UNL     1      -9.354  11.675  65.356  1.00  0.00    -0.211 OA 
HETATM   13  O   UNL     1      -7.508  12.018  67.066  1.00  0.00    -0.148 OA 
BRANCH  11  14
HETATM   14  O   UNL     1      -8.376   9.916  66.610  1.00  0.00    -0.123 OA 
HETATM   15  P   UNL     1      -9.307   8.775  67.518  1.00  0.00    -0.142 P  
HETATM   16  O   UNL     1     -10.141   7.754  68.331  1.00  0.00    -0.180 OA 
HETATM   17  O   UNL     1     -10.311   8.747  66.220  1.00  0.00    -0.231 OA 
HETATM   18  O   UNL     1      -8.283   7.653  66.888  1.00  0.00    -0.116 OA 
ENDBRANCH  11  14
ENDBRANCH  10  11
ENDBRANCH   5  10
BRANCH   8  19
HETATM   19  C   UNL     1      -8.929  17.844  67.013  1.00  0.00    -0.250 C  
BRANCH  19  20
HETATM   20  O   UNL     1      -7.892  18.639  67.558  1.00  0.00    -0.228 OA 
HETATM   21  P   UNL     1      -7.710  20.121  67.015  1.00  0.00    -0.326 P  
HETATM   22  O   UNL     1      -6.697  20.720  68.092  1.00  0.00    -0.291 OA 
HETATM   23  O   UNL     1      -7.301  20.260  65.595  1.00  0.00    -0.293 OA 
HETATM   24  O   UNL     1      -9.071  20.817  67.469  1.00  0.00    -0.297 OA 
ENDBRANCH  19  20
ENDBRANCH   8  19
TORSDOF 5
ENDMDL
MODEL      226
REMARK 921   NORMALIZED FREE ENERGY PREDICTED BY IDOCK:   -3.12 KCAL/MOL
REMARK 922        TOTAL FREE ENERGY PREDICTED BY IDOCK:   -4.73 KCAL/MOL
REMARK 923 INTER-LIGAND FREE ENERGY PREDICTED BY IDOCK:   -4.29 KCAL/MOL
REMARK 924 INTRA-LIGAND FREE ENERGY PREDICTED BY IDOCK:   -0.45 KCAL/MOL
REMARK 927      BINDING AFFINITY PREDICTED BY RF-SCORE:    0.00 PKD
ROOT
HETATM    1  O   UNL     1     -10.539   9.905  71.077  1.00  0.00    -0.308 OA 
HETATM    2  H   UNL     1     -11.140  10.637  71.150  1.00  0.00     0.000 HD 
HETATM    3  C   UNL     1      -9.846   9.902  69.832  1.00  0.00    -0.245 C  
HETATM    4  C   UNL     1      -8.887   8.731  69.714  1.00  0.00    -0.142 C  
HETATM    5  C   UNL     1      -8.674   8.685  68.183  1.00  0.00    -0.142 C  
HETATM    6  O   UNL     1      -9.533   7.545  70.223  1.00  0.00    -0.165 OA 
HETATM    7  O   UNL     1      -9.948   9.041  67.616  1.00  0.00    -0.177 OA 
HETATM    8  C   UNL     1     -10.767   9.618  68.659  1.00  0.00    -0.201 C  
HETATM    9  H   UNL     1      -8.932   6.812  70.150  1.00  0.00     0.000 HD 
ENDROOT
BRANCH   5  10
HETATM   10  O   UNL     1      -8.206   7.403  67.833  1.00  0.00    -0.118 OA 
BRANCH  10  11
HETATM   11  P   UNL     1      -9.041   6.293  66.804  1.00  0.00    -0.142 P  
HETATM   12  O   UNL     1      -7.674   5.418  66.621  1.00  0.00    -0.097 OA 
HETATM   13  O   UNL     1      -9.766   5.717  68.028  1.00  0.00    -0.116 OA 
BRANCH  11  14
HETATM   14  O   UNL     1      -9.876   5.181  65.774  1.00  0.00    -0.151 OA 
HETATM   15  P   UNL     1      -8.904   3.770  65.540  1.00  0.00    -0.135 P  
HETATM   16  O   UNL     1      -8.032   2.507  65.331  1.00  0.00    -0.077 OA 
HETATM   17  O   UNL     1      -9.644   3.187  66.884  1.00  0.00    -0.135 OA 
HETATM   18  O   UNL     1     -10.107   3.281  64.531  1.00  0.00    -0.152 OA 
ENDBRANCH  11  14
ENDBRANCH  10  11
ENDBRANCH   5  10
BRANCH   8  19
HETATM   19  C   UNL     1     -11.465  10.877  68.149  1.00  0.00    -0.295 C  
BRANCH  19  20
HETATM   20  O   UNL     1     -11.176  10.973  66.767  1.00  0.00    -0.264 OA 
HETATM   21  P   UNL     1     -11.002  12.418  66.129  1.00  0.00    -0.315 P  
HETATM   22  O   UNL     1     -10.387  12.051  64.703  1.00  0.00    -0.266 OA 
HETATM   23  O   UNL     1     -12.208  13.283  66.110  1.00  0.00    -0.420 OA 
HETATM   24  O   UNL     1      -9.706  12.965  66.879  1.00  0.00    -0.227 OA 
ENDBRANCH  19  20
ENDBRANCH   8  19
TORSDOF 5
ENDMDL
MODEL      227
REMARK 921   NORMALIZED FREE ENERGY PREDICTED BY IDOCK:   -3.08 KCAL/MOL
REMARK 922        TOTAL FREE ENERGY PREDICTED BY IDOCK:   -4.68 KCAL/MOL
REMARK 923 INTER-LIGAND FREE ENERGY PREDICTED BY IDOCK:   -3.53 KCAL/MOL
REMARK 924 INTRA-LIGAND FREE ENERGY PREDICTED BY IDOCK:   -1.15 KCAL/MOL
REMARK 927      BINDING AFFINITY PREDICTED BY RF-SCORE:    0.00 PKD
ROOT
HETATM    1  O   UNL     1     -10.531   9.762  69.965  1.00  0.00    -0.231 OA 
HETATM    2  H   UNL     1     -10.886   9.254  70.685  1.00  0.00     0.000 HD 
HETATM    3  C   UNL     1     -10.863   9.203  68.698  1.00  0.00    -0.049 C  
HETATM    4  C   UNL     1     -10.296  10.015  67.548  1.00  0.00    -0.232 C  
HETATM    5  C   UNL     1     -10.361   8.978  66.402  1.00  0.00    -0.149 C  
HETATM    6  O   UNL     1      -8.944  10.403  67.872  1.00  0.00    -0.127 OA 
HETATM    7  O   UNL     1     -10.064   7.714  67.022  1.00  0.00    -0.214 OA 
HETATM    8  C   UNL     1     -10.175   7.871  68.456  1.00  0.00    -0.205 C  
HETATM    9  H   UNL     1      -8.589  10.912  67.152  1.00  0.00     0.000 HD 
ENDROOT
BRANCH   5  10
HETATM   10  O   UNL     1      -9.461   9.369  65.391  1.00  0.00    -0.261 OA 
BRANCH  10  11
HETATM   11  P   UNL     1      -8.098   8.441  64.868  1.00  0.00    -0.142 P  
HETATM   12  O   UNL     1      -8.439   8.801  63.311  1.00  0.00    -0.183 OA 
HETATM   13  O   UNL     1      -7.162   9.546  65.376  1.00  0.00    -0.090 OA 
BRANCH  11  14
HETATM   14  O   UNL     1      -6.735   7.513  64.343  1.00  0.00    -0.047 OA 
HETATM   15  P   UNL     1      -6.624   6.068  65.287  1.00  0.00    -0.045 P  
HETATM   16  O   UNL     1      -6.525   4.774  66.132  1.00  0.00    -0.041 OA 
HETATM   17  O   UNL     1      -7.603   5.399  64.152  1.00  0.00    -0.067 OA 
HETATM   18  O   UNL     1      -5.251   5.783  64.429  1.00  0.00    -0.012 OA 
ENDBRANCH  11  14
ENDBRANCH  10  11
ENDBRANCH   5  10
BRANCH   8  19
HETATM   19  C   UNL     1     -10.947   6.700  69.059  1.00  0.00    -0.279 C  
BRANCH  19  20
HETATM   20  O   UNL     1     -11.528   7.168  70.261  1.00  0.00    -0.286 OA 
HETATM   21  P   UNL     1     -10.947   6.635  71.641  1.00  0.00    -0.263 P  
HETATM   22  O   UNL     1     -11.643   7.634  72.673  1.00  0.00    -0.339 OA 
HETATM   23  O   UNL     1     -11.125   5.188  71.919  1.00  0.00    -0.115 OA 
HETATM   24  O   UNL     1      -9.460   7.213  71.626  1.00  0.00    -0.153 OA 
ENDBRANCH  19  20
ENDBRANCH   8  19
TORSDOF 5
ENDMDL
MODEL      228
REMARK 921   NORMALIZED FREE ENERGY PREDICTED BY IDOCK:   -3.06 KCAL/MOL
REMARK 922        TOTAL FREE ENERGY PREDICTED BY IDOCK:   -4.65 KCAL/MOL
REMARK 923 INTER-LIGAND FREE ENERGY PREDICTED BY IDOCK:   -3.99 KCAL/MOL
REMARK 924 INTRA-LIGAND FREE ENERGY PREDICTED BY IDOCK:   -0.66 KCAL/MOL
REMARK 927      BINDING AFFINITY PREDICTED BY RF-SCORE:    0.00 PKD
ROOT
HETATM    1  O   UNL     1      -5.611   7.483  72.255  1.00  0.00    -0.037 OA 
HETATM    2  H   UNL     1      -5.466   6.569  72.473  1.00  0.00     0.000 HD 
HETATM    3  C   UNL     1      -6.915   7.709  71.731  1.00  0.00    -0.062 C  
HETATM    4  C   UNL     1      -7.146   9.169  71.382  1.00  0.00    -0.002 C  
HETATM    5  C   UNL     1      -8.357   9.050  70.426  1.00  0.00    -0.164 C  
HETATM    6  O   UNL     1      -5.967   9.684  70.727  1.00  0.00    -0.061 OA 
HETATM    7  O   UNL     1      -8.136   7.832  69.691  1.00  0.00    -0.117 OA 
HETATM    8  C   UNL     1      -7.109   7.070  70.367  1.00  0.00    -0.067 C  
HETATM    9  H   UNL     1      -6.112  10.598  70.509  1.00  0.00     0.000 HD 
ENDROOT
BRANCH   5  10
HETATM   10  O   UNL     1      -8.422  10.215  69.637  1.00  0.00    -0.172 OA 
BRANCH  10  11
HETATM   11  P   UNL     1      -9.777  10.678  68.668  1.00  0.00    -0.190 P  
HETATM   12  O   UNL     1     -10.735  10.680  69.991  1.00  0.00    -0.251 OA 
HETATM   13  O   UNL     1      -9.196  12.094  68.548  1.00  0.00    -0.179 OA 
BRANCH  11  14
HETATM   14  O   UNL     1     -11.133  11.141  67.698  1.00  0.00    -0.247 OA 
HETATM   15  P   UNL     1     -10.709  12.511  66.731  1.00  0.00    -0.249 P  
HETATM   16  O   UNL     1     -10.329  13.738  65.865  1.00  0.00    -0.293 OA 
HETATM   17  O   UNL     1     -10.203  11.415  65.620  1.00  0.00    -0.232 OA 
HETATM   18  O   UNL     1     -12.274  12.462  66.229  1.00  0.00    -0.620 OA 
ENDBRANCH  11  14
ENDBRANCH  10  11
ENDBRANCH   5  10
BRANCH   8  19
HETATM   19  C   UNL     1      -7.517   5.602  70.466  1.00  0.00    -0.085 C  
BRANCH  19  20
HETATM   20  O   UNL     1      -8.574   5.533  71.405  1.00  0.00    -0.128 OA 
HETATM   21  P   UNL     1      -9.901   4.762  70.995  1.00  0.00    -0.196 P  
HETATM   22  O   UNL     1     -10.642   4.657  72.405  1.00  0.00    -0.201 OA 
HETATM   23  O   UNL     1     -10.696   5.353  69.889  1.00  0.00    -0.316 OA 
HETATM   24  O   UNL     1      -9.382   3.265  70.821  1.00  0.00    -0.126 OA 
ENDBRANCH  19  20
ENDBRANCH   8  19
TORSDOF 5
ENDMDL
MODEL      229
REMARK 921   NORMALIZED FREE ENERGY PREDICTED BY IDOCK:   -3.04 KCAL/MOL
REMARK 922        TOTAL FREE ENERGY PREDICTED BY IDOCK:   -4.63 KCAL/MOL
REMARK 923 INTER-LIGAND FREE ENERGY PREDICTED BY IDOCK:   -4.48 KCAL/MOL
REMARK 924 INTRA-LIGAND FREE ENERGY PREDICTED BY IDOCK:   -0.15 KCAL/MOL
REMARK 927      BINDING AFFINITY PREDICTED BY RF-SCORE:    0.00 PKD
ROOT
HETATM    1  O   UNL     1     -12.238   8.068  73.098  1.00  0.00    -0.659 OA 
HETATM    2  H   UNL     1     -11.820   8.503  73.832  1.00  0.00     0.000 HD 
HETATM    3  C   UNL     1     -11.339   7.213  72.398  1.00  0.00    -0.274 C  
HETATM    4  C   UNL     1     -12.007   6.519  71.225  1.00  0.00    -0.306 C  
HETATM    5  C   UNL     1     -10.770   6.092  70.399  1.00  0.00    -0.284 C  
HETATM    6  O   UNL     1     -12.839   7.472  70.530  1.00  0.00    -0.456 OA 
HETATM    7  O   UNL     1      -9.821   7.161  70.567  1.00  0.00    -0.180 OA 
HETATM    8  C   UNL     1     -10.251   7.986  71.674  1.00  0.00    -0.202 C  
HETATM    9  H   UNL     1     -13.257   7.038  69.796  1.00  0.00     0.000 HD 
ENDROOT
BRANCH   5  10
HETATM   10  O   UNL     1     -11.176   5.862  69.070  1.00  0.00    -0.315 OA 
BRANCH  10  11
HETATM   11  P   UNL     1     -10.413   6.537  67.673  1.00  0.00    -0.313 P  
HETATM   12  O   UNL     1     -10.820   8.041  68.164  1.00  0.00    -0.079 OA 
HETATM   13  O   UNL     1      -9.039   6.234  68.288  1.00  0.00    -0.116 OA 
BRANCH  11  14
HETATM   14  O   UNL     1      -9.649   7.213  66.275  1.00  0.00    -0.139 OA 
HETATM   15  P   UNL     1      -8.122   6.442  66.022  1.00  0.00    -0.133 P  
HETATM   16  O   UNL     1      -6.754   5.751  65.797  1.00  0.00    -0.049 OA 
HETATM   17  O   UNL     1      -8.959   5.354  65.123  1.00  0.00    -0.147 OA 
HETATM   18  O   UNL     1      -7.952   7.504  64.778  1.00  0.00    -0.127 OA 
ENDBRANCH  11  14
ENDBRANCH  10  11
ENDBRANCH   5  10
BRANCH   8  19
HETATM   19  C   UNL     1      -9.068   8.313  72.582  1.00  0.00    -0.257 C  
BRANCH  19  20
HETATM   20  O   UNL     1      -8.780   7.139  73.318  1.00  0.00    -0.125 OA 
HETATM   21  P   UNL     1      -7.300   6.561  73.270  1.00  0.00    -0.084 P  
HETATM   22  O   UNL     1      -7.353   5.486  74.448  1.00  0.00    -0.085 OA 
HETATM   23  O   UNL     1      -6.828   6.057  71.956  1.00  0.00    -0.068 OA 
HETATM   24  O   UNL     1      -6.461   7.723  73.967  1.00  0.00    -0.083 OA 
ENDBRANCH  19  20
ENDBRANCH   8  19
TORSDOF 5
ENDMDL
MODEL      230
REMARK 921   NORMALIZED FREE ENERGY PREDICTED BY IDOCK:   -2.99 KCAL/MOL
REMARK 922        TOTAL FREE ENERGY PREDICTED BY IDOCK:   -4.57 KCAL/MOL
REMARK 923 INTER-LIGAND FREE ENERGY PREDICTED BY IDOCK:   -4.62 KCAL/MOL
REMARK 924 INTRA-LIGAND FREE ENERGY PREDICTED BY IDOCK:    0.05 KCAL/MOL
REMARK 927      BINDING AFFINITY PREDICTED BY RF-SCORE:    0.00 PKD
ROOT
HETATM    1  O   UNL     1      -6.590  11.793  69.938  1.00  0.00    -0.286 OA 
HETATM    2  H   UNL     1      -6.992  10.941  70.060  1.00  0.00     0.000 HD 
HETATM    3  C   UNL     1      -7.387  12.651  69.128  1.00  0.00     0.134 C  
HETATM    4  C   UNL     1      -6.745  14.013  68.933  1.00  0.00    -0.105 C  
HETATM    5  C   UNL     1      -7.513  14.518  67.688  1.00  0.00    -0.177 C  
HETATM    6  O   UNL     1      -5.335  13.833  68.684  1.00  0.00    -0.078 OA 
HETATM    7  O   UNL     1      -7.725  13.348  66.878  1.00  0.00     0.053 OA 
HETATM    8  C   UNL     1      -7.465  12.178  67.688  1.00  0.00    -0.129 C  
HETATM    9  H   UNL     1      -4.934  14.685  68.562  1.00  0.00     0.000 HD 
ENDROOT
BRANCH   5  10
HETATM   10  O   UNL     1      -6.754  15.535  67.075  1.00  0.00    -0.266 OA 
BRANCH  10  11
HETATM   11  P   UNL     1      -7.082  17.228  67.204  1.00  0.00    -0.208 P  
HETATM   12  O   UNL     1      -8.171  17.119  65.991  1.00  0.00    -0.480 OA 
HETATM   13  O   UNL     1      -7.853  16.970  68.506  1.00  0.00    -0.228 OA 
BRANCH  11  14
HETATM   14  O   UNL     1      -7.411  18.922  67.332  1.00  0.00    -0.223 OA 
HETATM   15  P   UNL     1      -8.976  19.256  66.676  1.00  0.00    -0.363 P  
HETATM   16  O   UNL     1     -10.377  19.555  66.087  1.00  0.00    -0.445 OA 
HETATM   17  O   UNL     1      -9.538  18.963  68.189  1.00  0.00    -0.308 OA 
HETATM   18  O   UNL     1      -8.617  20.829  66.995  1.00  0.00    -0.230 OA 
ENDBRANCH  11  14
ENDBRANCH  10  11
ENDBRANCH   5  10
BRANCH   8  19
HETATM   19  C   UNL     1      -8.559  11.134  67.477  1.00  0.00    -0.129 C  
BRANCH  19  20
HETATM   20  O   UNL     1      -9.293  11.535  66.334  1.00  0.00    -0.197 OA 
HETATM   21  P   UNL     1      -9.324  10.564  65.076  1.00  0.00    -0.269 P  
HETATM   22  O   UNL     1     -10.480  11.233  64.203  1.00  0.00    -0.317 OA 
HETATM   23  O   UNL     1      -8.033  10.342  64.379  1.00  0.00    -0.154 OA 
HETATM   24  O   UNL     1     -10.088   9.289  65.653  1.00  0.00    -0.215 OA 
ENDBRANCH  19  20
ENDBRANCH   8  19
TORSDOF 5
ENDMDL
MODEL      231
REMARK 921   NORMALIZED FREE ENERGY PREDICTED BY IDOCK:   -2.99 KCAL/MOL
REMARK 922        TOTAL FREE ENERGY PREDICTED BY IDOCK:   -4.56 KCAL/MOL
REMARK 923 INTER-LIGAND FREE ENERGY PREDICTED BY IDOCK:   -4.21 KCAL/MOL
REMARK 924 INTRA-LIGAND FREE ENERGY PREDICTED BY IDOCK:   -0.36 KCAL/MOL
REMARK 927      BINDING AFFINITY PREDICTED BY RF-SCORE:    0.00 PKD
ROOT
HETATM    1  O   UNL     1      -6.889  14.147  67.073  1.00  0.00    -0.374 OA 
HETATM    2  H   UNL     1      -7.044  15.083  67.028  1.00  0.00     0.000 HD 
HETATM    3  C   UNL     1      -8.102  13.405  67.144  1.00  0.00    -0.083 C  
HETATM    4  C   UNL     1      -7.854  11.909  67.217  1.00  0.00    -0.168 C  
HETATM    5  C   UNL     1      -9.214  11.418  67.768  1.00  0.00    -0.159 C  
HETATM    6  O   UNL     1      -6.762  11.660  68.126  1.00  0.00    -0.059 OA 
HETATM    7  O   UNL     1      -9.640  12.442  68.684  1.00  0.00    -0.147 OA 
HETATM    8  C   UNL     1      -8.837  13.623  68.455  1.00  0.00    -0.152 C  
HETATM    9  H   UNL     1      -6.607  10.724  68.171  1.00  0.00     0.000 HD 
ENDROOT
BRANCH   5  10
HETATM   10  O   UNL     1      -9.031  10.145  68.344  1.00  0.00    -0.119 OA 
BRANCH  10  11
HETATM   11  P   UNL     1      -9.420   8.646  67.574  1.00  0.00    -0.161 P  
HETATM   12  O   UNL     1     -10.301   9.440  66.450  1.00  0.00    -0.242 OA 
HETATM   13  O   UNL     1      -7.987   8.566  67.028  1.00  0.00    -0.098 OA 
BRANCH  11  14
HETATM   14  O   UNL     1      -9.808   7.147  66.802  1.00  0.00    -0.194 OA 
HETATM   15  P   UNL     1      -9.693   5.860  67.952  1.00  0.00    -0.133 P  
HETATM   16  O   UNL     1      -9.589   4.708  68.982  1.00  0.00    -0.146 OA 
HETATM   17  O   UNL     1     -11.269   6.178  68.282  1.00  0.00    -0.323 OA 
HETATM   18  O   UNL     1     -10.043   4.881  66.679  1.00  0.00    -0.201 OA 
ENDBRANCH  11  14
ENDBRANCH  10  11
ENDBRANCH   5  10
BRANCH   8  19
HETATM   19  C   UNL     1      -9.721  14.868  68.426  1.00  0.00    -0.209 C  
BRANCH  19  20
HETATM   20  O   UNL     1     -10.161  15.088  69.753  1.00  0.00    -0.207 OA 
HETATM   21  P   UNL     1     -11.724  15.091  70.041  1.00  0.00    -0.355 P  
HETATM   22  O   UNL     1     -11.741  15.042  71.636  1.00  0.00    -0.348 OA 
HETATM   23  O   UNL     1     -12.510  16.185  69.419  1.00  0.00    -0.011 OA 
HETATM   24  O   UNL     1     -12.134  13.589  69.695  1.00  0.00    -0.316 OA 
ENDBRANCH  19  20
ENDBRANCH   8  19
TORSDOF 5
ENDMDL
MODEL      232
REMARK 921   NORMALIZED FREE ENERGY PREDICTED BY IDOCK:   -2.90 KCAL/MOL
REMARK 922        TOTAL FREE ENERGY PREDICTED BY IDOCK:   -4.46 KCAL/MOL
REMARK 923 INTER-LIGAND FREE ENERGY PREDICTED BY IDOCK:   -4.75 KCAL/MOL
REMARK 924 INTRA-LIGAND FREE ENERGY PREDICTED BY IDOCK:    0.30 KCAL/MOL
REMARK 927      BINDING AFFINITY PREDICTED BY RF-SCORE:    0.00 PKD
ROOT
HETATM    1  O   UNL     1      -9.379   9.756  63.682  1.00  0.00    -0.362 OA 
HETATM    2  H   UNL     1      -9.681  10.462  63.123  1.00  0.00     0.000 HD 
HETATM    3  C   UNL     1      -9.834   9.902  65.023  1.00  0.00    -0.252 C  
HETATM    4  C   UNL     1      -9.351   8.773  65.917  1.00  0.00    -0.218 C  
HETATM    5  C   UNL     1      -9.541   9.410  67.314  1.00  0.00    -0.151 C  
HETATM    6  O   UNL     1      -7.968   8.497  65.614  1.00  0.00    -0.097 OA 
HETATM    7  O   UNL     1      -9.220  10.802  67.139  1.00  0.00    -0.147 OA 
HETATM    8  C   UNL     1      -9.202  11.092  65.722  1.00  0.00    -0.205 C  
HETATM    9  H   UNL     1      -7.666   7.791  66.173  1.00  0.00     0.000 HD 
ENDROOT
BRANCH   5  10
HETATM   10  O   UNL     1      -8.725   8.723  68.235  1.00  0.00    -0.133 OA 
BRANCH  10  11
HETATM   11  P   UNL     1      -9.186   7.293  69.090  1.00  0.00    -0.136 P  
HETATM   12  O   UNL     1      -9.068   6.420  67.714  1.00  0.00    -0.114 OA 
HETATM   13  O   UNL     1      -7.801   7.253  69.752  1.00  0.00    -0.111 OA 
BRANCH  11  14
HETATM   14  O   UNL     1      -9.647   5.861  69.946  1.00  0.00    -0.152 OA 
HETATM   15  P   UNL     1      -8.642   4.544  69.449  1.00  0.00    -0.085 P  
HETATM   16  O   UNL     1      -7.742   3.365  69.003  1.00  0.00    -0.052 OA 
HETATM   17  O   UNL     1      -7.633   5.021  70.652  1.00  0.00    -0.066 OA 
HETATM   18  O   UNL     1      -9.581   3.637  70.447  1.00  0.00    -0.177 OA 
ENDBRANCH  11  14
ENDBRANCH  10  11
ENDBRANCH   5  10
BRANCH   8  19
HETATM   19  C   UNL     1      -9.945  12.395  65.439  1.00  0.00    -0.236 C  
BRANCH  19  20
HETATM   20  O   UNL     1     -11.322  12.075  65.373  1.00  0.00    -0.332 OA 
HETATM   21  P   UNL     1     -12.274  13.003  64.503  1.00  0.00    -0.415 P  
HETATM   22  O   UNL     1     -13.600  12.117  64.449  1.00  0.00    -0.513 OA 
HETATM   23  O   UNL     1     -12.448  14.400  64.976  1.00  0.00    -0.436 OA 
HETATM   24  O   UNL     1     -11.709  12.781  63.029  1.00  0.00    -0.363 OA 
ENDBRANCH  19  20
ENDBRANCH   8  19
TORSDOF 5
ENDMDL
MODEL      233
REMARK 921   NORMALIZED FREE ENERGY PREDICTED BY IDOCK:   -2.90 KCAL/MOL
REMARK 922        TOTAL FREE ENERGY PREDICTED BY IDOCK:   -4.45 KCAL/MOL
REMARK 923 INTER-LIGAND FREE ENERGY PREDICTED BY IDOCK:   -5.15 KCAL/MOL
REMARK 924 INTRA-LIGAND FREE ENERGY PREDICTED BY IDOCK:    0.70 KCAL/MOL
REMARK 927      BINDING AFFINITY PREDICTED BY RF-SCORE:    0.00 PKD
ROOT
HETATM    1  O   UNL     1      -6.113  17.063  69.510  1.00  0.00    -0.209 OA 
HETATM    2  H   UNL     1      -5.894  17.987  69.533  1.00  0.00     0.000 HD 
HETATM    3  C   UNL     1      -7.217  16.793  68.652  1.00  0.00    -0.207 C  
HETATM    4  C   UNL     1      -7.566  15.316  68.615  1.00  0.00    -0.129 C  
HETATM    5  C   UNL     1      -9.009  15.374  68.060  1.00  0.00    -0.171 C  
HETATM    6  O   UNL     1      -7.505  14.789  69.957  1.00  0.00    -0.379 OA 
HETATM    7  O   UNL     1      -9.585  16.560  68.637  1.00  0.00    -0.224 OA 
HETATM    8  C   UNL     1      -8.517  17.367  69.185  1.00  0.00     0.064 C  
HETATM    9  H   UNL     1      -7.723  13.864  69.934  1.00  0.00     0.000 HD 
ENDROOT
BRANCH   5  10
HETATM   10  O   UNL     1      -9.666  14.173  68.393  1.00  0.00    -0.217 OA 
BRANCH  10  11
HETATM   11  P   UNL     1     -11.160  14.071  69.259  1.00  0.00    -0.153 P  
HETATM   12  O   UNL     1     -10.571  15.067  70.412  1.00  0.00    -0.172 OA 
HETATM   13  O   UNL     1     -11.822  14.968  68.204  1.00  0.00    -0.334 OA 
BRANCH  11  14
HETATM   14  O   UNL     1     -12.654  13.969  70.125  1.00  0.00    -0.334 OA 
HETATM   15  P   UNL     1     -12.383  14.355  71.790  1.00  0.00    -0.201 P  
HETATM   16  O   UNL     1     -12.139  14.699  73.280  1.00  0.00    -0.206 OA 
HETATM   17  O   UNL     1     -12.665  15.910  71.348  1.00  0.00    -0.464 OA 
HETATM   18  O   UNL     1     -13.978  14.004  71.983  1.00  0.00    -0.440 OA 
ENDBRANCH  11  14
ENDBRANCH  10  11
ENDBRANCH   5  10
BRANCH   8  19
HETATM   19  C   UNL     1      -8.708  18.832  68.799  1.00  0.00    -0.276 C  
BRANCH  19  20
HETATM   20  O   UNL     1      -7.586  19.199  68.019  1.00  0.00    -0.262 OA 
HETATM   21  P   UNL     1      -7.823  19.632  66.508  1.00  0.00    -0.321 P  
HETATM   22  O   UNL     1      -6.399  20.249  66.139  1.00  0.00    -0.195 OA 
HETATM   23  O   UNL     1      -8.330  18.581  65.591  1.00  0.00    -0.393 OA 
HETATM   24  O   UNL     1      -8.690  20.960  66.670  1.00  0.00     0.079 OA 
ENDBRANCH  19  20
ENDBRANCH   8  19
TORSDOF 5
ENDMDL
MODEL      234
REMARK 921   NORMALIZED FREE ENERGY PREDICTED BY IDOCK:   -2.88 KCAL/MOL
REMARK 922        TOTAL FREE ENERGY PREDICTED BY IDOCK:   -4.42 KCAL/MOL
REMARK 923 INTER-LIGAND FREE ENERGY PREDICTED BY IDOCK:   -4.36 KCAL/MOL
REMARK 924 INTRA-LIGAND FREE ENERGY PREDICTED BY IDOCK:   -0.06 KCAL/MOL
REMARK 927      BINDING AFFINITY PREDICTED BY RF-SCORE:    0.00 PKD
ROOT
HETATM    1  O   UNL     1      -8.621   6.695  64.120  1.00  0.00    -0.333 OA 
HETATM    2  H   UNL     1      -8.627   5.750  64.020  1.00  0.00     0.000 HD 
HETATM    3  C   UNL     1      -8.182   7.094  65.415  1.00  0.00    -0.137 C  
HETATM    4  C   UNL     1      -8.174   8.604  65.575  1.00  0.00    -0.135 C  
HETATM    5  C   UNL     1      -8.158   8.731  67.117  1.00  0.00    -0.100 C  
HETATM    6  O   UNL     1      -9.374   9.144  64.983  1.00  0.00    -0.424 OA 
HETATM    7  O   UNL     1      -8.974   7.645  67.591  1.00  0.00    -0.127 OA 
HETATM    8  C   UNL     1      -9.170   6.711  66.503  1.00  0.00    -0.158 C  
HETATM    9  H   UNL     1      -9.368  10.089  65.083  1.00  0.00     0.000 HD 
ENDROOT
BRANCH   5  10
HETATM   10  O   UNL     1      -8.619  10.016  67.466  1.00  0.00    -0.122 OA 
BRANCH  10  11
HETATM   11  P   UNL     1     -10.120  10.702  66.948  1.00  0.00    -0.231 P  
HETATM   12  O   UNL     1     -10.443  11.177  68.477  1.00  0.00    -0.175 OA 
HETATM   13  O   UNL     1      -9.353  11.855  66.285  1.00  0.00    -0.221 OA 
BRANCH  11  14
HETATM   14  O   UNL     1     -11.621  11.389  66.430  1.00  0.00    -0.369 OA 
HETATM   15  P   UNL     1     -11.340  12.447  65.091  1.00  0.00    -0.341 P  
HETATM   16  O   UNL     1     -11.087  13.395  63.892  1.00  0.00    -0.321 OA 
HETATM   17  O   UNL     1     -11.547  11.116  64.153  1.00  0.00    -0.018 OA 
HETATM   18  O   UNL     1     -12.950  12.765  65.187  1.00  0.00    -0.768 OA 
ENDBRANCH  11  14
ENDBRANCH  10  11
ENDBRANCH   5  10
BRANCH   8  19
HETATM   19  C   UNL     1      -8.970   5.279  66.992  1.00  0.00    -0.112 C  
BRANCH  19  20
HETATM   20  O   UNL     1      -7.573   5.053  67.036  1.00  0.00    -0.086 OA 
HETATM   21  P   UNL     1      -6.917   4.637  68.423  1.00  0.00    -0.057 P  
HETATM   22  O   UNL     1      -5.463   4.183  67.949  1.00  0.00    -0.015 OA 
HETATM   23  O   UNL     1      -6.959   5.652  69.505  1.00  0.00    -0.059 OA 
HETATM   24  O   UNL     1      -7.593   3.220  68.704  1.00  0.00    -0.052 OA 
ENDBRANCH  19  20
ENDBRANCH   8  19
TORSDOF 5
ENDMDL
MODEL      235
REMARK 921   NORMALIZED FREE ENERGY PREDICTED BY IDOCK:   -2.86 KCAL/MOL
REMARK 922        TOTAL FREE ENERGY PREDICTED BY IDOCK:   -4.40 KCAL/MOL
REMARK 923 INTER-LIGAND FREE ENERGY PREDICTED BY IDOCK:   -3.69 KCAL/MOL
REMARK 924 INTRA-LIGAND FREE ENERGY PREDICTED BY IDOCK:   -0.72 KCAL/MOL
REMARK 927      BINDING AFFINITY PREDICTED BY RF-SCORE:    0.00 PKD
ROOT
HETATM    1  O   UNL     1     -10.153  10.386  69.812  1.00  0.00    -0.335 OA 
HETATM    2  H   UNL     1     -10.753  10.350  70.548  1.00  0.00     0.000 HD 
HETATM    3  C   UNL     1     -10.447   9.397  68.831  1.00  0.00    -0.216 C  
HETATM    4  C   UNL     1      -9.488   9.454  67.656  1.00  0.00    -0.132 C  
HETATM    5  C   UNL     1      -9.698   8.050  67.042  1.00  0.00    -0.211 C  
HETATM    6  O   UNL     1      -8.148   9.650  68.155  1.00  0.00    -0.104 OA 
HETATM    7  O   UNL     1      -9.906   7.176  68.167  1.00  0.00    -0.138 OA 
HETATM    8  C   UNL     1     -10.179   7.989  69.332  1.00  0.00    -0.210 C  
HETATM    9  H   UNL     1      -7.548   9.686  67.420  1.00  0.00     0.000 HD 
ENDROOT
BRANCH   5  10
HETATM   10  O   UNL     1      -8.579   7.736  66.246  1.00  0.00    -0.134 OA 
BRANCH  10  11
HETATM   11  P   UNL     1      -7.857   6.169  66.129  1.00  0.00    -0.112 P  
HETATM   12  O   UNL     1      -8.604   5.921  64.697  1.00  0.00    -0.084 OA 
HETATM   13  O   UNL     1      -6.507   6.825  65.808  1.00  0.00    -0.047 OA 
BRANCH  11  14
HETATM   14  O   UNL     1      -7.135   4.601  66.011  1.00  0.00    -0.071 OA 
HETATM   15  P   UNL     1      -7.832   3.554  67.199  1.00  0.00    -0.079 P  
HETATM   16  O   UNL     1      -8.456   2.618  68.263  1.00  0.00    -0.067 OA 
HETATM   17  O   UNL     1      -8.952   3.201  66.053  1.00  0.00    -0.135 OA 
HETATM   18  O   UNL     1      -6.754   2.443  66.646  1.00  0.00    -0.038 OA 
ENDBRANCH  11  14
ENDBRANCH  10  11
ENDBRANCH   5  10
BRANCH   8  19
HETATM   19  C   UNL     1     -11.359   7.415  70.113  1.00  0.00    -0.177 C  
BRANCH  19  20
HETATM   20  O   UNL     1     -10.829   6.847  71.297  1.00  0.00    -0.229 OA 
HETATM   21  P   UNL     1     -10.634   7.785  72.564  1.00  0.00    -0.352 P  
HETATM   22  O   UNL     1     -10.346   6.705  73.703  1.00  0.00    -0.259 OA 
HETATM   23  O   UNL     1      -9.633   8.873  72.436  1.00  0.00    -0.278 OA 
HETATM   24  O   UNL     1     -12.135   8.193  72.916  1.00  0.00    -0.278 OA 
ENDBRANCH  19  20
ENDBRANCH   8  19
TORSDOF 5
ENDMDL
MODEL      236
REMARK 921   NORMALIZED FREE ENERGY PREDICTED BY IDOCK:   -2.83 KCAL/MOL
REMARK 922        TOTAL FREE ENERGY PREDICTED BY IDOCK:   -4.36 KCAL/MOL
REMARK 923 INTER-LIGAND FREE ENERGY PREDICTED BY IDOCK:   -3.86 KCAL/MOL
REMARK 924 INTRA-LIGAND FREE ENERGY PREDICTED BY IDOCK:   -0.50 KCAL/MOL
REMARK 927      BINDING AFFINITY PREDICTED BY RF-SCORE:    0.00 PKD
ROOT
HETATM    1  O   UNL     1      -5.547   9.968  67.270  1.00  0.00    -0.042 OA 
HETATM    2  H   UNL     1      -5.481  10.914  67.201  1.00  0.00     0.000 HD 
HETATM    3  C   UNL     1      -6.742   9.470  66.677  1.00  0.00    -0.072 C  
HETATM    4  C   UNL     1      -6.849   7.959  66.788  1.00  0.00    -0.072 C  
HETATM    5  C   UNL     1      -8.364   7.758  66.547  1.00  0.00    -0.128 C  
HETATM    6  O   UNL     1      -6.436   7.558  68.111  1.00  0.00    -0.046 OA 
HETATM    7  O   UNL     1      -8.997   8.889  67.173  1.00  0.00    -0.125 OA 
HETATM    8  C   UNL     1      -7.985   9.887  67.444  1.00  0.00    -0.106 C  
HETATM    9  H   UNL     1      -6.503   6.612  68.180  1.00  0.00     0.000 HD 
ENDROOT
BRANCH   5  10
HETATM   10  O   UNL     1      -8.738   6.505  67.070  1.00  0.00    -0.111 OA 
BRANCH  10  11
HETATM   11  P   UNL     1      -9.715   5.341  66.243  1.00  0.00    -0.164 P  
HETATM   12  O   UNL     1      -9.511   4.283  67.471  1.00  0.00    -0.154 OA 
HETATM   13  O   UNL     1     -10.966   6.164  66.580  1.00  0.00    -0.301 OA 
BRANCH  11  14
HETATM   14  O   UNL     1     -10.692   4.176  65.417  1.00  0.00    -0.153 OA 
HETATM   15  P   UNL     1      -9.896   3.684  63.962  1.00  0.00    -0.203 P  
HETATM   16  O   UNL     1      -9.183   3.243  62.660  1.00  0.00    -0.091 OA 
HETATM   17  O   UNL     1      -9.184   2.531  64.888  1.00  0.00    -0.134 OA 
HETATM   18  O   UNL     1     -11.248   2.788  63.694  1.00  0.00    -0.270 OA 
ENDBRANCH  11  14
ENDBRANCH  10  11
ENDBRANCH   5  10
BRANCH   8  19
HETATM   19  C   UNL     1      -8.483  11.271  67.035  1.00  0.00    -0.150 C  
BRANCH  19  20
HETATM   20  O   UNL     1      -9.457  11.074  66.027  1.00  0.00    -0.192 OA 
HETATM   21  P   UNL     1     -10.883  11.751  66.209  1.00  0.00    -0.285 P  
HETATM   22  O   UNL     1     -11.505  11.550  64.754  1.00  0.00    -0.201 OA 
HETATM   23  O   UNL     1     -11.709  11.259  67.340  1.00  0.00    -0.580 OA 
HETATM   24  O   UNL     1     -10.527  13.305  66.168  1.00  0.00    -0.283 OA 
ENDBRANCH  19  20
ENDBRANCH   8  19
TORSDOF 5
ENDMDL
MODEL      237
REMARK 921   NORMALIZED FREE ENERGY PREDICTED BY IDOCK:   -2.78 KCAL/MOL
REMARK 922        TOTAL FREE ENERGY PREDICTED BY IDOCK:   -4.30 KCAL/MOL
REMARK 923 INTER-LIGAND FREE ENERGY PREDICTED BY IDOCK:   -4.41 KCAL/MOL
REMARK 924 INTRA-LIGAND FREE ENERGY PREDICTED BY IDOCK:    0.11 KCAL/MOL
REMARK 927      BINDING AFFINITY PREDICTED BY RF-SCORE:    0.00 PKD
ROOT
HETATM    1  O   UNL     1      -8.807   6.886  64.996  1.00  0.00    -0.359 OA 
HETATM    2  H   UNL     1      -8.757   5.937  65.026  1.00  0.00     0.000 HD 
HETATM    3  C   UNL     1      -9.024   7.452  66.285  1.00  0.00    -0.162 C  
HETATM    4  C   UNL     1      -9.103   8.967  66.237  1.00  0.00    -0.179 C  
HETATM    5  C   UNL     1      -9.807   9.262  67.583  1.00  0.00    -0.176 C  
HETATM    6  O   UNL     1      -9.896   9.358  65.097  1.00  0.00    -0.447 OA 
HETATM    7  O   UNL     1     -10.740   8.181  67.763  1.00  0.00    -0.194 OA 
HETATM    8  C   UNL     1     -10.400   7.125  66.836  1.00  0.00    -0.279 C  
HETATM    9  H   UNL     1      -9.945  10.307  65.067  1.00  0.00     0.000 HD 
ENDROOT
BRANCH   5  10
HETATM   10  O   UNL     1     -10.389  10.543  67.515  1.00  0.00    -0.198 OA 
BRANCH  10  11
HETATM   11  P   UNL     1      -9.525  12.004  67.182  1.00  0.00    -0.197 P  
HETATM   12  O   UNL     1     -10.622  12.859  68.039  1.00  0.00    -0.216 OA 
HETATM   13  O   UNL     1      -8.436  11.575  68.175  1.00  0.00    -0.140 OA 
BRANCH  11  14
HETATM   14  O   UNL     1      -8.662  13.467  66.850  1.00  0.00    -0.210 OA 
HETATM   15  P   UNL     1      -8.818  14.546  68.193  1.00  0.00    -0.190 P  
HETATM   16  O   UNL     1      -8.959  15.512  69.396  1.00  0.00    -0.257 OA 
HETATM   17  O   UNL     1      -7.477  13.807  68.785  1.00  0.00    -0.115 OA 
HETATM   18  O   UNL     1      -7.963  15.599  67.264  1.00  0.00    -0.161 OA 
ENDBRANCH  11  14
ENDBRANCH  10  11
ENDBRANCH   5  10
BRANCH   8  19
HETATM   19  C   UNL     1     -10.437   5.770  67.539  1.00  0.00    -0.245 C  
BRANCH  19  20
HETATM   20  O   UNL     1      -9.164   5.580  68.129  1.00  0.00    -0.108 OA 
HETATM   21  P   UNL     1      -9.065   5.525  69.714  1.00  0.00    -0.138 P  
HETATM   22  O   UNL     1      -7.575   4.988  69.909  1.00  0.00    -0.059 OA 
HETATM   23  O   UNL     1      -9.404   6.774  70.442  1.00  0.00    -0.162 OA 
HETATM   24  O   UNL     1      -9.901   4.212  70.060  1.00  0.00    -0.217 OA 
ENDBRANCH  19  20
ENDBRANCH   8  19
TORSDOF 5
ENDMDL
MODEL      238
REMARK 921   NORMALIZED FREE ENERGY PREDICTED BY IDOCK:   -2.77 KCAL/MOL
REMARK 922        TOTAL FREE ENERGY PREDICTED BY IDOCK:   -4.28 KCAL/MOL
REMARK 923 INTER-LIGAND FREE ENERGY PREDICTED BY IDOCK:   -3.80 KCAL/MOL
REMARK 924 INTRA-LIGAND FREE ENERGY PREDICTED BY IDOCK:   -0.48 KCAL/MOL
REMARK 927      BINDING AFFINITY PREDICTED BY RF-SCORE:    0.00 PKD
ROOT
HETATM    1  O   UNL     1      -6.152  10.744  66.123  1.00  0.00    -0.108 OA 
HETATM    2  H   UNL     1      -6.099  11.637  65.805  1.00  0.00     0.000 HD 
HETATM    3  C   UNL     1      -7.493  10.267  66.162  1.00  0.00    -0.121 C  
HETATM    4  C   UNL     1      -7.579   8.840  66.672  1.00  0.00    -0.089 C  
HETATM    5  C   UNL     1      -9.072   8.764  67.071  1.00  0.00    -0.133 C  
HETATM    6  O   UNL     1      -6.692   8.693  67.800  1.00  0.00    -0.064 OA 
HETATM    7  O   UNL     1      -9.388  10.069  67.589  1.00  0.00    -0.143 OA 
HETATM    8  C   UNL     1      -8.330  10.980  67.209  1.00  0.00    -0.125 C  
HETATM    9  H   UNL     1      -6.745   7.799  68.119  1.00  0.00     0.000 HD 
ENDROOT
BRANCH   5  10
HETATM   10  O   UNL     1      -9.238   7.706  67.986  1.00  0.00    -0.138 OA 
BRANCH  10  11
HETATM   11  P   UNL     1      -9.178   6.027  67.578  1.00  0.00    -0.111 P  
HETATM   12  O   UNL     1      -9.111   5.633  69.162  1.00  0.00    -0.112 OA 
HETATM   13  O   UNL     1     -10.665   6.074  67.202  1.00  0.00    -0.266 OA 
BRANCH  11  14
HETATM   14  O   UNL     1      -9.117   4.347  67.169  1.00  0.00    -0.118 OA 
HETATM   15  P   UNL     1      -7.570   3.973  66.493  1.00  0.00    -0.090 P  
HETATM   16  O   UNL     1      -6.184   3.639  65.888  1.00  0.00    -0.030 OA 
HETATM   17  O   UNL     1      -7.101   3.684  68.039  1.00  0.00    -0.050 OA 
HETATM   18  O   UNL     1      -8.185   2.463  66.282  1.00  0.00    -0.082 OA 
ENDBRANCH  11  14
ENDBRANCH  10  11
ENDBRANCH   5  10
BRANCH   8  19
HETATM   19  C   UNL     1      -8.920  12.289  66.689  1.00  0.00    -0.189 C  
BRANCH  19  20
HETATM   20  O   UNL     1      -9.788  11.952  65.624  1.00  0.00    -0.235 OA 
HETATM   21  P   UNL     1     -11.201  12.674  65.541  1.00  0.00    -0.330 P  
HETATM   22  O   UNL     1     -11.674  12.256  64.076  1.00  0.00    -0.360 OA 
HETATM   23  O   UNL     1     -12.159  12.382  66.638  1.00  0.00    -0.592 OA 
HETATM   24  O   UNL     1     -10.790  14.195  65.298  1.00  0.00    -0.313 OA 
ENDBRANCH  19  20
ENDBRANCH   8  19
TORSDOF 5
ENDMDL
MODEL      239
REMARK 921   NORMALIZED FREE ENERGY PREDICTED BY IDOCK:   -2.73 KCAL/MOL
REMARK 922        TOTAL FREE ENERGY PREDICTED BY IDOCK:   -4.23 KCAL/MOL
REMARK 923 INTER-LIGAND FREE ENERGY PREDICTED BY IDOCK:   -4.00 KCAL/MOL
REMARK 924 INTRA-LIGAND FREE ENERGY PREDICTED BY IDOCK:   -0.23 KCAL/MOL
REMARK 927      BINDING AFFINITY PREDICTED BY RF-SCORE:    0.00 PKD
ROOT
HETATM    1  O   UNL     1      -8.828  13.530  68.518  1.00  0.00    -0.273 OA 
HETATM    2  H   UNL     1      -9.292  14.347  68.373  1.00  0.00     0.000 HD 
HETATM    3  C   UNL     1      -9.615  12.396  68.169  1.00  0.00    -0.218 C  
HETATM    4  C   UNL     1      -8.874  11.092  68.401  1.00  0.00    -0.151 C  
HETATM    5  C   UNL     1     -10.053  10.091  68.431  1.00  0.00    -0.165 C  
HETATM    6  O   UNL     1      -8.176  11.169  69.662  1.00  0.00    -0.338 OA 
HETATM    7  O   UNL     1     -11.129  10.798  69.073  1.00  0.00    -0.216 OA 
HETATM    8  C   UNL     1     -10.799  12.206  69.101  1.00  0.00    -0.115 C  
HETATM    9  H   UNL     1      -7.712  10.353  69.807  1.00  0.00     0.000 HD 
ENDROOT
BRANCH   5  10
HETATM   10  O   UNL     1      -9.632   8.922  69.095  1.00  0.00    -0.158 OA 
BRANCH  10  11
HETATM   11  P   UNL     1      -8.669   7.673  68.384  1.00  0.00    -0.125 P  
HETATM   12  O   UNL     1      -8.783   8.402  66.926  1.00  0.00    -0.125 OA 
HETATM   13  O   UNL     1      -7.424   8.257  69.067  1.00  0.00    -0.086 OA 
BRANCH  11  14
HETATM   14  O   UNL     1      -7.705   6.425  67.672  1.00  0.00    -0.099 OA 
HETATM   15  P   UNL     1      -8.717   5.089  67.243  1.00  0.00    -0.102 P  
HETATM   16  O   UNL     1      -9.623   3.894  66.859  1.00  0.00    -0.200 OA 
HETATM   17  O   UNL     1      -8.909   5.856  65.805  1.00  0.00    -0.150 OA 
HETATM   18  O   UNL     1      -7.316   4.357  66.790  1.00  0.00    -0.078 OA 
ENDBRANCH  11  14
ENDBRANCH  10  11
ENDBRANCH   5  10
BRANCH   8  19
HETATM   19  C   UNL     1     -12.007  13.042  68.685  1.00  0.00    -0.263 C  
BRANCH  19  20
HETATM   20  O   UNL     1     -11.523  14.338  68.386  1.00  0.00    -0.269 OA 
HETATM   21  P   UNL     1     -11.581  15.448  69.522  1.00  0.00    -0.381 P  
HETATM   22  O   UNL     1     -10.671  16.591  68.880  1.00  0.00    -0.294 OA 
HETATM   23  O   UNL     1     -12.933  15.870  69.967  1.00  0.00    -0.158 OA 
HETATM   24  O   UNL     1     -10.586  14.859  70.620  1.00  0.00    -0.043 OA 
ENDBRANCH  19  20
ENDBRANCH   8  19
TORSDOF 5
ENDMDL
MODEL      240
REMARK 921   NORMALIZED FREE ENERGY PREDICTED BY IDOCK:   -2.73 KCAL/MOL
REMARK 922        TOTAL FREE ENERGY PREDICTED BY IDOCK:   -4.23 KCAL/MOL
REMARK 923 INTER-LIGAND FREE ENERGY PREDICTED BY IDOCK:   -3.68 KCAL/MOL
REMARK 924 INTRA-LIGAND FREE ENERGY PREDICTED BY IDOCK:   -0.55 KCAL/MOL
REMARK 927      BINDING AFFINITY PREDICTED BY RF-SCORE:    0.00 PKD
ROOT
HETATM    1  O   UNL     1     -10.867  13.907  63.723  1.00  0.00    -0.382 OA 
HETATM    2  H   UNL     1     -10.665  14.665  63.186  1.00  0.00     0.000 HD 
HETATM    3  C   UNL     1     -11.024  14.250  65.096  1.00  0.00    -0.363 C  
HETATM    4  C   UNL     1     -11.345  13.039  65.954  1.00  0.00    -0.313 C  
HETATM    5  C   UNL     1     -10.977  13.574  67.359  1.00  0.00    -0.272 C  
HETATM    6  O   UNL     1     -10.510  11.938  65.541  1.00  0.00    -0.249 OA 
HETATM    7  O   UNL     1      -9.831  14.420  67.149  1.00  0.00    -0.245 OA 
HETATM    8  C   UNL     1      -9.720  14.696  65.733  1.00  0.00    -0.297 C  
HETATM    9  H   UNL     1     -10.712  11.180  66.077  1.00  0.00     0.000 HD 
ENDROOT
BRANCH   5  10
HETATM   10  O   UNL     1     -10.756  12.476  68.213  1.00  0.00    -0.213 OA 
BRANCH  10  11
HETATM   11  P   UNL     1      -9.216  12.014  68.850  1.00  0.00     0.452 P  
HETATM   12  O   UNL     1      -9.824  10.565  69.296  1.00  0.00    -0.213 OA 
HETATM   13  O   UNL     1      -8.686  11.843  67.420  1.00  0.00    -0.154 OA 
BRANCH  11  14
HETATM   14  O   UNL     1      -7.675  11.551  69.487  1.00  0.00     0.118 OA 
HETATM   15  P   UNL     1      -6.420  12.202  68.492  1.00  0.00    -0.072 P  
HETATM   16  O   UNL     1      -5.296  12.786  67.600  1.00  0.00    -0.110 OA 
HETATM   17  O   UNL     1      -6.502  13.522  69.465  1.00  0.00    -0.110 OA 
HETATM   18  O   UNL     1      -5.400  11.391  69.494  1.00  0.00    -0.047 OA 
ENDBRANCH  11  14
ENDBRANCH  10  11
ENDBRANCH   5  10
BRANCH   8  19
HETATM   19  C   UNL     1      -9.438  16.179  65.504  1.00  0.00     0.055 C  
BRANCH  19  20
HETATM   20  O   UNL     1      -8.910  16.687  66.714  1.00  0.00    -0.201 OA 
HETATM   21  P   UNL     1      -7.387  17.141  66.744  1.00  0.00    -0.285 P  
HETATM   22  O   UNL     1      -7.326  17.917  68.137  1.00  0.00    -0.225 OA 
HETATM   23  O   UNL     1      -6.374  16.073  66.553  1.00  0.00    -0.095 OA 
HETATM   24  O   UNL     1      -7.380  18.366  65.722  1.00  0.00    -0.462 OA 
ENDBRANCH  19  20
ENDBRANCH   8  19
TORSDOF 5
ENDMDL
MODEL      241
REMARK 921   NORMALIZED FREE ENERGY PREDICTED BY IDOCK:   -2.71 KCAL/MOL
REMARK 922        TOTAL FREE ENERGY PREDICTED BY IDOCK:   -4.21 KCAL/MOL
REMARK 923 INTER-LIGAND FREE ENERGY PREDICTED BY IDOCK:   -4.11 KCAL/MOL
REMARK 924 INTRA-LIGAND FREE ENERGY PREDICTED BY IDOCK:   -0.10 KCAL/MOL
REMARK 927      BINDING AFFINITY PREDICTED BY RF-SCORE:    0.00 PKD
ROOT
HETATM    1  O   UNL     1     -11.766   5.618  71.798  1.00  0.00    -0.094 OA 
HETATM    2  H   UNL     1     -11.334   5.068  72.441  1.00  0.00     0.000 HD 
HETATM    3  C   UNL     1     -10.875   6.046  70.772  1.00  0.00    -0.292 C  
HETATM    4  C   UNL     1     -11.564   6.925  69.745  1.00  0.00    -0.152 C  
HETATM    5  C   UNL     1     -10.344   7.616  69.090  1.00  0.00    -0.213 C  
HETATM    6  O   UNL     1     -12.429   7.855  70.431  1.00  0.00    -0.350 OA 
HETATM    7  O   UNL     1      -9.407   7.818  70.164  1.00  0.00    -0.154 OA 
HETATM    8  C   UNL     1      -9.819   7.007  71.289  1.00  0.00    -0.175 C  
HETATM    9  H   UNL     1     -12.861   8.405  69.788  1.00  0.00     0.000 HD 
ENDROOT
BRANCH   5  10
HETATM   10  O   UNL     1     -10.783   8.795  68.456  1.00  0.00    -0.168 OA 
BRANCH  10  11
HETATM   11  P   UNL     1     -10.355   9.272  66.850  1.00  0.00    -0.182 P  
HETATM   12  O   UNL     1     -10.991  10.754  67.110  1.00  0.00    -0.280 OA 
HETATM   13  O   UNL     1      -8.882   9.349  67.276  1.00  0.00    -0.127 OA 
BRANCH  11  14
HETATM   14  O   UNL     1      -9.926   9.750  65.244  1.00  0.00    -0.318 OA 
HETATM   15  P   UNL     1      -8.210   9.654  65.052  1.00  0.00    -0.159 P  
HETATM   16  O   UNL     1      -6.673   9.568  64.881  1.00  0.00    -0.086 OA 
HETATM   17  O   UNL     1      -8.472   8.100  64.593  1.00  0.00    -0.129 OA 
HETATM   18  O   UNL     1      -8.487  10.260  63.549  1.00  0.00    -0.166 OA 
ENDBRANCH  11  14
ENDBRANCH  10  11
ENDBRANCH   5  10
BRANCH   8  19
HETATM   19  C   UNL     1      -8.616   6.283  71.888  1.00  0.00    -0.128 C  
BRANCH  19  20
HETATM   20  O   UNL     1      -8.282   6.964  73.083  1.00  0.00    -0.106 OA 
HETATM   21  P   UNL     1      -7.051   7.969  73.062  1.00  0.00    -0.099 P  
HETATM   22  O   UNL     1      -7.244   8.718  74.458  1.00  0.00    -0.351 OA 
HETATM   23  O   UNL     1      -5.713   7.371  72.829  1.00  0.00    -0.040 OA 
HETATM   24  O   UNL     1      -7.551   9.094  72.049  1.00  0.00    -0.335 OA 
ENDBRANCH  19  20
ENDBRANCH   8  19
TORSDOF 5
ENDMDL
MODEL      242
REMARK 921   NORMALIZED FREE ENERGY PREDICTED BY IDOCK:   -2.69 KCAL/MOL
REMARK 922        TOTAL FREE ENERGY PREDICTED BY IDOCK:   -4.18 KCAL/MOL
REMARK 923 INTER-LIGAND FREE ENERGY PREDICTED BY IDOCK:   -3.87 KCAL/MOL
REMARK 924 INTRA-LIGAND FREE ENERGY PREDICTED BY IDOCK:   -0.31 KCAL/MOL
REMARK 927      BINDING AFFINITY PREDICTED BY RF-SCORE:    0.00 PKD
ROOT
HETATM    1  O   UNL     1      -6.451  11.672  66.535  1.00  0.00    -0.313 OA 
HETATM    2  H   UNL     1      -6.441  12.619  66.455  1.00  0.00     0.000 HD 
HETATM    3  C   UNL     1      -7.763  11.167  66.759  1.00  0.00    -0.153 C  
HETATM    4  C   UNL     1      -7.780   9.654  66.886  1.00  0.00    -0.098 C  
HETATM    5  C   UNL     1      -9.142   9.439  67.588  1.00  0.00    -0.121 C  
HETATM    6  O   UNL     1      -6.662   9.242  67.700  1.00  0.00    -0.067 OA 
HETATM    7  O   UNL     1      -9.283  10.555  68.486  1.00  0.00    -0.153 OA 
HETATM    8  C   UNL     1      -8.310  11.561  68.120  1.00  0.00    -0.152 C  
HETATM    9  H   UNL     1      -6.672   8.295  67.780  1.00  0.00     0.000 HD 
ENDROOT
BRANCH   5  10
HETATM   10  O   UNL     1      -9.131   8.175  68.210  1.00  0.00    -0.136 OA 
BRANCH  10  11
HETATM   11  P   UNL     1      -9.285   7.910  69.912  1.00  0.00    -0.151 P  
HETATM   12  O   UNL     1     -10.861   7.524  69.719  1.00  0.00    -0.248 OA 
HETATM   13  O   UNL     1      -8.496   6.601  69.771  1.00  0.00    -0.129 OA 
BRANCH  11  14
HETATM   14  O   UNL     1      -9.441   7.644  71.615  1.00  0.00    -0.145 OA 
HETATM   15  P   UNL     1     -10.921   6.808  71.935  1.00  0.00    -0.260 P  
HETATM   16  O   UNL     1     -12.246   6.060  72.221  1.00  0.00    -0.281 OA 
HETATM   17  O   UNL     1     -10.046   5.434  71.731  1.00  0.00    -0.183 OA 
HETATM   18  O   UNL     1     -10.504   6.969  73.518  1.00  0.00    -0.311 OA 
ENDBRANCH  11  14
ENDBRANCH  10  11
ENDBRANCH   5  10
BRANCH   8  19
HETATM   19  C   UNL     1      -8.956  12.944  68.109  1.00  0.00    -0.202 C  
BRANCH  19  20
HETATM   20  O   UNL     1      -8.201  13.756  68.989  1.00  0.00     0.024 OA 
HETATM   21  P   UNL     1      -7.476  15.040  68.398  1.00  0.00    -0.132 P  
HETATM   22  O   UNL     1      -7.049  15.794  69.738  1.00  0.00    -0.176 OA 
HETATM   23  O   UNL     1      -6.388  14.795  67.419  1.00  0.00    -0.320 OA 
HETATM   24  O   UNL     1      -8.708  15.939  67.932  1.00  0.00    -0.166 OA 
ENDBRANCH  19  20
ENDBRANCH   8  19
TORSDOF 5
ENDMDL
MODEL      243
REMARK 921   NORMALIZED FREE ENERGY PREDICTED BY IDOCK:   -2.69 KCAL/MOL
REMARK 922        TOTAL FREE ENERGY PREDICTED BY IDOCK:   -4.18 KCAL/MOL
REMARK 923 INTER-LIGAND FREE ENERGY PREDICTED BY IDOCK:   -4.06 KCAL/MOL
REMARK 924 INTRA-LIGAND FREE ENERGY PREDICTED BY IDOCK:   -0.12 KCAL/MOL
REMARK 927      BINDING AFFINITY PREDICTED BY RF-SCORE:    0.00 PKD
ROOT
HETATM    1  O   UNL     1      -7.037  14.269  70.074  1.00  0.00    -0.378 OA 
HETATM    2  H   UNL     1      -7.784  14.808  70.305  1.00  0.00     0.000 HD 
HETATM    3  C   UNL     1      -7.071  13.863  68.709  1.00  0.00    -0.109 C  
HETATM    4  C   UNL     1      -5.876  13.002  68.339  1.00  0.00    -0.077 C  
HETATM    5  C   UNL     1      -6.397  12.326  67.048  1.00  0.00    -0.050 C  
HETATM    6  O   UNL     1      -5.633  12.058  69.403  1.00  0.00    -0.061 OA 
HETATM    7  O   UNL     1      -7.800  12.106  67.279  1.00  0.00    -0.160 OA 
HETATM    8  C   UNL     1      -8.204  12.894  68.423  1.00  0.00    -0.121 C  
HETATM    9  H   UNL     1      -4.886  11.519  69.171  1.00  0.00     0.000 HD 
ENDROOT
BRANCH   5  10
HETATM   10  O   UNL     1      -5.643  11.159  66.817  1.00  0.00    -0.071 OA 
BRANCH  10  11
HETATM   11  P   UNL     1      -5.855  10.094  65.471  1.00  0.00    -0.117 P  
HETATM   12  O   UNL     1      -5.302   8.841  66.362  1.00  0.00    -0.033 OA 
HETATM   13  O   UNL     1      -7.374  10.143  65.684  1.00  0.00    -0.130 OA 
BRANCH  11  14
HETATM   14  O   UNL     1      -6.068   9.028  64.125  1.00  0.00    -0.071 OA 
HETATM   15  P   UNL     1      -7.575   9.373  63.349  1.00  0.00    -0.128 P  
HETATM   16  O   UNL     1      -8.924   9.682  62.655  1.00  0.00    -0.240 OA 
HETATM   17  O   UNL     1      -6.724  10.450  62.449  1.00  0.00    -0.129 OA 
HETATM   18  O   UNL     1      -7.202   8.101  62.376  1.00  0.00    -0.092 OA 
ENDBRANCH  11  14
ENDBRANCH  10  11
ENDBRANCH   5  10
BRANCH   8  19
HETATM   19  C   UNL     1      -9.522  13.609  68.134  1.00  0.00    -0.217 C  
BRANCH  19  20
HETATM   20  O   UNL     1      -9.834  13.360  66.776  1.00  0.00    -0.250 OA 
HETATM   21  P   UNL     1     -11.358  13.163  66.374  1.00  0.00    -0.346 P  
HETATM   22  O   UNL     1     -11.267  13.241  64.782  1.00  0.00    -0.308 OA 
HETATM   23  O   UNL     1     -12.039  11.966  66.925  1.00  0.00    -0.599 OA 
HETATM   24  O   UNL     1     -11.982  14.593  66.704  1.00  0.00    -0.368 OA 
ENDBRANCH  19  20
ENDBRANCH   8  19
TORSDOF 5
ENDMDL
MODEL      244
REMARK 921   NORMALIZED FREE ENERGY PREDICTED BY IDOCK:   -2.62 KCAL/MOL
REMARK 922        TOTAL FREE ENERGY PREDICTED BY IDOCK:   -4.09 KCAL/MOL
REMARK 923 INTER-LIGAND FREE ENERGY PREDICTED BY IDOCK:   -3.67 KCAL/MOL
REMARK 924 INTRA-LIGAND FREE ENERGY PREDICTED BY IDOCK:   -0.42 KCAL/MOL
REMARK 927      BINDING AFFINITY PREDICTED BY RF-SCORE:    0.00 PKD
ROOT
HETATM    1  O   UNL     1      -8.127   6.860  64.159  1.00  0.00    -0.239 OA 
HETATM    2  H   UNL     1      -7.920   5.938  64.259  1.00  0.00     0.000 HD 
HETATM    3  C   UNL     1      -8.242   7.523  65.415  1.00  0.00    -0.135 C  
HETATM    4  C   UNL     1      -8.573   8.996  65.256  1.00  0.00    -0.174 C  
HETATM    5  C   UNL     1      -9.110   9.325  66.669  1.00  0.00    -0.143 C  
HETATM    6  O   UNL     1      -9.577   9.141  64.230  1.00  0.00    -0.250 OA 
HETATM    7  O   UNL     1      -9.819   8.144  67.086  1.00  0.00    -0.177 OA 
HETATM    8  C   UNL     1      -9.451   7.056  66.206  1.00  0.00    -0.072 C  
HETATM    9  H   UNL     1      -9.784  10.063  64.130  1.00  0.00     0.000 HD 
ENDROOT
BRANCH   5  10
HETATM   10  O   UNL     1      -9.897  10.491  66.590  1.00  0.00    -0.186 OA 
BRANCH  10  11
HETATM   11  P   UNL     1      -9.334  12.089  66.941  1.00  0.00    -0.209 P  
HETATM   12  O   UNL     1     -10.191  12.095  68.332  1.00  0.00    -0.203 OA 
HETATM   13  O   UNL     1      -7.952  11.517  67.283  1.00  0.00    -0.138 OA 
BRANCH  11  14
HETATM   14  O   UNL     1      -8.772  13.687  67.293  1.00  0.00    -0.199 OA 
HETATM   15  P   UNL     1      -9.695  14.835  66.387  1.00  0.00    -0.317 P  
HETATM   16  O   UNL     1     -10.521  15.863  65.575  1.00  0.00    -0.359 OA 
HETATM   17  O   UNL     1     -10.719  14.839  67.669  1.00  0.00    -0.262 OA 
HETATM   18  O   UNL     1      -8.687  15.953  67.049  1.00  0.00    -0.192 OA 
ENDBRANCH  11  14
ENDBRANCH  10  11
ENDBRANCH   5  10
BRANCH   8  19
HETATM   19  C   UNL     1      -9.163   5.794  67.016  1.00  0.00    -0.118 C  
BRANCH  19  20
HETATM   20  O   UNL     1      -7.764   5.750  67.223  1.00  0.00    -0.098 OA 
HETATM   21  P   UNL     1      -7.039   4.337  67.198  1.00  0.00    -0.069 P  
HETATM   22  O   UNL     1      -5.507   4.779  67.142  1.00  0.00    -0.012 OA 
HETATM   23  O   UNL     1      -7.399   3.388  68.281  1.00  0.00    -0.050 OA 
HETATM   24  O   UNL     1      -7.267   3.867  65.691  1.00  0.00    -0.068 OA 
ENDBRANCH  19  20
ENDBRANCH   8  19
TORSDOF 5
ENDMDL
MODEL      245
REMARK 921   NORMALIZED FREE ENERGY PREDICTED BY IDOCK:   -2.52 KCAL/MOL
REMARK 922        TOTAL FREE ENERGY PREDICTED BY IDOCK:   -3.96 KCAL/MOL
REMARK 923 INTER-LIGAND FREE ENERGY PREDICTED BY IDOCK:   -3.38 KCAL/MOL
REMARK 924 INTRA-LIGAND FREE ENERGY PREDICTED BY IDOCK:   -0.59 KCAL/MOL
REMARK 927      BINDING AFFINITY PREDICTED BY RF-SCORE:    0.00 PKD
ROOT
HETATM    1  O   UNL     1     -11.807   5.688  72.468  1.00  0.00    -0.358 OA 
HETATM    2  H   UNL     1     -11.484   5.520  73.346  1.00  0.00     0.000 HD 
HETATM    3  C   UNL     1     -10.753   5.756  71.513  1.00  0.00    -0.258 C  
HETATM    4  C   UNL     1     -11.268   6.024  70.110  1.00  0.00    -0.342 C  
HETATM    5  C   UNL     1      -9.978   6.526  69.420  1.00  0.00    -0.158 C  
HETATM    6  O   UNL     1     -12.295   7.036  70.176  1.00  0.00    -0.618 OA 
HETATM    7  O   UNL     1      -9.281   7.280  70.429  1.00  0.00    -0.158 OA 
HETATM    8  C   UNL     1      -9.867   6.972  71.715  1.00  0.00    -0.162 C  
HETATM    9  H   UNL     1     -12.618   7.204  69.298  1.00  0.00     0.000 HD 
ENDROOT
BRANCH   5  10
HETATM   10  O   UNL     1     -10.340   7.262  68.274  1.00  0.00    -0.182 OA 
BRANCH  10  11
HETATM   11  P   UNL     1      -9.223   7.936  67.139  1.00  0.00    -0.161 P  
HETATM   12  O   UNL     1      -9.258   9.362  67.935  1.00  0.00    -0.130 OA 
HETATM   13  O   UNL     1      -8.095   7.110  67.772  1.00  0.00    -0.113 OA 
BRANCH  11  14
HETATM   14  O   UNL     1      -8.105   8.611  66.003  1.00  0.00    -0.102 OA 
HETATM   15  P   UNL     1      -6.958   7.404  65.536  1.00  0.00    -0.062 P  
HETATM   16  O   UNL     1      -5.930   6.323  65.119  1.00  0.00    -0.024 OA 
HETATM   17  O   UNL     1      -8.029   7.017  64.355  1.00  0.00    -0.128 OA 
HETATM   18  O   UNL     1      -6.260   8.608  64.661  1.00  0.00    -0.064 OA 
ENDBRANCH  11  14
ENDBRANCH  10  11
ENDBRANCH   5  10
BRANCH   8  19
HETATM   19  C   UNL     1      -8.772   6.729  72.751  1.00  0.00    -0.121 C  
BRANCH  19  20
HETATM   20  O   UNL     1      -7.537   6.978  72.107  1.00  0.00    -0.089 OA 
HETATM   21  P   UNL     1      -6.429   5.839  72.130  1.00  0.00    -0.056 P  
HETATM   22  O   UNL     1      -5.392   6.399  71.053  1.00  0.00    -0.018 OA 
HETATM   23  O   UNL     1      -5.861   5.495  73.457  1.00  0.00    -0.030 OA 
HETATM   24  O   UNL     1      -7.125   4.673  71.293  1.00  0.00    -0.044 OA 
ENDBRANCH  19  20
ENDBRANCH   8  19
TORSDOF 5
ENDMDL
MODEL      246
REMARK 921   NORMALIZED FREE ENERGY PREDICTED BY IDOCK:   -2.51 KCAL/MOL
REMARK 922        TOTAL FREE ENERGY PREDICTED BY IDOCK:   -3.94 KCAL/MOL
REMARK 923 INTER-LIGAND FREE ENERGY PREDICTED BY IDOCK:   -4.29 KCAL/MOL
REMARK 924 INTRA-LIGAND FREE ENERGY PREDICTED BY IDOCK:    0.35 KCAL/MOL
REMARK 927      BINDING AFFINITY PREDICTED BY RF-SCORE:    0.00 PKD
ROOT
HETATM    1  O   UNL     1      -7.499  14.661  69.873  1.00  0.00    -0.384 OA 
HETATM    2  H   UNL     1      -8.007  15.464  69.849  1.00  0.00     0.000 HD 
HETATM    3  C   UNL     1      -7.380  14.063  68.586  1.00  0.00    -0.120 C  
HETATM    4  C   UNL     1      -6.569  12.780  68.624  1.00  0.00    -0.084 C  
HETATM    5  C   UNL     1      -7.006  12.123  67.293  1.00  0.00    -0.148 C  
HETATM    6  O   UNL     1      -6.963  12.013  69.781  1.00  0.00    -0.346 OA 
HETATM    7  O   UNL     1      -8.396  12.464  67.144  1.00  0.00    -0.175 OA 
HETATM    8  C   UNL     1      -8.706  13.531  68.071  1.00  0.00    -0.181 C  
HETATM    9  H   UNL     1      -6.455  11.210  69.805  1.00  0.00     0.000 HD 
ENDROOT
BRANCH   5  10
HETATM   10  O   UNL     1      -6.739  10.741  67.367  1.00  0.00    -0.072 OA 
BRANCH  10  11
HETATM   11  P   UNL     1      -7.920   9.523  67.698  1.00  0.00    -0.105 P  
HETATM   12  O   UNL     1      -8.284   9.428  66.108  1.00  0.00    -0.109 OA 
HETATM   13  O   UNL     1      -6.793   8.511  67.948  1.00  0.00    -0.065 OA 
BRANCH  11  14
HETATM   14  O   UNL     1      -9.103   8.303  68.029  1.00  0.00    -0.137 OA 
HETATM   15  P   UNL     1      -9.979   8.723  69.460  1.00  0.00    -0.207 P  
HETATM   16  O   UNL     1     -10.763   9.099  70.741  1.00  0.00    -0.223 OA 
HETATM   17  O   UNL     1     -10.993   9.530  68.454  1.00  0.00    -0.172 OA 
HETATM   18  O   UNL     1     -10.738   7.280  69.246  1.00  0.00    -0.222 OA 
ENDBRANCH  11  14
ENDBRANCH  10  11
ENDBRANCH   5  10
BRANCH   8  19
HETATM   19  C   UNL     1      -9.535  14.610  67.378  1.00  0.00    -0.201 C  
BRANCH  19  20
HETATM   20  O   UNL     1      -9.202  15.840  67.993  1.00  0.00    -0.187 OA 
HETATM   21  P   UNL     1      -8.226  16.831  67.224  1.00  0.00    -0.197 P  
HETATM   22  O   UNL     1      -8.393  18.159  68.092  1.00  0.00    -0.261 OA 
HETATM   23  O   UNL     1      -6.833  16.361  67.020  1.00  0.00    -0.184 OA 
HETATM   24  O   UNL     1      -9.080  17.211  65.932  1.00  0.00    -0.513 OA 
ENDBRANCH  19  20
ENDBRANCH   8  19
TORSDOF 5
ENDMDL
MODEL      247
REMARK 921   NORMALIZED FREE ENERGY PREDICTED BY IDOCK:   -2.45 KCAL/MOL
REMARK 922        TOTAL FREE ENERGY PREDICTED BY IDOCK:   -3.87 KCAL/MOL
REMARK 923 INTER-LIGAND FREE ENERGY PREDICTED BY IDOCK:   -3.31 KCAL/MOL
REMARK 924 INTRA-LIGAND FREE ENERGY PREDICTED BY IDOCK:   -0.55 KCAL/MOL
REMARK 927      BINDING AFFINITY PREDICTED BY RF-SCORE:    0.00 PKD
ROOT
HETATM    1  O   UNL     1      -7.123  14.368  70.197  1.00  0.00    -0.395 OA 
HETATM    2  H   UNL     1      -7.731  15.082  70.348  1.00  0.00     0.000 HD 
HETATM    3  C   UNL     1      -7.161  13.908  68.850  1.00  0.00    -0.110 C  
HETATM    4  C   UNL     1      -6.189  12.767  68.608  1.00  0.00    -0.071 C  
HETATM    5  C   UNL     1      -6.767  12.166  67.305  1.00  0.00    -0.144 C  
HETATM    6  O   UNL     1      -6.256  11.852  69.722  1.00  0.00    -0.120 OA 
HETATM    7  O   UNL     1      -8.195  12.301  67.431  1.00  0.00    -0.159 OA 
HETATM    8  C   UNL     1      -8.473  13.224  68.510  1.00  0.00    -0.067 C  
HETATM    9  H   UNL     1      -5.648  11.138  69.571  1.00  0.00     0.000 HD 
ENDROOT
BRANCH   5  10
HETATM   10  O   UNL     1      -6.306  10.841  67.179  1.00  0.00    -0.065 OA 
BRANCH  10  11
HETATM   11  P   UNL     1      -6.867   9.706  66.001  1.00  0.00    -0.096 P  
HETATM   12  O   UNL     1      -5.935  10.414  64.861  1.00  0.00    -0.126 OA 
HETATM   13  O   UNL     1      -6.006   8.616  66.653  1.00  0.00    -0.051 OA 
BRANCH  11  14
HETATM   14  O   UNL     1      -7.429   8.572  64.821  1.00  0.00    -0.088 OA 
HETATM   15  P   UNL     1      -7.757   7.057  65.589  1.00  0.00    -0.116 P  
HETATM   16  O   UNL     1      -8.051   5.701  66.276  1.00  0.00    -0.104 OA 
HETATM   17  O   UNL     1      -9.267   7.650  65.837  1.00  0.00    -0.115 OA 
HETATM   18  O   UNL     1      -8.097   6.523  64.071  1.00  0.00    -0.106 OA 
ENDBRANCH  11  14
ENDBRANCH  10  11
ENDBRANCH   5  10
BRANCH   8  19
HETATM   19  C   UNL     1      -9.554  14.218  68.090  1.00  0.00    -0.218 C  
BRANCH  19  20
HETATM   20  O   UNL     1     -10.638  14.043  68.984  1.00  0.00    -0.238 OA 
HETATM   21  P   UNL     1     -11.329  15.336  69.597  1.00  0.00    -0.345 P  
HETATM   22  O   UNL     1     -12.643  14.703  70.245  1.00  0.00    -0.342 OA 
HETATM   23  O   UNL     1     -10.495  16.164  70.504  1.00  0.00    -0.074 OA 
HETATM   24  O   UNL     1     -11.944  16.037  68.304  1.00  0.00    -0.163 OA 
ENDBRANCH  19  20
ENDBRANCH   8  19
TORSDOF 5
ENDMDL
MODEL      248
REMARK 921   NORMALIZED FREE ENERGY PREDICTED BY IDOCK:   -2.44 KCAL/MOL
REMARK 922        TOTAL FREE ENERGY PREDICTED BY IDOCK:   -3.86 KCAL/MOL
REMARK 923 INTER-LIGAND FREE ENERGY PREDICTED BY IDOCK:   -4.23 KCAL/MOL
REMARK 924 INTRA-LIGAND FREE ENERGY PREDICTED BY IDOCK:    0.37 KCAL/MOL
REMARK 927      BINDING AFFINITY PREDICTED BY RF-SCORE:    0.00 PKD
ROOT
HETATM    1  O   UNL     1      -9.274   9.228  63.673  1.00  0.00    -0.418 OA 
HETATM    2  H   UNL     1     -10.197   9.240  63.446  1.00  0.00     0.000 HD 
HETATM    3  C   UNL     1      -9.051   9.589  65.032  1.00  0.00    -0.228 C  
HETATM    4  C   UNL     1      -7.576   9.570  65.394  1.00  0.00    -0.106 C  
HETATM    5  C   UNL     1      -7.582  10.437  66.675  1.00  0.00    -0.114 C  
HETATM    6  O   UNL     1      -6.824  10.170  64.318  1.00  0.00    -0.128 OA 
HETATM    7  O   UNL     1      -8.577  11.449  66.439  1.00  0.00    -0.175 OA 
HETATM    8  C   UNL     1      -9.379  11.046  65.304  1.00  0.00    -0.216 C  
HETATM    9  H   UNL     1      -5.901  10.158  64.544  1.00  0.00     0.000 HD 
ENDROOT
BRANCH   5  10
HETATM   10  O   UNL     1      -6.278  10.925  66.892  1.00  0.00    -0.070 OA 
BRANCH  10  11
HETATM   11  P   UNL     1      -5.866  12.181  68.007  1.00  0.00    -0.079 P  
HETATM   12  O   UNL     1      -6.762  13.247  67.153  1.00  0.00    -0.162 OA 
HETATM   13  O   UNL     1      -6.807  11.555  69.046  1.00  0.00    -0.090 OA 
BRANCH  11  14
HETATM   14  O   UNL     1      -5.454  13.438  69.123  1.00  0.00    -0.073 OA 
HETATM   15  P   UNL     1      -6.161  14.927  68.600  1.00  0.00    -0.099 P  
HETATM   16  O   UNL     1      -6.794  16.261  68.130  1.00  0.00    -0.122 OA 
HETATM   17  O   UNL     1      -7.467  14.476  69.484  1.00  0.00    -0.121 OA 
HETATM   18  O   UNL     1      -5.379  15.586  69.887  1.00  0.00    -0.101 OA 
ENDBRANCH  11  14
ENDBRANCH  10  11
ENDBRANCH   5  10
BRANCH   8  19
HETATM   19  C   UNL     1     -10.861  11.263  65.600  1.00  0.00    -0.177 C  
BRANCH  19  20
HETATM   20  O   UNL     1     -11.051  12.659  65.736  1.00  0.00    -0.282 OA 
HETATM   21  P   UNL     1     -11.989  13.401  64.689  1.00  0.00    -0.442 P  
HETATM   22  O   UNL     1     -12.169  14.822  65.394  1.00  0.00    -0.256 OA 
HETATM   23  O   UNL     1     -11.516  13.431  63.283  1.00  0.00    -0.090 OA 
HETATM   24  O   UNL     1     -13.410  12.742  64.983  1.00  0.00    -0.678 OA 
ENDBRANCH  19  20
ENDBRANCH   8  19
TORSDOF 5
ENDMDL
MODEL      249
REMARK 921   NORMALIZED FREE ENERGY PREDICTED BY IDOCK:   -2.43 KCAL/MOL
REMARK 922        TOTAL FREE ENERGY PREDICTED BY IDOCK:   -3.84 KCAL/MOL
REMARK 923 INTER-LIGAND FREE ENERGY PREDICTED BY IDOCK:   -3.61 KCAL/MOL
REMARK 924 INTRA-LIGAND FREE ENERGY PREDICTED BY IDOCK:   -0.24 KCAL/MOL
REMARK 927      BINDING AFFINITY PREDICTED BY RF-SCORE:    0.00 PKD
ROOT
HETATM    1  O   UNL     1      -7.117  14.261  70.033  1.00  0.00    -0.378 OA 
HETATM    2  H   UNL     1      -7.851  14.803  70.299  1.00  0.00     0.000 HD 
HETATM    3  C   UNL     1      -7.222  13.846  68.674  1.00  0.00    -0.108 C  
HETATM    4  C   UNL     1      -6.050  12.979  68.249  1.00  0.00    -0.086 C  
HETATM    5  C   UNL     1      -6.637  12.297  66.991  1.00  0.00    -0.043 C  
HETATM    6  O   UNL     1      -5.755  12.042  69.305  1.00  0.00    -0.064 OA 
HETATM    7  O   UNL     1      -8.027  12.081  67.295  1.00  0.00    -0.157 OA 
HETATM    8  C   UNL     1      -8.370  12.878  68.453  1.00  0.00    -0.116 C  
HETATM    9  H   UNL     1      -5.021  11.500  69.039  1.00  0.00     0.000 HD 
ENDROOT
BRANCH   5  10
HETATM   10  O   UNL     1      -5.899  11.126  66.730  1.00  0.00    -0.081 OA 
BRANCH  10  11
HETATM   11  P   UNL     1      -6.159  10.072  65.384  1.00  0.00    -0.111 P  
HETATM   12  O   UNL     1      -5.527   8.823  66.226  1.00  0.00    -0.034 OA 
HETATM   13  O   UNL     1      -7.665  10.080  65.681  1.00  0.00    -0.123 OA 
BRANCH  11  14
HETATM   14  O   UNL     1      -6.420   9.017  64.037  1.00  0.00    -0.085 OA 
HETATM   15  P   UNL     1      -7.981   9.324  63.358  1.00  0.00    -0.165 P  
HETATM   16  O   UNL     1      -9.378   9.600  62.749  1.00  0.00    -0.247 OA 
HETATM   17  O   UNL     1      -7.219  10.439  62.424  1.00  0.00    -0.135 OA 
HETATM   18  O   UNL     1      -7.630   8.076  62.347  1.00  0.00    -0.102 OA 
ENDBRANCH  11  14
ENDBRANCH  10  11
ENDBRANCH   5  10
BRANCH   8  19
HETATM   19  C   UNL     1      -9.700  13.595  68.227  1.00  0.00    -0.231 C  
BRANCH  19  20
HETATM   20  O   UNL     1      -9.622  14.828  68.919  1.00  0.00    -0.216 OA 
HETATM   21  P   UNL     1     -10.360  16.091  68.298  1.00  0.00    -0.283 P  
HETATM   22  O   UNL     1     -10.290  17.116  69.518  1.00  0.00    -0.250 OA 
HETATM   23  O   UNL     1      -9.839  16.591  67.001  1.00  0.00    -0.245 OA 
HETATM   24  O   UNL     1     -11.892  15.654  68.366  1.00  0.00    -0.346 OA 
ENDBRANCH  19  20
ENDBRANCH   8  19
TORSDOF 5
ENDMDL
MODEL      250
REMARK 921   NORMALIZED FREE ENERGY PREDICTED BY IDOCK:   -2.42 KCAL/MOL
REMARK 922        TOTAL FREE ENERGY PREDICTED BY IDOCK:   -3.83 KCAL/MOL
REMARK 923 INTER-LIGAND FREE ENERGY PREDICTED BY IDOCK:   -3.64 KCAL/MOL
REMARK 924 INTRA-LIGAND FREE ENERGY PREDICTED BY IDOCK:   -0.19 KCAL/MOL
REMARK 927      BINDING AFFINITY PREDICTED BY RF-SCORE:    0.00 PKD
ROOT
HETATM    1  O   UNL     1      -7.252  14.274  70.183  1.00  0.00    -0.387 OA 
HETATM    2  H   UNL     1      -7.708  15.083  69.984  1.00  0.00     0.000 HD 
HETATM    3  C   UNL     1      -6.768  13.630  69.008  1.00  0.00    -0.111 C  
HETATM    4  C   UNL     1      -6.039  12.336  69.325  1.00  0.00    -0.094 C  
HETATM    5  C   UNL     1      -6.073  11.639  67.944  1.00  0.00    -0.050 C  
HETATM    6  O   UNL     1      -6.782  11.616  70.331  1.00  0.00    -0.490 OA 
HETATM    7  O   UNL     1      -7.345  11.999  67.374  1.00  0.00    -0.129 OA 
HETATM    8  C   UNL     1      -7.891  13.102  68.134  1.00  0.00    -0.145 C  
HETATM    9  H   UNL     1      -6.326  10.806  70.529  1.00  0.00     0.000 HD 
ENDROOT
BRANCH   5  10
HETATM   10  O   UNL     1      -5.877  10.257  68.133  1.00  0.00    -0.041 OA 
BRANCH  10  11
HETATM   11  P   UNL     1      -7.055   9.037  67.797  1.00  0.00    -0.080 P  
HETATM   12  O   UNL     1      -6.582   8.997  66.234  1.00  0.00    -0.065 OA 
HETATM   13  O   UNL     1      -6.190   8.010  68.541  1.00  0.00    -0.042 OA 
BRANCH  11  14
HETATM   14  O   UNL     1      -8.233   7.815  67.460  1.00  0.00    -0.121 OA 
HETATM   15  P   UNL     1      -9.773   8.316  68.067  1.00  0.00    -0.175 P  
HETATM   16  O   UNL     1     -11.152   8.765  68.612  1.00  0.00     0.066 OA 
HETATM   17  O   UNL     1      -9.985   9.022  66.601  1.00  0.00    -0.232 OA 
HETATM   18  O   UNL     1     -10.295   6.843  67.556  1.00  0.00    -0.172 OA 
ENDBRANCH  11  14
ENDBRANCH  10  11
ENDBRANCH   5  10
BRANCH   8  19
HETATM   19  C   UNL     1      -8.446  14.170  67.193  1.00  0.00    -0.195 C  
BRANCH  19  20
HETATM   20  O   UNL     1      -9.844  13.962  67.119  1.00  0.00    -0.232 OA 
HETATM   21  P   UNL     1     -10.591  13.379  68.395  1.00  0.00    -0.246 P  
HETATM   22  O   UNL     1     -12.117  13.618  67.991  1.00  0.00    -0.354 OA 
HETATM   23  O   UNL     1     -10.236  11.994  68.794  1.00  0.00    -0.204 OA 
HETATM   24  O   UNL     1     -10.383  14.540  69.468  1.00  0.00    -0.142 OA 
ENDBRANCH  19  20
ENDBRANCH   8  19
TORSDOF 5
ENDMDL
MODEL      251
REMARK 921   NORMALIZED FREE ENERGY PREDICTED BY IDOCK:   -2.31 KCAL/MOL
REMARK 922        TOTAL FREE ENERGY PREDICTED BY IDOCK:   -3.69 KCAL/MOL
REMARK 923 INTER-LIGAND FREE ENERGY PREDICTED BY IDOCK:   -2.85 KCAL/MOL
REMARK 924 INTRA-LIGAND FREE ENERGY PREDICTED BY IDOCK:   -0.84 KCAL/MOL
REMARK 927      BINDING AFFINITY PREDICTED BY RF-SCORE:    0.00 PKD
ROOT
HETATM    1  O   UNL     1      -6.007  14.583  69.121  1.00  0.00    -0.090 OA 
HETATM    2  H   UNL     1      -6.553  15.280  68.776  1.00  0.00     0.000 HD 
HETATM    3  C   UNL     1      -6.119  13.386  68.358  1.00  0.00    -0.092 C  
HETATM    4  C   UNL     1      -5.247  12.272  68.909  1.00  0.00    -0.054 C  
HETATM    5  C   UNL     1      -5.908  11.036  68.253  1.00  0.00    -0.046 C  
HETATM    6  O   UNL     1      -5.355  12.263  70.348  1.00  0.00    -0.102 OA 
HETATM    7  O   UNL     1      -7.316  11.333  68.227  1.00  0.00    -0.085 OA 
HETATM    8  C   UNL     1      -7.490  12.746  68.484  1.00  0.00    -0.120 C  
HETATM    9  H   UNL     1      -4.809  11.566  70.693  1.00  0.00     0.000 HD 
ENDROOT
BRANCH   5  10
HETATM   10  O   UNL     1      -5.556   9.892  68.995  1.00  0.00    -0.036 OA 
BRANCH  10  11
HETATM   11  P   UNL     1      -6.650   8.630  69.445  1.00  0.00    -0.045 P  
HETATM   12  O   UNL     1      -5.555   7.506  68.993  1.00  0.00    -0.021 OA 
HETATM   13  O   UNL     1      -6.378   8.934  70.925  1.00  0.00    -0.042 OA 
BRANCH  11  14
HETATM   14  O   UNL     1      -7.744   7.368  69.895  1.00  0.00    -0.095 OA 
HETATM   15  P   UNL     1      -9.126   8.054  70.678  1.00  0.00    -0.157 P  
HETATM   16  O   UNL     1     -10.363   8.668  71.379  1.00  0.00    -0.218 OA 
HETATM   17  O   UNL     1      -9.769   8.167  69.172  1.00  0.00    -0.160 OA 
HETATM   18  O   UNL     1      -9.606   6.495  70.884  1.00  0.00    -0.174 OA 
ENDBRANCH  11  14
ENDBRANCH  10  11
ENDBRANCH   5  10
BRANCH   8  19
HETATM   19  C   UNL     1      -8.501  13.341  67.506  1.00  0.00    -0.202 C  
BRANCH  19  20
HETATM   20  O   UNL     1      -9.088  14.455  68.153  1.00  0.00    -0.180 OA 
HETATM   21  P   UNL     1      -9.278  15.797  67.323  1.00  0.00    -0.218 P  
HETATM   22  O   UNL     1     -10.232  16.627  68.298  1.00  0.00    -0.256 OA 
HETATM   23  O   UNL     1      -8.038  16.488  66.889  1.00  0.00    -0.174 OA 
HETATM   24  O   UNL     1     -10.317  15.355  66.198  1.00  0.00    -0.283 OA 
ENDBRANCH  19  20
ENDBRANCH   8  19
TORSDOF 5
ENDMDL
MODEL      252
REMARK 921   NORMALIZED FREE ENERGY PREDICTED BY IDOCK:   -2.02 KCAL/MOL
REMARK 922        TOTAL FREE ENERGY PREDICTED BY IDOCK:   -3.31 KCAL/MOL
REMARK 923 INTER-LIGAND FREE ENERGY PREDICTED BY IDOCK:   -4.01 KCAL/MOL
REMARK 924 INTRA-LIGAND FREE ENERGY PREDICTED BY IDOCK:    0.70 KCAL/MOL
REMARK 927      BINDING AFFINITY PREDICTED BY RF-SCORE:    0.00 PKD
ROOT
HETATM    1  O   UNL     1     -10.126  12.361  63.771  1.00  0.00    -0.490 OA 
HETATM    2  H   UNL     1      -9.879  13.260  63.586  1.00  0.00     0.000 HD 
HETATM    3  C   UNL     1     -10.507  12.179  65.131  1.00  0.00    -0.281 C  
HETATM    4  C   UNL     1     -10.901  10.743  65.427  1.00  0.00     0.008 C  
HETATM    5  C   UNL     1     -10.776  10.721  66.969  1.00  0.00    -0.265 C  
HETATM    6  O   UNL     1      -9.964   9.858  64.779  1.00  0.00    -0.395 OA 
HETATM    7  O   UNL     1      -9.651  11.568  67.266  1.00  0.00    -0.171 OA 
HETATM    8  C   UNL     1      -9.337  12.341  66.085  1.00  0.00    -0.176 C  
HETATM    9  H   UNL     1     -10.212   8.959  64.964  1.00  0.00     0.000 HD 
ENDROOT
BRANCH   5  10
HETATM   10  O   UNL     1     -10.640   9.384  67.389  1.00  0.00    -0.265 OA 
BRANCH  10  11
HETATM   11  P   UNL     1      -9.132   8.585  67.670  1.00  0.00    -0.135 P  
HETATM   12  O   UNL     1      -8.518   9.952  68.322  1.00  0.00    -0.109 OA 
HETATM   13  O   UNL     1      -9.772   7.801  68.824  1.00  0.00    -0.153 OA 
BRANCH  11  14
HETATM   14  O   UNL     1      -7.623   7.786  67.952  1.00  0.00    -0.110 OA 
HETATM   15  P   UNL     1      -7.725   6.150  67.402  1.00  0.00    -0.094 P  
HETATM   16  O   UNL     1      -7.817   4.684  66.910  1.00  0.00    -0.097 OA 
HETATM   17  O   UNL     1      -7.223   6.735  65.953  1.00  0.00    -0.067 OA 
HETATM   18  O   UNL     1      -6.199   6.005  67.996  1.00  0.00    -0.026 OA 
ENDBRANCH  11  14
ENDBRANCH  10  11
ENDBRANCH   5  10
BRANCH   8  19
HETATM   19  C   UNL     1      -9.089  13.801  66.458  1.00  0.00    -0.129 C  
BRANCH  19  20
HETATM   20  O   UNL     1     -10.353  14.369  66.749  1.00  0.00    -0.268 OA 
HETATM   21  P   UNL     1     -10.646  14.841  68.238  1.00  0.00    -0.254 P  
HETATM   22  O   UNL     1     -11.989  15.679  68.035  1.00  0.00    -0.157 OA 
HETATM   23  O   UNL     1     -10.697  13.777  69.271  1.00  0.00    -0.177 OA 
HETATM   24  O   UNL     1      -9.589  16.018  68.434  1.00  0.00    -0.200 OA 
ENDBRANCH  19  20
ENDBRANCH   8  19
TORSDOF 5
ENDMDL
MODEL      253
REMARK 921   NORMALIZED FREE ENERGY PREDICTED BY IDOCK:   -1.94 KCAL/MOL
REMARK 922        TOTAL FREE ENERGY PREDICTED BY IDOCK:   -3.22 KCAL/MOL
REMARK 923 INTER-LIGAND FREE ENERGY PREDICTED BY IDOCK:   -3.50 KCAL/MOL
REMARK 924 INTRA-LIGAND FREE ENERGY PREDICTED BY IDOCK:    0.29 KCAL/MOL
REMARK 927      BINDING AFFINITY PREDICTED BY RF-SCORE:    0.00 PKD
ROOT
HETATM    1  O   UNL     1      -9.210  12.511  65.733  1.00  0.00    -0.442 OA 
HETATM    2  H   UNL     1      -8.585  13.164  65.440  1.00  0.00     0.000 HD 
HETATM    3  C   UNL     1      -9.146  12.301  67.140  1.00  0.00    -0.193 C  
HETATM    4  C   UNL     1     -10.144  11.256  67.609  1.00  0.00    -0.179 C  
HETATM    5  C   UNL     1      -9.545  10.882  68.985  1.00  0.00    -0.156 C  
HETATM    6  O   UNL     1     -10.136  10.153  66.679  1.00  0.00    -0.205 OA 
HETATM    7  O   UNL     1      -8.119  10.943  68.803  1.00  0.00    -0.130 OA 
HETATM    8  C   UNL     1      -7.845  11.645  67.569  1.00  0.00    -0.137 C  
HETATM    9  H   UNL     1     -10.761   9.500  66.971  1.00  0.00     0.000 HD 
ENDROOT
BRANCH   5  10
HETATM   10  O   UNL     1     -10.042   9.618  69.361  1.00  0.00    -0.181 OA 
BRANCH  10  11
HETATM   11  P   UNL     1      -9.085   8.335  70.016  1.00  0.00    -0.152 P  
HETATM   12  O   UNL     1      -8.440   8.050  68.542  1.00  0.00    -0.126 OA 
HETATM   13  O   UNL     1      -8.178   9.370  70.696  1.00  0.00    -0.176 OA 
BRANCH  11  14
HETATM   14  O   UNL     1      -8.127   7.051  70.670  1.00  0.00    -0.113 OA 
HETATM   15  P   UNL     1      -9.086   6.118  71.767  1.00  0.00    -0.142 P  
HETATM   16  O   UNL     1      -9.944   5.283  72.749  1.00  0.00    -0.156 OA 
HETATM   17  O   UNL     1      -9.504   5.228  70.452  1.00  0.00    -0.151 OA 
HETATM   18  O   UNL     1      -7.701   5.273  72.035  1.00  0.00    -0.095 OA 
ENDBRANCH  11  14
ENDBRANCH  10  11
ENDBRANCH   5  10
BRANCH   8  19
HETATM   19  C   UNL     1      -6.723  12.660  67.774  1.00  0.00    -0.127 C  
BRANCH  19  20
HETATM   20  O   UNL     1      -7.147  13.536  68.802  1.00  0.00    -0.098 OA 
HETATM   21  P   UNL     1      -7.151  15.098  68.510  1.00  0.00    -0.126 P  
HETATM   22  O   UNL     1      -7.977  15.641  69.763  1.00  0.00    -0.162 OA 
HETATM   23  O   UNL     1      -5.829  15.733  68.282  1.00  0.00    -0.100 OA 
HETATM   24  O   UNL     1      -8.246  15.224  67.357  1.00  0.00    -0.156 OA 
ENDBRANCH  19  20
ENDBRANCH   8  19
TORSDOF 5
ENDMDL
MODEL      254
REMARK 921   NORMALIZED FREE ENERGY PREDICTED BY IDOCK:   -1.34 KCAL/MOL
REMARK 922        TOTAL FREE ENERGY PREDICTED BY IDOCK:   -2.43 KCAL/MOL
REMARK 923 INTER-LIGAND FREE ENERGY PREDICTED BY IDOCK:   -3.42 KCAL/MOL
REMARK 924 INTRA-LIGAND FREE ENERGY PREDICTED BY IDOCK:    0.99 KCAL/MOL
REMARK 927      BINDING AFFINITY PREDICTED BY RF-SCORE:    0.00 PKD
ROOT
HETATM    1  O   UNL     1     -11.960   8.104  70.792  1.00  0.00    -0.442 OA 
HETATM    2  H   UNL     1     -12.398   8.046  71.633  1.00  0.00     0.000 HD 
HETATM    3  C   UNL     1     -11.697   6.820  70.234  1.00  0.00    -0.341 C  
HETATM    4  C   UNL     1     -10.997   6.913  68.890  1.00  0.00    -0.168 C  
HETATM    5  C   UNL     1     -10.413   5.485  68.769  1.00  0.00    -0.191 C  
HETATM    6  O   UNL     1      -9.975   7.929  68.965  1.00  0.00    -0.178 OA 
HETATM    7  O   UNL     1     -10.037   5.119  70.109  1.00  0.00    -0.228 OA 
HETATM    8  C   UNL     1     -10.659   6.047  71.028  1.00  0.00    -0.246 C  
HETATM    9  H   UNL     1      -9.537   7.987  68.124  1.00  0.00     0.000 HD 
ENDROOT
BRANCH   5  10
HETATM   10  O   UNL     1      -9.353   5.511  67.842  1.00  0.00    -0.108 OA 
BRANCH  10  11
HETATM   11  P   UNL     1      -9.504   5.145  66.158  1.00  0.00    -0.164 P  
HETATM   12  O   UNL     1     -11.128   5.061  66.311  1.00  0.00    -0.108 OA 
HETATM   13  O   UNL     1      -9.173   6.605  65.820  1.00  0.00    -0.049 OA 
BRANCH  11  14
HETATM   14  O   UNL     1      -9.655   4.779  64.474  1.00  0.00    -0.049 OA 
HETATM   15  P   UNL     1      -8.274   3.877  63.954  1.00  0.00    -0.095 P  
HETATM   16  O   UNL     1      -7.037   3.069  63.489  1.00  0.00    -0.046 OA 
HETATM   17  O   UNL     1      -9.132   2.547  64.390  1.00  0.00    -0.114 OA 
HETATM   18  O   UNL     1      -8.958   3.963  62.461  1.00  0.00    -0.090 OA 
ENDBRANCH  11  14
ENDBRANCH  10  11
ENDBRANCH   5  10
BRANCH   8  19
HETATM   19  C   UNL     1     -11.272   5.294  72.207  1.00  0.00    -0.114 C  
BRANCH  19  20
HETATM   20  O   UNL     1     -10.387   5.455  73.300  1.00  0.00    -0.180 OA 
HETATM   21  P   UNL     1      -9.002   6.193  73.049  1.00  0.00    -0.128 P  
HETATM   22  O   UNL     1      -8.507   6.433  74.547  1.00  0.00    -0.125 OA 
HETATM   23  O   UNL     1      -8.039   5.507  72.152  1.00  0.00    -0.109 OA 
HETATM   24  O   UNL     1      -9.470   7.665  72.653  1.00  0.00    -0.150 OA 
ENDBRANCH  19  20
ENDBRANCH   8  19
TORSDOF 5
ENDMDL
MODEL      255
REMARK 921   NORMALIZED FREE ENERGY PREDICTED BY IDOCK:    0.79 KCAL/MOL
REMARK 922        TOTAL FREE ENERGY PREDICTED BY IDOCK:    0.31 KCAL/MOL
REMARK 923 INTER-LIGAND FREE ENERGY PREDICTED BY IDOCK:   -0.68 KCAL/MOL
REMARK 924 INTRA-LIGAND FREE ENERGY PREDICTED BY IDOCK:    0.99 KCAL/MOL
REMARK 927      BINDING AFFINITY PREDICTED BY RF-SCORE:    0.00 PKD
ROOT
HETATM    1  O   UNL     1     -12.350  12.171  72.606  1.00  0.00     1.231 OA 
HETATM    2  H   UNL     1     -12.844  11.843  73.348  1.00  0.00     0.000 HD 
HETATM    3  C   UNL     1     -12.909  11.756  71.363  1.00  0.00    -0.335 C  
HETATM    4  C   UNL     1     -12.119  12.280  70.177  1.00  0.00    -0.287 C  
HETATM    5  C   UNL     1     -12.606  11.324  69.062  1.00  0.00     0.518 C  
HETATM    6  O   UNL     1     -10.711  12.139  70.456  1.00  0.00     0.990 OA 
HETATM    7  O   UNL     1     -12.781  10.050  69.709  1.00  0.00     0.184 OA 
HETATM    8  C   UNL     1     -12.777  10.260  71.140  1.00  0.00    -0.403 C  
HETATM    9  H   UNL     1     -10.216  12.467  69.713  1.00  0.00     0.000 HD 
ENDROOT
BRANCH   5  10
HETATM   10  O   UNL     1     -11.660  11.335  68.018  1.00  0.00    -0.407 OA 
BRANCH  10  11
HETATM   11  P   UNL     1     -11.858  12.164  66.513  1.00  0.00     0.090 P  
HETATM   12  O   UNL     1     -12.337  13.510  67.306  1.00  0.00    -0.297 OA 
HETATM   13  O   UNL     1     -10.332  12.259  66.375  1.00  0.00    -0.221 OA 
BRANCH  11  14
HETATM   14  O   UNL     1     -12.056  12.994  65.008  1.00  0.00    -0.374 OA 
HETATM   15  P   UNL     1     -11.370  14.577  65.128  1.00  0.00    -0.402 P  
HETATM   16  O   UNL     1     -10.755  15.994  65.236  1.00  0.00    -0.398 OA 
HETATM   17  O   UNL     1      -9.971  13.874  64.635  1.00  0.00    -0.267 OA 
HETATM   18  O   UNL     1     -11.934  14.783  63.597  1.00  0.00    -0.237 OA 
ENDBRANCH  11  14
ENDBRANCH  10  11
ENDBRANCH   5  10
BRANCH   8  19
HETATM   19  C   UNL     1     -13.909   9.472  71.794  1.00  0.00    -0.239 C  
BRANCH  19  20
HETATM   20  O   UNL     1     -13.303   8.462  72.580  1.00  0.00    -0.245 OA 
HETATM   21  P   UNL     1     -12.956   7.073  71.890  1.00  0.00    -0.038 P  
HETATM   22  O   UNL     1     -12.032   6.401  73.004  1.00  0.00     0.194 OA 
HETATM   23  O   UNL     1     -14.107   6.259  71.427  1.00  0.00     0.555 OA 
HETATM   24  O   UNL     1     -11.861   7.496  70.812  1.00  0.00    -0.287 OA 
ENDBRANCH  19  20
ENDBRANCH   8  19
TORSDOF 5
ENDMDL
MODEL      256
REMARK 921   NORMALIZED FREE ENERGY PREDICTED BY IDOCK:    1.50 KCAL/MOL
REMARK 922        TOTAL FREE ENERGY PREDICTED BY IDOCK:    1.23 KCAL/MOL
REMARK 923 INTER-LIGAND FREE ENERGY PREDICTED BY IDOCK:   -0.07 KCAL/MOL
REMARK 924 INTRA-LIGAND FREE ENERGY PREDICTED BY IDOCK:    1.31 KCAL/MOL
REMARK 927      BINDING AFFINITY PREDICTED BY RF-SCORE:    0.00 PKD
ROOT
HETATM    1  O   UNL     1     -11.470  14.176  68.826  1.00  0.00    -0.262 OA 
HETATM    2  H   UNL     1     -12.103  13.809  69.432  1.00  0.00     0.000 HD 
HETATM    3  C   UNL     1     -10.169  14.269  69.398  1.00  0.00     0.080 C  
HETATM    4  C   UNL     1      -9.159  14.857  68.429  1.00  0.00    -0.185 C  
HETATM    5  C   UNL     1      -8.041  15.291  69.406  1.00  0.00    -0.230 C  
HETATM    6  O   UNL     1      -9.764  15.972  67.742  1.00  0.00    -0.219 OA 
HETATM    7  O   UNL     1      -8.729  15.745  70.585  1.00  0.00     1.376 OA 
HETATM    8  C   UNL     1     -10.101  15.293  70.516  1.00  0.00     0.266 C  
HETATM    9  H   UNL     1      -9.132  16.340  67.136  1.00  0.00     0.000 HD 
ENDROOT
BRANCH   5  10
HETATM   10  O   UNL     1      -7.245  16.265  68.771  1.00  0.00    -0.156 OA 
BRANCH  10  11
HETATM   11  P   UNL     1      -7.758  17.251  67.447  1.00  0.00    -0.186 P  
HETATM   12  O   UNL     1      -8.180  18.442  68.484  1.00  0.00    -0.310 OA 
HETATM   13  O   UNL     1      -6.289  17.499  67.074  1.00  0.00    -0.138 OA 
BRANCH  11  14
HETATM   14  O   UNL     1      -8.271  18.239  66.122  1.00  0.00    -0.423 OA 
HETATM   15  P   UNL     1      -7.170  19.559  65.927  1.00  0.00    -0.263 P  
HETATM   16  O   UNL     1      -6.184  20.741  65.752  1.00  0.00    -0.225 OA 
HETATM   17  O   UNL     1      -6.330  18.552  64.940  1.00  0.00    -0.438 OA 
HETATM   18  O   UNL     1      -8.193  20.050  64.737  1.00  0.00     0.500 OA 
ENDBRANCH  11  14
ENDBRANCH  10  11
ENDBRANCH   5  10
BRANCH   8  19
HETATM   19  C   UNL     1     -10.538  14.717  71.861  1.00  0.00     2.069 C  
BRANCH  19  20
HETATM   20  O   UNL     1     -11.747  14.017  71.633  1.00  0.00     0.087 OA 
HETATM   21  P   UNL     1     -13.120  14.774  71.889  1.00  0.00    -0.405 P  
HETATM   22  O   UNL     1     -14.157  13.766  71.216  1.00  0.00    -0.059 OA 
HETATM   23  O   UNL     1     -13.410  15.160  73.293  1.00  0.00    -0.467 OA 
HETATM   24  O   UNL     1     -13.077  15.931  70.793  1.00  0.00    -0.490 OA 
ENDBRANCH  19  20
ENDBRANCH   8  19
TORSDOF 5
ENDMDL
MODEL      257
REMARK 921   NORMALIZED FREE ENERGY PREDICTED BY IDOCK:   23.20 KCAL/MOL
REMARK 922        TOTAL FREE ENERGY PREDICTED BY IDOCK:   29.28 KCAL/MOL
REMARK 923 INTER-LIGAND FREE ENERGY PREDICTED BY IDOCK:   11.13 KCAL/MOL
REMARK 924 INTRA-LIGAND FREE ENERGY PREDICTED BY IDOCK:   18.15 KCAL/MOL
REMARK 927      BINDING AFFINITY PREDICTED BY RF-SCORE:    0.00 PKD
ROOT
HETATM    1  O   UNL     1      -5.658  16.622  69.447  1.00  0.00    -0.137 OA 
HETATM    2  H   UNL     1      -5.539  17.146  70.231  1.00  0.00     0.000 HD 
HETATM    3  C   UNL     1      -7.030  16.334  69.198  1.00  0.00    -0.206 C  
HETATM    4  C   UNL     1      -7.221  15.497  67.946  1.00  0.00    -0.141 C  
HETATM    5  C   UNL     1      -8.644  14.939  68.185  1.00  0.00    -0.159 C  
HETATM    6  O   UNL     1      -6.214  14.464  67.917  1.00  0.00    -0.138 OA 
HETATM    7  O   UNL     1      -8.724  14.712  69.604  1.00  0.00     0.117 OA 
HETATM    8  C   UNL     1      -7.624  15.403  70.240  1.00  0.00     0.544 C  
HETATM    9  H   UNL     1      -6.334  13.940  67.133  1.00  0.00     0.000 HD 
ENDROOT
BRANCH   5  10
HETATM   10  O   UNL     1      -8.814  13.789  67.390  1.00  0.00    -0.188 OA 
BRANCH  10  11
HETATM   11  P   UNL     1      -9.825  13.696  65.990  1.00  0.00    -0.190 P  
HETATM   12  O   UNL     1      -9.366  12.146  65.750  1.00  0.00    -0.194 OA 
HETATM   13  O   UNL     1     -11.062  13.649  66.897  1.00  0.00    -0.295 OA 
BRANCH  11  14
HETATM   14  O   UNL     1     -10.835  13.602  64.589  1.00  0.00    -0.367 OA 
HETATM   15  P   UNL     1     -10.581  12.086  63.795  1.00  0.00    -0.505 P  
HETATM   16  O   UNL     1     -10.353  10.729  63.085  1.00  0.00    -0.255 OA 
HETATM   17  O   UNL     1     -11.768  11.514  64.774  1.00  0.00    -0.117 OA 
HETATM   18  O   UNL     1     -11.634  12.660  62.670  1.00  0.00     0.350 OA 
ENDBRANCH  11  14
ENDBRANCH  10  11
ENDBRANCH   5  10
BRANCH   8  19
HETATM   19  C   UNL     1      -8.113  16.152  71.478  1.00  0.00     6.787 C  
BRANCH  19  20
HETATM   20  O   UNL     1      -7.157  17.159  71.751  1.00  0.00     5.524 OA 
HETATM   21  P   UNL     1      -6.214  17.649  70.569  1.00  0.00     1.110 P  
HETATM   22  O   UNL     1      -5.564  18.954  71.217  1.00  0.00    -0.202 OA 
HETATM   23  O   UNL     1      -5.258  16.650  70.028  1.00  0.00    -0.154 OA 
HETATM   24  O   UNL     1      -7.256  18.307  69.557  1.00  0.00    -0.057 OA 
ENDBRANCH  19  20
ENDBRANCH   8  19
TORSDOF 5
ENDMDL
MODEL      258
REMARK 921   NORMALIZED FREE ENERGY PREDICTED BY IDOCK:   23.30 KCAL/MOL
REMARK 922        TOTAL FREE ENERGY PREDICTED BY IDOCK:   29.40 KCAL/MOL
REMARK 923 INTER-LIGAND FREE ENERGY PREDICTED BY IDOCK:   11.41 KCAL/MOL
REMARK 924 INTRA-LIGAND FREE ENERGY PREDICTED BY IDOCK:   18.00 KCAL/MOL
REMARK 927      BINDING AFFINITY PREDICTED BY RF-SCORE:    0.00 PKD
ROOT
HETATM    1  O   UNL     1      -5.646  16.620  69.434  1.00  0.00    -0.137 OA 
HETATM    2  H   UNL     1      -5.547  17.146  70.219  1.00  0.00     0.000 HD 
HETATM    3  C   UNL     1      -7.008  16.302  69.169  1.00  0.00    -0.206 C  
HETATM    4  C   UNL     1      -7.166  15.462  67.914  1.00  0.00    -0.145 C  
HETATM    5  C   UNL     1      -8.579  14.872  68.137  1.00  0.00    -0.159 C  
HETATM    6  O   UNL     1      -6.136  14.451  67.897  1.00  0.00    -0.141 OA 
HETATM    7  O   UNL     1      -8.670  14.642  69.555  1.00  0.00     0.036 OA 
HETATM    8  C   UNL     1      -7.593  15.357  70.204  1.00  0.00     0.330 C  
HETATM    9  H   UNL     1      -6.235  13.925  67.111  1.00  0.00     0.000 HD 
ENDROOT
BRANCH   5  10
HETATM   10  O   UNL     1      -8.714  13.718  67.340  1.00  0.00    -0.185 OA 
BRANCH  10  11
HETATM   11  P   UNL     1      -9.396  12.222  67.874  1.00  0.00    -0.199 P  
HETATM   12  O   UNL     1      -9.183  11.582  66.386  1.00  0.00    -0.196 OA 
HETATM   13  O   UNL     1      -8.112  11.928  68.662  1.00  0.00    -0.144 OA 
BRANCH  11  14
HETATM   14  O   UNL     1     -10.078  10.724  68.408  1.00  0.00    -0.158 OA 
HETATM   15  P   UNL     1     -10.234   9.649  67.061  1.00  0.00    -0.236 P  
HETATM   16  O   UNL     1     -10.374   8.687  65.855  1.00  0.00     0.172 OA 
HETATM   17  O   UNL     1      -8.710   9.165  67.429  1.00  0.00    -0.115 OA 
HETATM   18  O   UNL     1     -10.937   8.627  68.141  1.00  0.00    -0.017 OA 
ENDBRANCH  11  14
ENDBRANCH  10  11
ENDBRANCH   5  10
BRANCH   8  19
HETATM   19  C   UNL     1      -8.113  16.094  71.436  1.00  0.00     6.111 C  
BRANCH  19  20
HETATM   20  O   UNL     1      -7.173  17.111  71.731  1.00  0.00     6.097 OA 
HETATM   21  P   UNL     1      -6.213  17.615  70.569  1.00  0.00     1.110 P  
HETATM   22  O   UNL     1      -5.591  18.926  71.233  1.00  0.00    -0.202 OA 
HETATM   23  O   UNL     1      -5.236  16.629  70.045  1.00  0.00    -0.154 OA 
HETATM   24  O   UNL     1      -7.242  18.264  69.538  1.00  0.00    -0.057 OA 
ENDBRANCH  19  20
ENDBRANCH   8  19
TORSDOF 5
ENDMDL
