MODEL        1
REMARK 921   NORMALIZED FREE ENERGY PREDICTED BY IDOCK:   -7.67 KCAL/MOL
REMARK 922        TOTAL FREE ENERGY PREDICTED BY IDOCK:   -9.98 KCAL/MOL
REMARK 923 INTER-LIGAND FREE ENERGY PREDICTED BY IDOCK:   -9.46 KCAL/MOL
REMARK 924 INTRA-LIGAND FREE ENERGY PREDICTED BY IDOCK:   -0.52 KCAL/MOL
REMARK 927      BINDING AFFINITY PREDICTED BY RF-SCORE:    0.00 PKD
ROOT
HETATM    1  N   UNL     1     -12.682   9.881  70.698  1.00  0.00    -0.526 NA 
HETATM    2  C   UNL     1     -12.528  11.241  70.529  1.00  0.00    -0.310 A  
HETATM    3  H2  UNL     1     -12.436   9.224  69.958  1.00  0.00     0.000 HD 
HETATM    4  H1  UNL     1     -13.052   9.560  71.593  1.00  0.00     0.000 HD 
HETATM    5  N   UNL     1     -12.043  11.662  69.358  1.00  0.00    -0.293 NA 
HETATM    6  C   UNL     1     -11.987  13.003  69.285  1.00  0.00    -0.278 A  
HETATM    7  C   UNL     1     -12.360  13.910  70.263  1.00  0.00    -0.345 A  
HETATM    8  N   UNL     1     -12.166  15.201  69.807  1.00  0.00    -0.308 NA 
HETATM    9  C   UNL     1     -12.808  13.366  71.484  1.00  0.00    -0.337 A  
HETATM   10  N   UNL     1     -12.859  12.005  71.580  1.00  0.00    -0.342 NA 
HETATM   11  N   UNL     1     -11.547  13.750  68.230  1.00  0.00    -0.316 NA 
HETATM   12  C   UNL     1     -11.680  15.066  68.586  1.00  0.00    -0.337 A  
ENDROOT
BRANCH   9  13
HETATM   13  N   UNL     1     -13.207  14.143  72.591  1.00  0.00    -0.500 NA 
HETATM   14  H   UNL     1     -14.178  14.158  72.904  1.00  0.00     0.000 HD 
BRANCH  13  15
HETATM   15  C   UNL     1     -12.177  14.927  73.276  1.00  0.00    -0.329 C  
HETATM   16  C   UNL     1     -12.188  16.432  73.205  1.00  0.00    -0.558 C  
HETATM   17  C   UNL     1     -12.452  15.738  74.509  1.00  0.00    -0.755 C  
ENDBRANCH  13  15
ENDBRANCH   9  13
BRANCH  11  18
HETATM   18  C   UNL     1     -10.995  13.191  67.002  1.00  0.00    -0.269 C  
HETATM   19  C   UNL     1      -9.958  14.111  66.327  1.00  0.00    -0.315 C  
HETATM   20  C   UNL     1     -10.558  14.570  64.983  1.00  0.00    -0.458 C  
HETATM   21  C   UNL     1     -11.998  12.946  65.916  1.00  0.00    -0.504 C  
HETATM   22  C   UNL     1     -11.752  13.673  64.822  1.00  0.00    -0.399 C  
BRANCH  20  23
HETATM   23  C   UNL     1     -10.933  16.055  64.984  1.00  0.00    -0.380 C  
HETATM   24  O   UNL     1     -11.608  16.408  63.780  1.00  0.00    -1.605 OA 
HETATM   25  H   UNL     1     -11.841  17.328  63.781  1.00  0.00     0.000 HD 
ENDBRANCH  20  23
ENDBRANCH  11  18
TORSDOF 4
ENDMDL
MODEL        2
REMARK 921   NORMALIZED FREE ENERGY PREDICTED BY IDOCK:   -6.90 KCAL/MOL
REMARK 922        TOTAL FREE ENERGY PREDICTED BY IDOCK:   -9.04 KCAL/MOL
REMARK 923 INTER-LIGAND FREE ENERGY PREDICTED BY IDOCK:   -8.51 KCAL/MOL
REMARK 924 INTRA-LIGAND FREE ENERGY PREDICTED BY IDOCK:   -0.53 KCAL/MOL
REMARK 927      BINDING AFFINITY PREDICTED BY RF-SCORE:    0.00 PKD
ROOT
HETATM    1  N   UNL     1      -9.867  17.736  67.213  1.00  0.00    -0.301 NA 
HETATM    2  C   UNL     1     -10.505  16.575  67.598  1.00  0.00    -0.305 A  
HETATM    3  H2  UNL     1      -9.191  17.742  66.449  1.00  0.00     0.000 HD 
HETATM    4  H1  UNL     1     -10.098  18.588  67.724  1.00  0.00     0.000 HD 
HETATM    5  N   UNL     1     -10.202  15.459  66.928  1.00  0.00    -0.268 NA 
HETATM    6  C   UNL     1     -10.840  14.384  67.422  1.00  0.00    -0.292 A  
HETATM    7  C   UNL     1     -11.724  14.352  68.487  1.00  0.00    -0.335 A  
HETATM    8  N   UNL     1     -12.159  13.057  68.700  1.00  0.00    -0.241 NA 
HETATM    9  C   UNL     1     -12.021  15.591  69.093  1.00  0.00    -0.309 A  
HETATM   10  N   UNL     1     -11.392  16.695  68.596  1.00  0.00    -0.248 NA 
HETATM   11  N   UNL     1     -10.748  13.098  66.972  1.00  0.00    -0.261 NA 
HETATM   12  C   UNL     1     -11.553  12.333  67.775  1.00  0.00    -0.351 A  
ENDROOT
BRANCH   9  13
HETATM   13  N   UNL     1     -12.913  15.743  70.174  1.00  0.00    -0.661 NA 
HETATM   14  H   UNL     1     -13.832  16.167  70.046  1.00  0.00     0.000 HD 
BRANCH  13  15
HETATM   15  C   UNL     1     -12.472  15.270  71.488  1.00  0.00    -0.361 C  
HETATM   16  C   UNL     1     -11.983  16.244  72.528  1.00  0.00    -0.648 C  
HETATM   17  C   UNL     1     -13.264  15.493  72.745  1.00  0.00    -0.605 C  
ENDBRANCH  13  15
ENDBRANCH   9  13
BRANCH  11  18
HETATM   18  C   UNL     1      -9.968  12.688  65.811  1.00  0.00    -0.256 C  
HETATM   19  C   UNL     1     -10.479  13.295  64.489  1.00  0.00    -0.434 C  
HETATM   20  C   UNL     1     -11.011  12.134  63.626  1.00  0.00    -0.527 C  
HETATM   21  C   UNL     1      -9.972  11.215  65.539  1.00  0.00    -0.298 C  
HETATM   22  C   UNL     1     -10.514  10.917  64.354  1.00  0.00    -0.403 C  
BRANCH  20  23
HETATM   23  C   UNL     1     -12.536  12.156  63.487  1.00  0.00    -0.555 C  
HETATM   24  O   UNL     1     -13.150  12.563  64.706  1.00  0.00    -0.853 OA 
HETATM   25  H   UNL     1     -14.095  12.577  64.621  1.00  0.00     0.000 HD 
ENDBRANCH  20  23
ENDBRANCH  11  18
TORSDOF 4
ENDMDL
MODEL        3
REMARK 921   NORMALIZED FREE ENERGY PREDICTED BY IDOCK:   -6.83 KCAL/MOL
REMARK 922        TOTAL FREE ENERGY PREDICTED BY IDOCK:   -8.94 KCAL/MOL
REMARK 923 INTER-LIGAND FREE ENERGY PREDICTED BY IDOCK:   -8.38 KCAL/MOL
REMARK 924 INTRA-LIGAND FREE ENERGY PREDICTED BY IDOCK:   -0.57 KCAL/MOL
REMARK 927      BINDING AFFINITY PREDICTED BY RF-SCORE:    0.00 PKD
ROOT
HETATM    1  N   UNL     1     -12.751  15.105  70.312  1.00  0.00    -0.585 NA 
HETATM    2  C   UNL     1     -11.994  15.355  69.188  1.00  0.00    -0.299 A  
HETATM    3  H2  UNL     1     -13.326  14.266  70.389  1.00  0.00     0.000 HD 
HETATM    4  H1  UNL     1     -12.712  15.792  71.065  1.00  0.00     0.000 HD 
HETATM    5  N   UNL     1     -12.044  14.454  68.202  1.00  0.00    -0.277 NA 
HETATM    6  C   UNL     1     -11.313  14.826  67.138  1.00  0.00    -0.356 A  
HETATM    7  C   UNL     1     -10.564  15.983  67.001  1.00  0.00    -0.302 A  
HETATM    8  N   UNL     1      -9.965  16.011  65.754  1.00  0.00    -0.342 NA 
HETATM    9  C   UNL     1     -10.530  16.843  68.117  1.00  0.00    -0.350 A  
HETATM   10  N   UNL     1     -11.256  16.474  69.212  1.00  0.00    -0.266 NA 
HETATM   11  N   UNL     1     -11.156  14.138  65.969  1.00  0.00    -0.310 NA 
HETATM   12  C   UNL     1     -10.344  14.892  65.164  1.00  0.00    -0.401 A  
ENDROOT
BRANCH   9  13
HETATM   13  N   UNL     1      -9.802  18.050  68.157  1.00  0.00    -0.321 NA 
HETATM   14  H   UNL     1      -8.854  18.085  68.534  1.00  0.00     0.000 HD 
BRANCH  13  15
HETATM   15  C   UNL     1     -10.456  19.253  67.638  1.00  0.00    -0.453 C  
HETATM   16  C   UNL     1      -9.638  20.440  67.201  1.00  0.00    -0.587 C  
HETATM   17  C   UNL     1     -10.411  19.647  66.189  1.00  0.00    -0.624 C  
ENDBRANCH  13  15
ENDBRANCH   9  13
BRANCH  11  18
HETATM   18  C   UNL     1     -11.726  12.821  65.709  1.00  0.00    -0.402 C  
HETATM   19  C   UNL     1     -10.660  11.729  65.490  1.00  0.00    -0.323 C  
HETATM   20  C   UNL     1     -10.775  11.261  64.026  1.00  0.00    -0.444 C  
HETATM   21  C   UNL     1     -12.568  12.734  64.473  1.00  0.00    -0.463 C  
HETATM   22  C   UNL     1     -12.068  11.879  63.575  1.00  0.00    -0.575 C  
BRANCH  20  23
HETATM   23  C   UNL     1      -9.582  11.702  63.173  1.00  0.00    -0.323 C  
HETATM   24  O   UNL     1      -8.383  11.071  63.613  1.00  0.00    -0.372 OA 
HETATM   25  H   UNL     1      -7.644  11.344  63.084  1.00  0.00     0.000 HD 
ENDBRANCH  20  23
ENDBRANCH  11  18
TORSDOF 4
ENDMDL
MODEL        4
REMARK 921   NORMALIZED FREE ENERGY PREDICTED BY IDOCK:   -6.81 KCAL/MOL
REMARK 922        TOTAL FREE ENERGY PREDICTED BY IDOCK:   -8.92 KCAL/MOL
REMARK 923 INTER-LIGAND FREE ENERGY PREDICTED BY IDOCK:   -8.51 KCAL/MOL
REMARK 924 INTRA-LIGAND FREE ENERGY PREDICTED BY IDOCK:   -0.42 KCAL/MOL
REMARK 927      BINDING AFFINITY PREDICTED BY RF-SCORE:    0.00 PKD
ROOT
HETATM    1  N   UNL     1     -13.182  10.549  72.298  1.00  0.00    -0.577 NA 
HETATM    2  C   UNL     1     -12.975  11.775  71.701  1.00  0.00    -0.362 A  
HETATM    3  H2  UNL     1     -12.767   9.697  71.919  1.00  0.00     0.000 HD 
HETATM    4  H1  UNL     1     -13.766  10.528  73.133  1.00  0.00     0.000 HD 
HETATM    5  N   UNL     1     -12.209  11.802  70.606  1.00  0.00    -0.380 NA 
HETATM    6  C   UNL     1     -12.121  13.035  70.080  1.00  0.00    -0.307 A  
HETATM    7  C   UNL     1     -12.715  14.192  70.556  1.00  0.00    -0.309 A  
HETATM    8  N   UNL     1     -12.399  15.257  69.733  1.00  0.00    -0.289 NA 
HETATM    9  C   UNL     1     -13.458  14.070  71.748  1.00  0.00    -0.392 A  
HETATM   10  N   UNL     1     -13.548  12.826  72.304  1.00  0.00    -0.542 NA 
HETATM   11  N   UNL     1     -11.424  13.404  68.965  1.00  0.00    -0.281 NA 
HETATM   12  C   UNL     1     -11.626  14.747  68.791  1.00  0.00    -0.320 A  
ENDROOT
BRANCH   9  13
HETATM   13  N   UNL     1     -14.111  15.147  72.381  1.00  0.00    -0.502 NA 
HETATM   14  H   UNL     1     -15.071  15.398  72.142  1.00  0.00     0.000 HD 
BRANCH  13  15
HETATM   15  C   UNL     1     -13.362  15.894  73.394  1.00  0.00    -0.510 C  
HETATM   16  C   UNL     1     -12.241  15.236  74.155  1.00  0.00    -0.742 C  
HETATM   17  C   UNL     1     -11.945  16.348  73.193  1.00  0.00    -0.536 C  
ENDBRANCH  13  15
ENDBRANCH   9  13
BRANCH  11  18
HETATM   18  C   UNL     1     -10.590  12.500  68.182  1.00  0.00    -0.226 C  
HETATM   19  C   UNL     1      -9.559  13.233  67.301  1.00  0.00    -0.234 C  
HETATM   20  C   UNL     1      -9.944  12.975  65.831  1.00  0.00    -0.270 C  
HETATM   21  C   UNL     1     -11.336  11.647  67.203  1.00  0.00    -0.373 C  
HETATM   22  C   UNL     1     -10.975  11.887  65.938  1.00  0.00    -0.354 C  
BRANCH  20  23
HETATM   23  C   UNL     1     -10.483  14.229  65.136  1.00  0.00    -0.411 C  
HETATM   24  O   UNL     1     -11.246  13.883  63.985  1.00  0.00    -0.588 OA 
HETATM   25  H   UNL     1     -11.580  14.661  63.554  1.00  0.00     0.000 HD 
ENDBRANCH  20  23
ENDBRANCH  11  18
TORSDOF 4
ENDMDL
MODEL        5
REMARK 921   NORMALIZED FREE ENERGY PREDICTED BY IDOCK:   -6.70 KCAL/MOL
REMARK 922        TOTAL FREE ENERGY PREDICTED BY IDOCK:   -8.78 KCAL/MOL
REMARK 923 INTER-LIGAND FREE ENERGY PREDICTED BY IDOCK:   -8.27 KCAL/MOL
REMARK 924 INTRA-LIGAND FREE ENERGY PREDICTED BY IDOCK:   -0.52 KCAL/MOL
REMARK 927      BINDING AFFINITY PREDICTED BY RF-SCORE:    0.00 PKD
ROOT
HETATM    1  N   UNL     1     -12.730  14.961  71.503  1.00  0.00    -0.310 NA 
HETATM    2  C   UNL     1     -12.515  13.829  70.745  1.00  0.00    -0.370 A  
HETATM    3  H2  UNL     1     -12.638  15.894  71.101  1.00  0.00     0.000 HD 
HETATM    4  H1  UNL     1     -12.985  14.827  72.481  1.00  0.00     0.000 HD 
HETATM    5  N   UNL     1     -12.180  14.005  69.463  1.00  0.00    -0.336 NA 
HETATM    6  C   UNL     1     -11.943  12.839  68.838  1.00  0.00    -0.244 A  
HETATM    7  C   UNL     1     -12.019  11.568  69.381  1.00  0.00    -0.325 A  
HETATM    8  N   UNL     1     -11.688  10.626  68.423  1.00  0.00    -0.424 NA 
HETATM    9  C   UNL     1     -12.433  11.485  70.726  1.00  0.00    -0.349 A  
HETATM   10  N   UNL     1     -12.692  12.658  71.373  1.00  0.00    -0.315 NA 
HETATM   11  N   UNL     1     -11.577  12.668  67.533  1.00  0.00    -0.339 NA 
HETATM   12  C   UNL     1     -11.428  11.321  67.331  1.00  0.00    -0.221 A  
ENDROOT
BRANCH   9  13
HETATM   13  N   UNL     1     -12.584  10.272  71.428  1.00  0.00    -0.396 NA 
HETATM   14  H   UNL     1     -13.487   9.991  71.812  1.00  0.00     0.000 HD 
BRANCH  13  15
HETATM   15  C   UNL     1     -11.397   9.429  71.588  1.00  0.00    -0.382 C  
HETATM   16  C   UNL     1     -11.441   8.202  72.460  1.00  0.00    -0.470 C  
HETATM   17  C   UNL     1     -11.275   8.064  70.975  1.00  0.00    -0.287 C  
ENDBRANCH  13  15
ENDBRANCH   9  13
BRANCH  11  18
HETATM   18  C   UNL     1     -11.444  13.753  66.568  1.00  0.00    -0.348 C  
HETATM   19  C   UNL     1     -12.612  13.821  65.563  1.00  0.00    -0.551 C  
HETATM   20  C   UNL     1     -12.039  13.492  64.171  1.00  0.00    -0.488 C  
HETATM   21  C   UNL     1     -10.236  13.667  65.688  1.00  0.00    -0.316 C  
HETATM   22  C   UNL     1     -10.554  13.547  64.395  1.00  0.00    -0.394 C  
BRANCH  20  23
HETATM   23  C   UNL     1     -12.506  12.130  63.650  1.00  0.00    -0.549 C  
HETATM   24  O   UNL     1     -11.423  11.412  63.066  1.00  0.00    -0.853 OA 
HETATM   25  H   UNL     1     -11.712  10.567  62.744  1.00  0.00     0.000 HD 
ENDBRANCH  20  23
ENDBRANCH  11  18
TORSDOF 4
ENDMDL
MODEL        6
REMARK 921   NORMALIZED FREE ENERGY PREDICTED BY IDOCK:   -6.60 KCAL/MOL
REMARK 922        TOTAL FREE ENERGY PREDICTED BY IDOCK:   -8.67 KCAL/MOL
REMARK 923 INTER-LIGAND FREE ENERGY PREDICTED BY IDOCK:   -8.03 KCAL/MOL
REMARK 924 INTRA-LIGAND FREE ENERGY PREDICTED BY IDOCK:   -0.63 KCAL/MOL
REMARK 927      BINDING AFFINITY PREDICTED BY RF-SCORE:    0.00 PKD
ROOT
HETATM    1  N   UNL     1     -12.295  12.861  66.146  1.00  0.00    -0.509 NA 
HETATM    2  C   UNL     1     -11.881  13.747  67.117  1.00  0.00    -0.406 A  
HETATM    3  H2  UNL     1     -12.200  13.078  65.153  1.00  0.00     0.000 HD 
HETATM    4  H1  UNL     1     -12.700  11.978  66.459  1.00  0.00     0.000 HD 
HETATM    5  N   UNL     1     -11.351  14.903  66.706  1.00  0.00    -0.345 NA 
HETATM    6  C   UNL     1     -11.034  15.709  67.734  1.00  0.00    -0.316 A  
HETATM    7  C   UNL     1     -11.199  15.447  69.084  1.00  0.00    -0.287 A  
HETATM    8  N   UNL     1     -10.766  16.528  69.830  1.00  0.00    -0.326 NA 
HETATM    9  C   UNL     1     -11.716  14.178  69.417  1.00  0.00    -0.313 A  
HETATM   10  N   UNL     1     -12.031  13.341  68.386  1.00  0.00    -0.338 NA 
HETATM   11  N   UNL     1     -10.482  16.955  67.659  1.00  0.00    -0.325 NA 
HETATM   12  C   UNL     1     -10.345  17.412  68.943  1.00  0.00    -0.340 A  
ENDROOT
BRANCH   9  13
HETATM   13  N   UNL     1     -11.928  13.739  70.740  1.00  0.00    -0.494 NA 
HETATM   14  H   UNL     1     -11.193  13.266  71.265  1.00  0.00     0.000 HD 
BRANCH  13  15
HETATM   15  C   UNL     1     -13.244  13.988  71.334  1.00  0.00    -0.334 C  
HETATM   16  C   UNL     1     -13.362  14.506  72.743  1.00  0.00    -0.600 C  
HETATM   17  C   UNL     1     -13.778  15.368  71.588  1.00  0.00    -0.606 C  
ENDBRANCH  13  15
ENDBRANCH   9  13
BRANCH  11  18
HETATM   18  C   UNL     1     -10.080  17.602  66.416  1.00  0.00    -0.356 C  
HETATM   19  C   UNL     1      -8.559  17.836  66.316  1.00  0.00    -0.217 C  
HETATM   20  C   UNL     1      -8.327  19.360  66.328  1.00  0.00    -0.346 C  
HETATM   21  C   UNL     1     -10.654  18.969  66.203  1.00  0.00    -0.495 C  
HETATM   22  C   UNL     1      -9.710  19.913  66.135  1.00  0.00    -0.527 C  
BRANCH  20  23
HETATM   23  C   UNL     1      -7.674  19.844  67.626  1.00  0.00    -0.291 C  
HETATM   24  O   UNL     1      -7.205  18.743  68.399  1.00  0.00    -0.260 OA 
HETATM   25  H   UNL     1      -6.800  19.043  69.203  1.00  0.00     0.000 HD 
ENDBRANCH  20  23
ENDBRANCH  11  18
TORSDOF 4
ENDMDL
MODEL        7
REMARK 921   NORMALIZED FREE ENERGY PREDICTED BY IDOCK:   -6.60 KCAL/MOL
REMARK 922        TOTAL FREE ENERGY PREDICTED BY IDOCK:   -8.67 KCAL/MOL
REMARK 923 INTER-LIGAND FREE ENERGY PREDICTED BY IDOCK:   -8.06 KCAL/MOL
REMARK 924 INTRA-LIGAND FREE ENERGY PREDICTED BY IDOCK:   -0.61 KCAL/MOL
REMARK 927      BINDING AFFINITY PREDICTED BY RF-SCORE:    0.00 PKD
ROOT
HETATM    1  N   UNL     1     -12.406  13.721  63.222  1.00  0.00    -1.124 NA 
HETATM    2  C   UNL     1     -11.932  13.852  64.510  1.00  0.00    -0.437 A  
HETATM    3  H2  UNL     1     -12.254  14.449  62.524  1.00  0.00     0.000 HD 
HETATM    4  H1  UNL     1     -12.916  12.867  62.996  1.00  0.00     0.000 HD 
HETATM    5  N   UNL     1     -11.264  14.971  64.807  1.00  0.00    -0.396 NA 
HETATM    6  C   UNL     1     -10.897  15.014  66.099  1.00  0.00    -0.329 A  
HETATM    7  C   UNL     1     -11.136  14.056  67.069  1.00  0.00    -0.304 A  
HETATM    8  N   UNL     1     -10.613  14.470  68.280  1.00  0.00    -0.236 NA 
HETATM    9  C   UNL     1     -11.799  12.886  66.644  1.00  0.00    -0.395 A  
HETATM   10  N   UNL     1     -12.168  12.819  65.332  1.00  0.00    -0.468 NA 
HETATM   11  N   UNL     1     -10.209  16.015  66.723  1.00  0.00    -0.268 NA 
HETATM   12  C   UNL     1     -10.068  15.648  68.035  1.00  0.00    -0.224 A  
ENDROOT
BRANCH   9  13
HETATM   13  N   UNL     1     -12.104  11.803  67.494  1.00  0.00    -0.550 NA 
HETATM   14  H   UNL     1     -13.063  11.614  67.787  1.00  0.00     0.000 HD 
BRANCH  13  15
HETATM   15  C   UNL     1     -10.994  10.958  67.940  1.00  0.00    -0.271 C  
HETATM   16  C   UNL     1     -10.802   9.579  67.366  1.00  0.00    -0.215 C  
HETATM   17  C   UNL     1      -9.799  10.658  67.082  1.00  0.00    -0.208 C  
ENDBRANCH  13  15
ENDBRANCH   9  13
BRANCH  11  18
HETATM   18  C   UNL     1      -9.696  17.202  66.050  1.00  0.00    -0.189 C  
HETATM   19  C   UNL     1      -8.466  17.815  66.750  1.00  0.00    -0.269 C  
HETATM   20  C   UNL     1      -8.884  19.197  67.289  1.00  0.00    -0.317 C  
HETATM   21  C   UNL     1     -10.657  18.349  65.977  1.00  0.00    -0.339 C  
HETATM   22  C   UNL     1     -10.212  19.429  66.626  1.00  0.00    -0.533 C  
BRANCH  20  23
HETATM   23  C   UNL     1      -8.975  19.228  68.817  1.00  0.00    -0.355 C  
HETATM   24  O   UNL     1     -10.263  19.665  69.240  1.00  0.00    -0.629 OA 
HETATM   25  H   UNL     1     -10.320  19.684  70.187  1.00  0.00     0.000 HD 
ENDBRANCH  20  23
ENDBRANCH  11  18
TORSDOF 4
ENDMDL
MODEL        8
REMARK 921   NORMALIZED FREE ENERGY PREDICTED BY IDOCK:   -6.58 KCAL/MOL
REMARK 922        TOTAL FREE ENERGY PREDICTED BY IDOCK:   -8.64 KCAL/MOL
REMARK 923 INTER-LIGAND FREE ENERGY PREDICTED BY IDOCK:   -8.09 KCAL/MOL
REMARK 924 INTRA-LIGAND FREE ENERGY PREDICTED BY IDOCK:   -0.55 KCAL/MOL
REMARK 927      BINDING AFFINITY PREDICTED BY RF-SCORE:    0.00 PKD
ROOT
HETATM    1  N   UNL     1     -11.808  14.025  65.131  1.00  0.00    -0.348 NA 
HETATM    2  C   UNL     1     -11.433  14.771  66.228  1.00  0.00    -0.316 A  
HETATM    3  H2  UNL     1     -12.514  13.292  65.203  1.00  0.00     0.000 HD 
HETATM    4  H1  UNL     1     -11.350  14.235  64.244  1.00  0.00     0.000 HD 
HETATM    5  N   UNL     1     -12.033  14.495  67.390  1.00  0.00    -0.382 NA 
HETATM    6  C   UNL     1     -11.553  15.244  68.398  1.00  0.00    -0.349 A  
HETATM    7  C   UNL     1     -10.563  16.209  68.325  1.00  0.00    -0.288 A  
HETATM    8  N   UNL     1     -10.338  16.749  69.578  1.00  0.00    -0.259 NA 
HETATM    9  C   UNL     1     -10.031  16.465  67.044  1.00  0.00    -0.261 A  
HETATM   10  N   UNL     1     -10.516  15.723  66.006  1.00  0.00    -0.323 NA 
HETATM   11  N   UNL     1     -11.945  15.207  69.706  1.00  0.00    -0.318 NA 
HETATM   12  C   UNL     1     -11.182  16.124  70.379  1.00  0.00    -0.381 A  
ENDROOT
BRANCH   9  13
HETATM   13  N   UNL     1      -9.033  17.427  66.786  1.00  0.00    -0.245 NA 
HETATM   14  H   UNL     1      -8.043  17.205  66.894  1.00  0.00     0.000 HD 
BRANCH  13  15
HETATM   15  C   UNL     1      -9.469  18.758  66.357  1.00  0.00    -0.322 C  
HETATM   16  C   UNL     1     -10.747  19.352  66.887  1.00  0.00    -0.570 C  
HETATM   17  C   UNL     1      -9.426  19.961  67.255  1.00  0.00    -0.487 C  
ENDBRANCH  13  15
ENDBRANCH   9  13
BRANCH  11  18
HETATM   18  C   UNL     1     -13.021  14.368  70.217  1.00  0.00    -0.070 C  
HETATM   19  C   UNL     1     -13.851  15.049  71.323  1.00  0.00    -0.528 C  
HETATM   20  C   UNL     1     -13.608  14.266  72.628  1.00  0.00    -0.601 C  
HETATM   21  C   UNL     1     -12.572  13.091  70.859  1.00  0.00    -0.364 C  
HETATM   22  C   UNL     1     -12.906  13.026  72.152  1.00  0.00    -0.253 C  
BRANCH  20  23
HETATM   23  C   UNL     1     -12.779  15.059  73.644  1.00  0.00    -0.512 C  
HETATM   24  O   UNL     1     -13.440  16.268  74.003  1.00  0.00    -0.915 OA 
HETATM   25  H   UNL     1     -12.927  16.760  74.632  1.00  0.00     0.000 HD 
ENDBRANCH  20  23
ENDBRANCH  11  18
TORSDOF 4
ENDMDL
MODEL        9
REMARK 921   NORMALIZED FREE ENERGY PREDICTED BY IDOCK:   -6.56 KCAL/MOL
REMARK 922        TOTAL FREE ENERGY PREDICTED BY IDOCK:   -8.62 KCAL/MOL
REMARK 923 INTER-LIGAND FREE ENERGY PREDICTED BY IDOCK:   -8.05 KCAL/MOL
REMARK 924 INTRA-LIGAND FREE ENERGY PREDICTED BY IDOCK:   -0.57 KCAL/MOL
REMARK 927      BINDING AFFINITY PREDICTED BY RF-SCORE:    0.00 PKD
ROOT
HETATM    1  N   UNL     1     -13.452  13.531  72.789  1.00  0.00    -0.627 NA 
HETATM    2  C   UNL     1     -13.017  12.706  71.774  1.00  0.00    -0.313 A  
HETATM    3  H2  UNL     1     -13.323  14.542  72.743  1.00  0.00     0.000 HD 
HETATM    4  H1  UNL     1     -13.907  13.090  73.588  1.00  0.00     0.000 HD 
HETATM    5  N   UNL     1     -12.420  13.284  70.728  1.00  0.00    -0.349 NA 
HETATM    6  C   UNL     1     -11.991  12.382  69.828  1.00  0.00    -0.289 A  
HETATM    7  C   UNL     1     -12.117  11.005  69.899  1.00  0.00    -0.361 A  
HETATM    8  N   UNL     1     -11.537  10.421  68.787  1.00  0.00    -0.179 NA 
HETATM    9  C   UNL     1     -12.811  10.495  71.015  1.00  0.00    -0.407 A  
HETATM   10  N   UNL     1     -13.266  11.398  71.933  1.00  0.00    -0.458 NA 
HETATM   11  N   UNL     1     -11.341  12.639  68.655  1.00  0.00    -0.268 NA 
HETATM   12  C   UNL     1     -11.081  11.430  68.066  1.00  0.00    -0.257 A  
ENDROOT
BRANCH   9  13
HETATM   13  N   UNL     1     -13.048   9.123  71.234  1.00  0.00    -0.483 NA 
HETATM   14  H   UNL     1     -13.736   8.610  70.683  1.00  0.00     0.000 HD 
BRANCH  13  15
HETATM   15  C   UNL     1     -12.269   8.459  72.282  1.00  0.00    -0.387 C  
HETATM   16  C   UNL     1     -11.506   7.196  71.984  1.00  0.00    -0.310 C  
HETATM   17  C   UNL     1     -10.768   8.461  72.310  1.00  0.00    -0.417 C  
ENDBRANCH  13  15
ENDBRANCH   9  13
BRANCH  11  18
HETATM   18  C   UNL     1     -11.057  13.977  68.150  1.00  0.00    -0.260 C  
HETATM   19  C   UNL     1     -12.149  14.514  67.203  1.00  0.00    -0.301 C  
HETATM   20  C   UNL     1     -11.518  14.646  65.803  1.00  0.00    -0.338 C  
HETATM   21  C   UNL     1      -9.807  14.088  67.333  1.00  0.00    -0.240 C  
HETATM   22  C   UNL     1     -10.052  14.468  66.075  1.00  0.00    -0.336 C  
BRANCH  20  23
HETATM   23  C   UNL     1     -12.064  13.612  64.813  1.00  0.00    -0.402 C  
HETATM   24  O   UNL     1     -12.342  14.214  63.552  1.00  0.00    -1.065 OA 
HETATM   25  H   UNL     1     -12.679  13.573  62.939  1.00  0.00     0.000 HD 
ENDBRANCH  20  23
ENDBRANCH  11  18
TORSDOF 4
ENDMDL
MODEL       10
REMARK 921   NORMALIZED FREE ENERGY PREDICTED BY IDOCK:   -6.54 KCAL/MOL
REMARK 922        TOTAL FREE ENERGY PREDICTED BY IDOCK:   -8.58 KCAL/MOL
REMARK 923 INTER-LIGAND FREE ENERGY PREDICTED BY IDOCK:   -7.95 KCAL/MOL
REMARK 924 INTRA-LIGAND FREE ENERGY PREDICTED BY IDOCK:   -0.63 KCAL/MOL
REMARK 927      BINDING AFFINITY PREDICTED BY RF-SCORE:    0.00 PKD
ROOT
HETATM    1  N   UNL     1     -14.283  14.328  72.576  1.00  0.00    -0.576 NA 
HETATM    2  C   UNL     1     -13.470  13.584  71.749  1.00  0.00    -0.380 A  
HETATM    3  H2  UNL     1     -14.801  13.896  73.342  1.00  0.00     0.000 HD 
HETATM    4  H1  UNL     1     -14.347  15.330  72.393  1.00  0.00     0.000 HD 
HETATM    5  N   UNL     1     -13.387  12.272  71.989  1.00  0.00    -0.477 NA 
HETATM    6  C   UNL     1     -12.612  11.640  71.091  1.00  0.00    -0.335 A  
HETATM    7  C   UNL     1     -11.941  12.206  70.020  1.00  0.00    -0.315 A  
HETATM    8  N   UNL     1     -11.261  11.227  69.319  1.00  0.00    -0.251 NA 
HETATM    9  C   UNL     1     -12.047  13.606  69.884  1.00  0.00    -0.341 A  
HETATM   10  N   UNL     1     -12.819  14.266  70.795  1.00  0.00    -0.346 NA 
HETATM   11  N   UNL     1     -12.326  10.306  71.050  1.00  0.00    -0.347 NA 
HETATM   12  C   UNL     1     -11.516  10.102  69.963  1.00  0.00    -0.277 A  
ENDROOT
BRANCH   9  13
HETATM   13  N   UNL     1     -11.413  14.346  68.865  1.00  0.00    -0.271 NA 
HETATM   14  H   UNL     1     -10.511  14.797  69.021  1.00  0.00     0.000 HD 
BRANCH  13  15
HETATM   15  C   UNL     1     -12.096  14.444  67.573  1.00  0.00    -0.292 C  
HETATM   16  C   UNL     1     -11.318  14.733  66.316  1.00  0.00    -0.334 C  
HETATM   17  C   UNL     1     -11.974  13.397  66.503  1.00  0.00    -0.452 C  
ENDBRANCH  13  15
ENDBRANCH   9  13
BRANCH  11  18
HETATM   18  C   UNL     1     -12.780   9.337  72.040  1.00  0.00    -0.401 C  
HETATM   19  C   UNL     1     -11.687   8.331  72.453  1.00  0.00    -0.463 C  
HETATM   20  C   UNL     1     -12.133   6.940  71.962  1.00  0.00    -0.331 C  
HETATM   21  C   UNL     1     -13.906   8.458  71.590  1.00  0.00    -0.428 C  
HETATM   22  C   UNL     1     -13.565   7.165  71.567  1.00  0.00    -0.408 C  
BRANCH  20  23
HETATM   23  C   UNL     1     -11.276   6.424  70.802  1.00  0.00    -0.327 C  
HETATM   24  O   UNL     1     -11.954   6.586  69.560  1.00  0.00    -0.601 OA 
HETATM   25  H   UNL     1     -11.423   6.266  68.841  1.00  0.00     0.000 HD 
ENDBRANCH  20  23
ENDBRANCH  11  18
TORSDOF 4
ENDMDL
MODEL       11
REMARK 921   NORMALIZED FREE ENERGY PREDICTED BY IDOCK:   -6.54 KCAL/MOL
REMARK 922        TOTAL FREE ENERGY PREDICTED BY IDOCK:   -8.58 KCAL/MOL
REMARK 923 INTER-LIGAND FREE ENERGY PREDICTED BY IDOCK:   -7.95 KCAL/MOL
REMARK 924 INTRA-LIGAND FREE ENERGY PREDICTED BY IDOCK:   -0.63 KCAL/MOL
REMARK 927      BINDING AFFINITY PREDICTED BY RF-SCORE:    0.00 PKD
ROOT
HETATM    1  N   UNL     1     -11.489  13.073  70.091  1.00  0.00    -0.519 NA 
HETATM    2  C   UNL     1     -11.360  13.754  68.899  1.00  0.00    -0.288 A  
HETATM    3  H2  UNL     1     -11.009  13.384  70.935  1.00  0.00     0.000 HD 
HETATM    4  H1  UNL     1     -12.085  12.245  70.094  1.00  0.00     0.000 HD 
HETATM    5  N   UNL     1     -10.580  14.839  68.895  1.00  0.00    -0.243 NA 
HETATM    6  C   UNL     1     -10.484  15.389  67.673  1.00  0.00    -0.272 A  
HETATM    7  C   UNL     1     -11.093  14.952  66.509  1.00  0.00    -0.341 A  
HETATM    8  N   UNL     1     -10.740  15.774  65.454  1.00  0.00    -0.391 NA 
HETATM    9  C   UNL     1     -11.941  13.831  66.627  1.00  0.00    -0.431 A  
HETATM   10  N   UNL     1     -12.060  13.267  67.864  1.00  0.00    -0.297 NA 
HETATM   11  N   UNL     1      -9.766  16.498  67.326  1.00  0.00    -0.243 NA 
HETATM   12  C   UNL     1      -9.943  16.687  65.981  1.00  0.00    -0.324 A  
ENDROOT
BRANCH   9  13
HETATM   13  N   UNL     1     -12.653  13.267  65.550  1.00  0.00    -0.473 NA 
HETATM   14  H   UNL     1     -13.606  13.562  65.333  1.00  0.00     0.000 HD 
BRANCH  13  15
HETATM   15  C   UNL     1     -11.977  12.243  64.751  1.00  0.00    -0.362 C  
HETATM   16  C   UNL     1     -12.408  11.967  63.335  1.00  0.00    -0.635 C  
HETATM   17  C   UNL     1     -11.062  12.570  63.607  1.00  0.00    -0.523 C  
ENDBRANCH  13  15
ENDBRANCH   9  13
BRANCH  11  18
HETATM   18  C   UNL     1      -9.017  17.318  68.270  1.00  0.00    -0.262 C  
HETATM   19  C   UNL     1      -9.792  18.565  68.742  1.00  0.00    -0.411 C  
HETATM   20  C   UNL     1      -9.048  19.801  68.201  1.00  0.00    -0.385 C  
HETATM   21  C   UNL     1      -7.741  17.890  67.731  1.00  0.00    -0.220 C  
HETATM   22  C   UNL     1      -7.748  19.226  67.713  1.00  0.00    -0.307 C  
BRANCH  20  23
HETATM   23  C   UNL     1      -9.827  20.519  67.095  1.00  0.00    -0.426 C  
HETATM   24  O   UNL     1      -9.130  20.445  65.855  1.00  0.00    -0.595 OA 
HETATM   25  H   UNL     1      -9.613  20.890  65.169  1.00  0.00     0.000 HD 
ENDBRANCH  20  23
ENDBRANCH  11  18
TORSDOF 4
ENDMDL
MODEL       12
REMARK 921   NORMALIZED FREE ENERGY PREDICTED BY IDOCK:   -6.54 KCAL/MOL
REMARK 922        TOTAL FREE ENERGY PREDICTED BY IDOCK:   -8.58 KCAL/MOL
REMARK 923 INTER-LIGAND FREE ENERGY PREDICTED BY IDOCK:   -8.00 KCAL/MOL
REMARK 924 INTRA-LIGAND FREE ENERGY PREDICTED BY IDOCK:   -0.59 KCAL/MOL
REMARK 927      BINDING AFFINITY PREDICTED BY RF-SCORE:    0.00 PKD
ROOT
HETATM    1  N   UNL     1     -12.253  15.878  63.714  1.00  0.00    -1.141 NA 
HETATM    2  C   UNL     1     -11.293  15.762  64.697  1.00  0.00    -0.337 A  
HETATM    3  H2  UNL     1     -12.820  15.080  63.428  1.00  0.00     0.000 HD 
HETATM    4  H1  UNL     1     -12.374  16.796  63.285  1.00  0.00     0.000 HD 
HETATM    5  N   UNL     1     -11.134  14.560  65.259  1.00  0.00    -0.334 NA 
HETATM    6  C   UNL     1     -10.138  14.550  66.161  1.00  0.00    -0.305 A  
HETATM    7  C   UNL     1      -9.331  15.613  66.527  1.00  0.00    -0.276 A  
HETATM    8  N   UNL     1      -8.412  15.203  67.476  1.00  0.00    -0.160 NA 
HETATM    9  C   UNL     1      -9.613  16.853  65.917  1.00  0.00    -0.138 A  
HETATM   10  N   UNL     1     -10.630  16.885  65.008  1.00  0.00    -0.698 NA 
HETATM   11  N   UNL     1      -9.717  13.486  66.907  1.00  0.00    -0.253 NA 
HETATM   12  C   UNL     1      -8.673  13.924  67.678  1.00  0.00    -0.187 A  
ENDROOT
BRANCH   9  13
HETATM   13  N   UNL     1      -8.904  18.041  66.188  1.00  0.00    -0.493 NA 
HETATM   14  H   UNL     1      -7.888  18.041  66.285  1.00  0.00     0.000 HD 
BRANCH  13  15
HETATM   15  C   UNL     1      -9.678  19.277  66.324  1.00  0.00    -0.374 C  
HETATM   16  C   UNL     1     -10.533  19.514  67.541  1.00  0.00    -0.596 C  
HETATM   17  C   UNL     1      -9.320  20.363  67.298  1.00  0.00    -0.547 C  
ENDBRANCH  13  15
ENDBRANCH   9  13
BRANCH  11  18
HETATM   18  C   UNL     1     -10.342  12.169  66.884  1.00  0.00    -0.212 C  
HETATM   19  C   UNL     1     -11.777  12.167  67.451  1.00  0.00    -0.374 C  
HETATM   20  C   UNL     1     -11.758  11.329  68.744  1.00  0.00    -0.405 C  
HETATM   21  C   UNL     1      -9.646  11.128  67.706  1.00  0.00    -0.180 C  
HETATM   22  C   UNL     1     -10.414  10.660  68.694  1.00  0.00    -0.211 C  
BRANCH  20  23
HETATM   23  C   UNL     1     -11.944  12.185  70.001  1.00  0.00    -0.315 C  
HETATM   24  O   UNL     1     -11.356  13.470  69.830  1.00  0.00    -0.461 OA 
HETATM   25  H   UNL     1     -11.471  14.001  70.609  1.00  0.00     0.000 HD 
ENDBRANCH  20  23
ENDBRANCH  11  18
TORSDOF 4
ENDMDL
MODEL       13
REMARK 921   NORMALIZED FREE ENERGY PREDICTED BY IDOCK:   -6.50 KCAL/MOL
REMARK 922        TOTAL FREE ENERGY PREDICTED BY IDOCK:   -8.54 KCAL/MOL
REMARK 923 INTER-LIGAND FREE ENERGY PREDICTED BY IDOCK:   -7.98 KCAL/MOL
REMARK 924 INTRA-LIGAND FREE ENERGY PREDICTED BY IDOCK:   -0.56 KCAL/MOL
REMARK 927      BINDING AFFINITY PREDICTED BY RF-SCORE:    0.00 PKD
ROOT
HETATM    1  N   UNL     1     -12.648  15.456  69.974  1.00  0.00    -0.607 NA 
HETATM    2  C   UNL     1     -12.272  14.312  69.303  1.00  0.00    -0.252 A  
HETATM    3  H2  UNL     1     -12.851  15.443  70.974  1.00  0.00     0.000 HD 
HETATM    4  H1  UNL     1     -12.715  16.317  69.431  1.00  0.00     0.000 HD 
HETATM    5  N   UNL     1     -12.185  13.185  70.015  1.00  0.00    -0.288 NA 
HETATM    6  C   UNL     1     -11.865  12.127  69.251  1.00  0.00    -0.313 A  
HETATM    7  C   UNL     1     -11.631  12.121  67.886  1.00  0.00    -0.347 A  
HETATM    8  N   UNL     1     -11.343  10.836  67.463  1.00  0.00    -0.456 NA 
HETATM    9  C   UNL     1     -11.693  13.370  67.234  1.00  0.00    -0.380 A  
HETATM   10  N   UNL     1     -12.004  14.458  67.997  1.00  0.00    -0.322 NA 
HETATM   11  N   UNL     1     -11.702  10.835  69.664  1.00  0.00    -0.298 NA 
HETATM   12  C   UNL     1     -11.397  10.093  68.554  1.00  0.00    -0.108 A  
ENDROOT
BRANCH   9  13
HETATM   13  N   UNL     1     -11.462  13.548  65.855  1.00  0.00    -0.313 NA 
HETATM   14  H   UNL     1     -10.693  14.127  65.518  1.00  0.00     0.000 HD 
BRANCH  13  15
HETATM   15  C   UNL     1     -12.368  12.872  64.923  1.00  0.00    -0.475 C  
HETATM   16  C   UNL     1     -12.353  13.216  63.457  1.00  0.00    -0.478 C  
HETATM   17  C   UNL     1     -11.899  11.862  63.916  1.00  0.00    -0.509 C  
ENDBRANCH  13  15
ENDBRANCH   9  13
BRANCH  11  18
HETATM   18  C   UNL     1     -11.794  10.400  71.053  1.00  0.00    -0.361 C  
HETATM   19  C   UNL     1     -10.702   9.384  71.445  1.00  0.00    -0.407 C  
HETATM   20  C   UNL     1     -11.406   8.046  71.745  1.00  0.00    -0.318 C  
HETATM   21  C   UNL     1     -13.066   9.694  71.408  1.00  0.00    -0.471 C  
HETATM   22  C   UNL     1     -12.857   8.434  71.801  1.00  0.00    -0.371 C  
BRANCH  20  23
HETATM   23  C   UNL     1     -11.121   6.981  70.682  1.00  0.00    -0.272 C  
HETATM   24  O   UNL     1     -12.284   6.721  69.901  1.00  0.00    -0.634 OA 
HETATM   25  H   UNL     1     -12.108   6.061  69.242  1.00  0.00     0.000 HD 
ENDBRANCH  20  23
ENDBRANCH  11  18
TORSDOF 4
ENDMDL
MODEL       14
REMARK 921   NORMALIZED FREE ENERGY PREDICTED BY IDOCK:   -6.48 KCAL/MOL
REMARK 922        TOTAL FREE ENERGY PREDICTED BY IDOCK:   -8.51 KCAL/MOL
REMARK 923 INTER-LIGAND FREE ENERGY PREDICTED BY IDOCK:   -7.87 KCAL/MOL
REMARK 924 INTRA-LIGAND FREE ENERGY PREDICTED BY IDOCK:   -0.64 KCAL/MOL
REMARK 927      BINDING AFFINITY PREDICTED BY RF-SCORE:    0.00 PKD
ROOT
HETATM    1  N   UNL     1     -12.523  14.243  63.323  1.00  0.00    -1.068 NA 
HETATM    2  C   UNL     1     -12.035  14.382  64.605  1.00  0.00    -0.464 A  
HETATM    3  H2  UNL     1     -12.398  14.977  62.625  1.00  0.00     0.000 HD 
HETATM    4  H1  UNL     1     -13.014  13.378  63.100  1.00  0.00     0.000 HD 
HETATM    5  N   UNL     1     -11.392  15.516  64.896  1.00  0.00    -0.368 NA 
HETATM    6  C   UNL     1     -11.009  15.564  66.184  1.00  0.00    -0.247 A  
HETATM    7  C   UNL     1     -11.212  14.597  67.154  1.00  0.00    -0.344 A  
HETATM    8  N   UNL     1     -10.684  15.021  68.360  1.00  0.00    -0.239 NA 
HETATM    9  C   UNL     1     -11.852  13.413  66.734  1.00  0.00    -0.403 A  
HETATM   10  N   UNL     1     -12.236  13.341  65.426  1.00  0.00    -0.428 NA 
HETATM   11  N   UNL     1     -10.338  16.580  66.803  1.00  0.00    -0.297 NA 
HETATM   12  C   UNL     1     -10.171  16.213  68.112  1.00  0.00    -0.247 A  
ENDROOT
BRANCH   9  13
HETATM   13  N   UNL     1     -12.119  12.320  67.583  1.00  0.00    -0.473 NA 
HETATM   14  H   UNL     1     -12.894  12.343  68.247  1.00  0.00     0.000 HD 
BRANCH  13  15
HETATM   15  C   UNL     1     -11.244  11.151  67.479  1.00  0.00    -0.301 C  
HETATM   16  C   UNL     1      -9.904  11.134  68.168  1.00  0.00    -0.188 C  
HETATM   17  C   UNL     1     -10.996  10.211  68.624  1.00  0.00    -0.273 C  
ENDBRANCH  13  15
ENDBRANCH   9  13
BRANCH  11  18
HETATM   18  C   UNL     1      -9.863  17.782  66.127  1.00  0.00    -0.244 C  
HETATM   19  C   UNL     1      -8.408  18.147  66.486  1.00  0.00    -0.288 C  
HETATM   20  C   UNL     1      -8.447  19.481  67.257  1.00  0.00    -0.333 C  
HETATM   21  C   UNL     1     -10.623  19.030  66.455  1.00  0.00    -0.492 C  
HETATM   22  C   UNL     1      -9.857  19.953  67.045  1.00  0.00    -0.540 C  
BRANCH  20  23
HETATM   23  C   UNL     1      -8.099  19.312  68.739  1.00  0.00    -0.356 C  
HETATM   24  O   UNL     1      -7.329  18.133  68.948  1.00  0.00    -0.275 OA 
HETATM   25  H   UNL     1      -7.113  18.028  69.867  1.00  0.00     0.000 HD 
ENDBRANCH  20  23
ENDBRANCH  11  18
TORSDOF 4
ENDMDL
MODEL       15
REMARK 921   NORMALIZED FREE ENERGY PREDICTED BY IDOCK:   -6.45 KCAL/MOL
REMARK 922        TOTAL FREE ENERGY PREDICTED BY IDOCK:   -8.48 KCAL/MOL
REMARK 923 INTER-LIGAND FREE ENERGY PREDICTED BY IDOCK:   -8.05 KCAL/MOL
REMARK 924 INTRA-LIGAND FREE ENERGY PREDICTED BY IDOCK:   -0.43 KCAL/MOL
REMARK 927      BINDING AFFINITY PREDICTED BY RF-SCORE:    0.00 PKD
ROOT
HETATM    1  N   UNL     1     -11.929  12.057  69.003  1.00  0.00    -0.295 NA 
HETATM    2  C   UNL     1     -11.810  12.916  67.931  1.00  0.00    -0.339 A  
HETATM    3  H2  UNL     1     -11.622  12.327  69.937  1.00  0.00     0.000 HD 
HETATM    4  H1  UNL     1     -12.337  11.139  68.823  1.00  0.00     0.000 HD 
HETATM    5  N   UNL     1     -11.276  14.118  68.166  1.00  0.00    -0.265 NA 
HETATM    6  C   UNL     1     -11.159  14.849  67.044  1.00  0.00    -0.338 A  
HETATM    7  C   UNL     1     -11.529  14.478  65.763  1.00  0.00    -0.342 A  
HETATM    8  N   UNL     1     -11.237  15.498  64.875  1.00  0.00    -0.412 NA 
HETATM    9  C   UNL     1     -12.135  13.212  65.627  1.00  0.00    -0.449 A  
HETATM   10  N   UNL     1     -12.273  12.461  66.758  1.00  0.00    -0.481 NA 
HETATM   11  N   UNL     1     -10.651  16.112  66.937  1.00  0.00    -0.306 NA 
HETATM   12  C   UNL     1     -10.711  16.458  65.613  1.00  0.00    -0.270 A  
ENDROOT
BRANCH   9  13
HETATM   13  N   UNL     1     -12.590  12.686  64.400  1.00  0.00    -0.654 NA 
HETATM   14  H   UNL     1     -13.534  12.874  64.061  1.00  0.00     0.000 HD 
BRANCH  13  15
HETATM   15  C   UNL     1     -11.658  11.860  63.630  1.00  0.00    -0.464 C  
HETATM   16  C   UNL     1     -10.210  12.255  63.503  1.00  0.00    -0.410 C  
HETATM   17  C   UNL     1     -10.588  11.022  64.268  1.00  0.00    -0.402 C  
ENDBRANCH  13  15
ENDBRANCH   9  13
BRANCH  11  18
HETATM   18  C   UNL     1     -10.199  16.914  68.068  1.00  0.00    -0.310 C  
HETATM   19  C   UNL     1     -10.450  18.424  67.882  1.00  0.00    -0.416 C  
HETATM   20  C   UNL     1      -9.073  19.110  67.785  1.00  0.00    -0.344 C  
HETATM   21  C   UNL     1      -8.728  16.840  68.343  1.00  0.00    -0.236 C  
HETATM   22  C   UNL     1      -8.125  18.025  68.211  1.00  0.00    -0.296 C  
BRANCH  20  23
HETATM   23  C   UNL     1      -8.776  19.633  66.376  1.00  0.00    -0.368 C  
HETATM   24  O   UNL     1      -9.782  20.548  65.953  1.00  0.00    -0.653 OA 
HETATM   25  H   UNL     1      -9.597  20.873  65.080  1.00  0.00     0.000 HD 
ENDBRANCH  20  23
ENDBRANCH  11  18
TORSDOF 4
ENDMDL
MODEL       16
REMARK 921   NORMALIZED FREE ENERGY PREDICTED BY IDOCK:   -6.42 KCAL/MOL
REMARK 922        TOTAL FREE ENERGY PREDICTED BY IDOCK:   -8.43 KCAL/MOL
REMARK 923 INTER-LIGAND FREE ENERGY PREDICTED BY IDOCK:   -7.92 KCAL/MOL
REMARK 924 INTRA-LIGAND FREE ENERGY PREDICTED BY IDOCK:   -0.51 KCAL/MOL
REMARK 927      BINDING AFFINITY PREDICTED BY RF-SCORE:    0.00 PKD
ROOT
HETATM    1  N   UNL     1     -11.895  16.301  63.743  1.00  0.00    -1.413 NA 
HETATM    2  C   UNL     1     -11.068  15.877  64.761  1.00  0.00    -0.384 A  
HETATM    3  H2  UNL     1     -12.534  15.657  63.275  1.00  0.00     0.000 HD 
HETATM    4  H1  UNL     1     -11.843  17.284  63.477  1.00  0.00     0.000 HD 
HETATM    5  N   UNL     1     -11.135  14.589  65.109  1.00  0.00    -0.348 NA 
HETATM    6  C   UNL     1     -10.250  14.277  66.070  1.00  0.00    -0.315 A  
HETATM    7  C   UNL     1      -9.345  15.128  66.682  1.00  0.00    -0.267 A  
HETATM    8  N   UNL     1      -8.596  14.430  67.612  1.00  0.00    -0.173 NA 
HETATM    9  C   UNL     1      -9.389  16.480  66.285  1.00  0.00    -0.302 A  
HETATM   10  N   UNL     1     -10.292  16.818  65.319  1.00  0.00    -0.643 NA 
HETATM   11  N   UNL     1     -10.059  13.052  66.644  1.00  0.00    -0.246 NA 
HETATM   12  C   UNL     1      -9.050  13.190  67.560  1.00  0.00    -0.205 A  
ENDROOT
BRANCH   9  13
HETATM   13  N   UNL     1      -8.555  17.484  66.818  1.00  0.00    -0.243 NA 
HETATM   14  H   UNL     1      -7.715  17.248  67.348  1.00  0.00     0.000 HD 
BRANCH  13  15
HETATM   15  C   UNL     1      -8.938  18.878  66.586  1.00  0.00    -0.323 C  
HETATM   16  C   UNL     1      -9.795  19.613  67.583  1.00  0.00    -0.494 C  
HETATM   17  C   UNL     1      -8.368  20.024  67.371  1.00  0.00    -0.382 C  
ENDBRANCH  13  15
ENDBRANCH   9  13
BRANCH  11  18
HETATM   18  C   UNL     1     -10.853  11.869  66.337  1.00  0.00    -0.279 C  
HETATM   19  C   UNL     1     -11.303  11.095  67.593  1.00  0.00    -0.356 C  
HETATM   20  C   UNL     1     -10.593   9.727  67.568  1.00  0.00    -0.335 C  
HETATM   21  C   UNL     1     -10.144  10.828  65.526  1.00  0.00    -0.335 C  
HETATM   22  C   UNL     1     -10.022   9.669  66.180  1.00  0.00    -0.346 C  
BRANCH  20  23
HETATM   23  C   UNL     1      -9.519   9.602  68.653  1.00  0.00    -0.146 C  
HETATM   24  O   UNL     1      -9.603  10.684  69.575  1.00  0.00    -0.389 OA 
HETATM   25  H   UNL     1      -8.937  10.607  70.248  1.00  0.00     0.000 HD 
ENDBRANCH  20  23
ENDBRANCH  11  18
TORSDOF 4
ENDMDL
MODEL       17
REMARK 921   NORMALIZED FREE ENERGY PREDICTED BY IDOCK:   -6.38 KCAL/MOL
REMARK 922        TOTAL FREE ENERGY PREDICTED BY IDOCK:   -8.39 KCAL/MOL
REMARK 923 INTER-LIGAND FREE ENERGY PREDICTED BY IDOCK:   -8.36 KCAL/MOL
REMARK 924 INTRA-LIGAND FREE ENERGY PREDICTED BY IDOCK:   -0.03 KCAL/MOL
REMARK 927      BINDING AFFINITY PREDICTED BY RF-SCORE:    0.00 PKD
ROOT
HETATM    1  N   UNL     1     -11.743   9.897  70.131  1.00  0.00    -0.398 NA 
HETATM    2  C   UNL     1     -11.755  11.216  69.729  1.00  0.00    -0.345 A  
HETATM    3  H2  UNL     1     -11.342   9.167  69.543  1.00  0.00     0.000 HD 
HETATM    4  H1  UNL     1     -12.152   9.682  71.040  1.00  0.00     0.000 HD 
HETATM    5  N   UNL     1     -11.220  11.498  68.537  1.00  0.00    -0.233 NA 
HETATM    6  C   UNL     1     -11.335  12.801  68.226  1.00  0.00    -0.296 A  
HETATM    7  C   UNL     1     -11.918  13.795  68.992  1.00  0.00    -0.360 A  
HETATM    8  N   UNL     1     -11.854  15.004  68.324  1.00  0.00    -0.308 NA 
HETATM    9  C   UNL     1     -12.405  13.407  70.258  1.00  0.00    -0.284 A  
HETATM   10  N   UNL     1     -12.285  12.091  70.596  1.00  0.00    -0.371 NA 
HETATM   11  N   UNL     1     -10.898  13.413  67.086  1.00  0.00    -0.274 NA 
HETATM   12  C   UNL     1     -11.239  14.736  67.186  1.00  0.00    -0.343 A  
ENDROOT
BRANCH   9  13
HETATM   13  N   UNL     1     -13.009  14.294  71.173  1.00  0.00    -0.341 NA 
HETATM   14  H   UNL     1     -13.971  14.610  71.047  1.00  0.00     0.000 HD 
BRANCH  13  15
HETATM   15  C   UNL     1     -12.205  14.744  72.311  1.00  0.00    -0.298 C  
HETATM   16  C   UNL     1     -12.005  16.214  72.573  1.00  0.00    -0.660 C  
HETATM   17  C   UNL     1     -12.803  15.382  73.533  1.00  0.00    -0.683 C  
ENDBRANCH  13  15
ENDBRANCH   9  13
BRANCH  11  18
HETATM   18  C   UNL     1     -10.161  12.741  66.024  1.00  0.00    -0.278 C  
HETATM   19  C   UNL     1     -10.238  13.476  64.670  1.00  0.00    -0.341 C  
HETATM   20  C   UNL     1     -11.022  12.571  63.699  1.00  0.00    -0.507 C  
HETATM   21  C   UNL     1     -10.649  11.363  65.695  1.00  0.00    -0.314 C  
HETATM   22  C   UNL     1     -11.093  11.265  64.438  1.00  0.00    -0.273 C  
BRANCH  20  23
HETATM   23  C   UNL     1     -12.406  13.133  63.361  1.00  0.00    -0.362 C  
HETATM   24  O   UNL     1     -12.444  14.542  63.563  1.00  0.00    -1.089 OA 
HETATM   25  H   UNL     1     -13.302  14.891  63.353  1.00  0.00     0.000 HD 
ENDBRANCH  20  23
ENDBRANCH  11  18
TORSDOF 4
ENDMDL
MODEL       18
REMARK 921   NORMALIZED FREE ENERGY PREDICTED BY IDOCK:   -6.37 KCAL/MOL
REMARK 922        TOTAL FREE ENERGY PREDICTED BY IDOCK:   -8.38 KCAL/MOL
REMARK 923 INTER-LIGAND FREE ENERGY PREDICTED BY IDOCK:   -7.91 KCAL/MOL
REMARK 924 INTRA-LIGAND FREE ENERGY PREDICTED BY IDOCK:   -0.47 KCAL/MOL
REMARK 927      BINDING AFFINITY PREDICTED BY RF-SCORE:    0.00 PKD
ROOT
HETATM    1  N   UNL     1      -9.199  14.891  69.613  1.00  0.00    -0.446 NA 
HETATM    2  C   UNL     1      -9.555  15.323  68.352  1.00  0.00    -0.206 A  
HETATM    3  H2  UNL     1      -9.536  14.003  69.984  1.00  0.00     0.000 HD 
HETATM    4  H1  UNL     1      -8.586  15.496  70.158  1.00  0.00     0.000 HD 
HETATM    5  N   UNL     1     -10.359  14.530  67.638  1.00  0.00    -0.237 NA 
HETATM    6  C   UNL     1     -10.683  15.074  66.452  1.00  0.00    -0.322 A  
HETATM    7  C   UNL     1     -10.272  16.298  65.953  1.00  0.00    -0.364 A  
HETATM    8  N   UNL     1     -10.829  16.510  64.705  1.00  0.00    -0.785 NA 
HETATM    9  C   UNL     1      -9.380  17.036  66.759  1.00  0.00    -0.252 A  
HETATM   10  N   UNL     1      -9.030  16.493  67.961  1.00  0.00    -0.201 NA 
HETATM   11  N   UNL     1     -11.486  14.529  65.491  1.00  0.00    -0.338 NA 
HETATM   12  C   UNL     1     -11.551  15.430  64.462  1.00  0.00    -0.296 A  
ENDROOT
BRANCH   9  13
HETATM   13  N   UNL     1      -8.848  18.290  66.397  1.00  0.00    -0.389 NA 
HETATM   14  H   UNL     1      -7.845  18.419  66.259  1.00  0.00     0.000 HD 
BRANCH  13  15
HETATM   15  C   UNL     1      -9.786  19.401  66.225  1.00  0.00    -0.403 C  
HETATM   16  C   UNL     1     -10.896  19.626  67.218  1.00  0.00    -0.519 C  
HETATM   17  C   UNL     1      -9.779  20.620  67.102  1.00  0.00    -0.530 C  
ENDBRANCH  13  15
ENDBRANCH   9  13
BRANCH  11  18
HETATM   18  C   UNL     1     -12.087  13.203  65.579  1.00  0.00    -0.442 C  
HETATM   19  C   UNL     1     -11.046  12.069  65.674  1.00  0.00    -0.361 C  
HETATM   20  C   UNL     1     -11.159  11.233  64.384  1.00  0.00    -0.273 C  
HETATM   21  C   UNL     1     -12.918  12.810  64.396  1.00  0.00    -0.178 C  
HETATM   22  C   UNL     1     -12.431  11.738  63.765  1.00  0.00    -0.436 C  
BRANCH  20  23
HETATM   23  C   UNL     1      -9.947  11.407  63.463  1.00  0.00    -0.388 C  
HETATM   24  O   UNL     1      -9.585  12.781  63.355  1.00  0.00    -0.540 OA 
HETATM   25  H   UNL     1      -8.834  12.889  62.785  1.00  0.00     0.000 HD 
ENDBRANCH  20  23
ENDBRANCH  11  18
TORSDOF 4
ENDMDL
MODEL       19
REMARK 921   NORMALIZED FREE ENERGY PREDICTED BY IDOCK:   -6.18 KCAL/MOL
REMARK 922        TOTAL FREE ENERGY PREDICTED BY IDOCK:   -8.14 KCAL/MOL
REMARK 923 INTER-LIGAND FREE ENERGY PREDICTED BY IDOCK:   -7.73 KCAL/MOL
REMARK 924 INTRA-LIGAND FREE ENERGY PREDICTED BY IDOCK:   -0.41 KCAL/MOL
REMARK 927      BINDING AFFINITY PREDICTED BY RF-SCORE:    0.00 PKD
ROOT
HETATM    1  N   UNL     1     -14.152   8.917  73.162  1.00  0.00    -1.225 NA 
HETATM    2  C   UNL     1     -13.380   9.449  72.150  1.00  0.00    -0.468 A  
HETATM    3  H2  UNL     1     -14.686   9.515  73.792  1.00  0.00     0.000 HD 
HETATM    4  H1  UNL     1     -14.166   7.901  73.255  1.00  0.00     0.000 HD 
HETATM    5  N   UNL     1     -13.361  10.779  72.029  1.00  0.00    -0.401 NA 
HETATM    6  C   UNL     1     -12.537  11.186  71.048  1.00  0.00    -0.403 A  
HETATM    7  C   UNL     1     -11.769  10.390  70.216  1.00  0.00    -0.321 A  
HETATM    8  N   UNL     1     -11.043  11.181  69.344  1.00  0.00    -0.244 NA 
HETATM    9  C   UNL     1     -11.901   8.996  70.386  1.00  0.00     0.011 A  
HETATM   10  N   UNL     1     -12.744   8.564  71.369  1.00  0.00    -0.300 NA 
HETATM   11  N   UNL     1     -12.286  12.475  70.670  1.00  0.00    -0.351 NA 
HETATM   12  C   UNL     1     -11.377  12.423  69.647  1.00  0.00    -0.123 A  
ENDROOT
BRANCH   9  13
HETATM   13  N   UNL     1     -11.211   8.041  69.612  1.00  0.00    -0.447 NA 
HETATM   14  H   UNL     1     -10.617   8.322  68.831  1.00  0.00     0.000 HD 
BRANCH  13  15
HETATM   15  C   UNL     1     -11.376   6.630  69.970  1.00  0.00    -0.382 C  
HETATM   16  C   UNL     1     -10.415   5.592  69.453  1.00  0.00    -0.367 C  
HETATM   17  C   UNL     1     -10.457   5.915  70.918  1.00  0.00    -0.305 C  
ENDBRANCH  13  15
ENDBRANCH   9  13
BRANCH  11  18
HETATM   18  C   UNL     1     -12.941  13.642  71.247  1.00  0.00    -0.322 C  
HETATM   19  C   UNL     1     -13.030  14.833  70.272  1.00  0.00    -0.179 C  
HETATM   20  C   UNL     1     -12.144  15.960  70.840  1.00  0.00    -0.414 C  
HETATM   21  C   UNL     1     -12.249  14.225  72.441  1.00  0.00    -0.095 C  
HETATM   22  C   UNL     1     -11.838  15.479  72.230  1.00  0.00    -0.560 C  
BRANCH  20  23
HETATM   23  C   UNL     1     -10.881  16.191  70.006  1.00  0.00    -0.349 C  
HETATM   24  O   UNL     1      -9.895  15.204  70.294  1.00  0.00    -0.491 OA 
HETATM   25  H   UNL     1      -9.112  15.347  69.777  1.00  0.00     0.000 HD 
ENDBRANCH  20  23
ENDBRANCH  11  18
TORSDOF 4
ENDMDL
MODEL       20
REMARK 921   NORMALIZED FREE ENERGY PREDICTED BY IDOCK:   -6.17 KCAL/MOL
REMARK 922        TOTAL FREE ENERGY PREDICTED BY IDOCK:   -8.14 KCAL/MOL
REMARK 923 INTER-LIGAND FREE ENERGY PREDICTED BY IDOCK:   -8.00 KCAL/MOL
REMARK 924 INTRA-LIGAND FREE ENERGY PREDICTED BY IDOCK:   -0.13 KCAL/MOL
REMARK 927      BINDING AFFINITY PREDICTED BY RF-SCORE:    0.00 PKD
ROOT
HETATM    1  N   UNL     1     -11.527  16.450  63.927  1.00  0.00    -1.618 NA 
HETATM    2  C   UNL     1     -11.104  15.762  65.044  1.00  0.00    -0.370 A  
HETATM    3  H2  UNL     1     -11.205  17.399  63.734  1.00  0.00     0.000 HD 
HETATM    4  H1  UNL     1     -12.174  15.972  63.300  1.00  0.00     0.000 HD 
HETATM    5  N   UNL     1     -10.256  16.389  65.865  1.00  0.00    -0.350 NA 
HETATM    6  C   UNL     1      -9.955  15.648  66.945  1.00  0.00    -0.248 A  
HETATM    7  C   UNL     1     -10.419  14.378  67.243  1.00  0.00    -0.269 A  
HETATM    8  N   UNL     1      -9.892  13.955  68.450  1.00  0.00    -0.227 NA 
HETATM    9  C   UNL     1     -11.266  13.780  66.288  1.00  0.00    -0.306 A  
HETATM   10  N   UNL     1     -11.572  14.513  65.178  1.00  0.00    -0.359 NA 
HETATM   11  N   UNL     1      -9.125  15.995  67.973  1.00  0.00    -0.188 NA 
HETATM   12  C   UNL     1      -9.124  14.950  68.858  1.00  0.00    -0.191 A  
ENDROOT
BRANCH   9  13
HETATM   13  N   UNL     1     -11.811  12.487  66.422  1.00  0.00    -0.516 NA 
HETATM   14  H   UNL     1     -12.754  12.345  66.784  1.00  0.00     0.000 HD 
BRANCH  13  15
HETATM   15  C   UNL     1     -10.975  11.353  66.021  1.00  0.00    -0.226 C  
HETATM   16  C   UNL     1     -10.676  11.099  64.567  1.00  0.00    -0.368 C  
HETATM   17  C   UNL     1      -9.576  11.513  65.500  1.00  0.00    -0.252 C  
ENDBRANCH  13  15
ENDBRANCH   9  13
BRANCH  11  18
HETATM   18  C   UNL     1      -8.365  17.238  68.030  1.00  0.00    -0.228 C  
HETATM   19  C   UNL     1      -9.192  18.433  68.546  1.00  0.00    -0.348 C  
HETATM   20  C   UNL     1      -9.335  19.430  67.379  1.00  0.00    -0.388 C  
HETATM   21  C   UNL     1      -7.847  17.720  66.710  1.00  0.00    -0.262 C  
HETATM   22  C   UNL     1      -8.353  18.909  66.368  1.00  0.00    -0.306 C  
BRANCH  20  23
HETATM   23  C   UNL     1     -10.765  19.493  66.832  1.00  0.00    -0.464 C  
HETATM   24  O   UNL     1     -10.787  19.206  65.438  1.00  0.00    -0.518 OA 
HETATM   25  H   UNL     1     -11.673  19.245  65.099  1.00  0.00     0.000 HD 
ENDBRANCH  20  23
ENDBRANCH  11  18
TORSDOF 4
ENDMDL
MODEL       21
REMARK 921   NORMALIZED FREE ENERGY PREDICTED BY IDOCK:   -6.08 KCAL/MOL
REMARK 922        TOTAL FREE ENERGY PREDICTED BY IDOCK:   -8.02 KCAL/MOL
REMARK 923 INTER-LIGAND FREE ENERGY PREDICTED BY IDOCK:   -7.54 KCAL/MOL
REMARK 924 INTRA-LIGAND FREE ENERGY PREDICTED BY IDOCK:   -0.48 KCAL/MOL
REMARK 927      BINDING AFFINITY PREDICTED BY RF-SCORE:    0.00 PKD
ROOT
HETATM    1  N   UNL     1     -10.752  15.042  70.508  1.00  0.00    -0.514 NA 
HETATM    2  C   UNL     1     -10.623  15.405  69.184  1.00  0.00    -0.248 A  
HETATM    3  H2  UNL     1     -11.247  14.193  70.779  1.00  0.00     0.000 HD 
HETATM    4  H1  UNL     1     -10.333  15.658  71.204  1.00  0.00     0.000 HD 
HETATM    5  N   UNL     1     -11.172  14.599  68.271  1.00  0.00    -0.272 NA 
HETATM    6  C   UNL     1     -11.032  15.077  67.023  1.00  0.00    -0.318 A  
HETATM    7  C   UNL     1     -10.404  16.251  66.643  1.00  0.00    -0.302 A  
HETATM    8  N   UNL     1     -10.480  16.402  65.270  1.00  0.00    -0.627 NA 
HETATM    9  C   UNL     1      -9.807  17.005  67.674  1.00  0.00    -0.257 A  
HETATM   10  N   UNL     1      -9.928  16.527  68.947  1.00  0.00    -0.250 NA 
HETATM   11  N   UNL     1     -11.481  14.501  65.868  1.00  0.00    -0.342 NA 
HETATM   12  C   UNL     1     -11.133  15.337  64.841  1.00  0.00    -0.424 A  
ENDROOT
BRANCH   9  13
HETATM   13  N   UNL     1      -9.111  18.212  67.463  1.00  0.00    -0.253 NA 
HETATM   14  H   UNL     1      -9.509  18.960  66.894  1.00  0.00     0.000 HD 
BRANCH  13  15
HETATM   15  C   UNL     1      -7.795  18.354  68.089  1.00  0.00    -0.289 C  
HETATM   16  C   UNL     1      -6.691  19.103  67.389  1.00  0.00    -0.211 C  
HETATM   17  C   UNL     1      -7.292  19.654  68.649  1.00  0.00    -0.375 C  
ENDBRANCH  13  15
ENDBRANCH   9  13
BRANCH  11  18
HETATM   18  C   UNL     1     -12.150  13.208  65.803  1.00  0.00    -0.447 C  
HETATM   19  C   UNL     1     -11.170  12.021  65.710  1.00  0.00    -0.383 C  
HETATM   20  C   UNL     1     -11.365  11.371  64.326  1.00  0.00    -0.244 C  
HETATM   21  C   UNL     1     -13.035  13.017  64.610  1.00  0.00    -0.161 C  
HETATM   22  C   UNL     1     -12.626  12.016  63.825  1.00  0.00    -0.567 C  
BRANCH  20  23
HETATM   23  C   UNL     1     -10.173  11.605  63.393  1.00  0.00    -0.433 C  
HETATM   24  O   UNL     1      -9.663  12.927  63.545  1.00  0.00    -0.623 OA 
HETATM   25  H   UNL     1      -8.924  13.073  62.967  1.00  0.00     0.000 HD 
ENDBRANCH  20  23
ENDBRANCH  11  18
TORSDOF 4
ENDMDL
MODEL       22
REMARK 921   NORMALIZED FREE ENERGY PREDICTED BY IDOCK:   -6.08 KCAL/MOL
REMARK 922        TOTAL FREE ENERGY PREDICTED BY IDOCK:   -8.02 KCAL/MOL
REMARK 923 INTER-LIGAND FREE ENERGY PREDICTED BY IDOCK:   -7.48 KCAL/MOL
REMARK 924 INTRA-LIGAND FREE ENERGY PREDICTED BY IDOCK:   -0.54 KCAL/MOL
REMARK 927      BINDING AFFINITY PREDICTED BY RF-SCORE:    0.00 PKD
ROOT
HETATM    1  N   UNL     1     -14.234   8.919  73.087  1.00  0.00    -1.200 NA 
HETATM    2  C   UNL     1     -13.308   9.428  72.201  1.00  0.00    -0.468 A  
HETATM    3  H2  UNL     1     -14.301   7.917  73.267  1.00  0.00     0.000 HD 
HETATM    4  H1  UNL     1     -14.849   9.585  73.554  1.00  0.00     0.000 HD 
HETATM    5  N   UNL     1     -12.502   8.556  71.589  1.00  0.00    -0.316 NA 
HETATM    6  C   UNL     1     -11.679   9.156  70.712  1.00  0.00    -0.256 A  
HETATM    7  C   UNL     1     -11.608  10.508  70.422  1.00  0.00    -0.342 A  
HETATM    8  N   UNL     1     -10.646  10.732  69.454  1.00  0.00    -0.227 NA 
HETATM    9  C   UNL     1     -12.461  11.353  71.162  1.00  0.00    -0.360 A  
HETATM   10  N   UNL     1     -13.294  10.762  72.067  1.00  0.00    -0.401 NA 
HETATM   11  N   UNL     1     -10.741   8.553  69.923  1.00  0.00    -0.229 NA 
HETATM   12  C   UNL     1     -10.149   9.539  69.178  1.00  0.00    -0.195 A  
ENDROOT
BRANCH   9  13
HETATM   13  N   UNL     1     -12.504  12.754  71.010  1.00  0.00    -0.347 NA 
HETATM   14  H   UNL     1     -11.854  13.239  70.390  1.00  0.00     0.000 HD 
BRANCH  13  15
HETATM   15  C   UNL     1     -13.514  13.488  71.774  1.00  0.00    -0.380 C  
HETATM   16  C   UNL     1     -13.104  14.446  72.862  1.00  0.00    -0.612 C  
HETATM   17  C   UNL     1     -13.751  14.962  71.611  1.00  0.00    -0.527 C  
ENDBRANCH  13  15
ENDBRANCH   9  13
BRANCH  11  18
HETATM   18  C   UNL     1     -10.433   7.129  69.955  1.00  0.00    -0.221 C  
HETATM   19  C   UNL     1      -8.990   6.808  69.517  1.00  0.00    -0.139 C  
HETATM   20  C   UNL     1      -9.075   6.014  68.199  1.00  0.00    -0.118 C  
HETATM   21  C   UNL     1     -11.267   6.284  69.041  1.00  0.00    -0.415 C  
HETATM   22  C   UNL     1     -10.535   5.668  68.108  1.00  0.00    -0.260 C  
BRANCH  20  23
HETATM   23  C   UNL     1      -8.585   6.821  66.994  1.00  0.00    -0.114 C  
HETATM   24  O   UNL     1      -9.369   6.534  65.839  1.00  0.00    -0.356 OA 
HETATM   25  H   UNL     1      -9.065   7.035  65.092  1.00  0.00     0.000 HD 
ENDBRANCH  20  23
ENDBRANCH  11  18
TORSDOF 4
ENDMDL
MODEL       23
REMARK 921   NORMALIZED FREE ENERGY PREDICTED BY IDOCK:   -6.03 KCAL/MOL
REMARK 922        TOTAL FREE ENERGY PREDICTED BY IDOCK:   -7.96 KCAL/MOL
REMARK 923 INTER-LIGAND FREE ENERGY PREDICTED BY IDOCK:   -7.40 KCAL/MOL
REMARK 924 INTRA-LIGAND FREE ENERGY PREDICTED BY IDOCK:   -0.56 KCAL/MOL
REMARK 927      BINDING AFFINITY PREDICTED BY RF-SCORE:    0.00 PKD
ROOT
HETATM    1  N   UNL     1     -10.198  14.039  67.570  1.00  0.00    -0.243 NA 
HETATM    2  C   UNL     1     -10.998  13.536  68.574  1.00  0.00    -0.267 A  
HETATM    3  H2  UNL     1      -9.517  13.451  67.089  1.00  0.00     0.000 HD 
HETATM    4  H1  UNL     1     -10.315  15.023  67.327  1.00  0.00     0.000 HD 
HETATM    5  N   UNL     1     -10.844  12.247  68.893  1.00  0.00    -0.218 NA 
HETATM    6  C   UNL     1     -11.634  11.881  69.917  1.00  0.00    -0.256 A  
HETATM    7  C   UNL     1     -12.529  12.679  70.609  1.00  0.00    -0.239 A  
HETATM    8  N   UNL     1     -13.145  11.941  71.605  1.00  0.00    -0.407 NA 
HETATM    9  C   UNL     1     -12.659  14.010  70.162  1.00  0.00    -0.251 A  
HETATM   10  N   UNL     1     -11.874  14.396  69.114  1.00  0.00    -0.308 NA 
HETATM   11  N   UNL     1     -11.717  10.643  70.487  1.00  0.00    -0.333 NA 
HETATM   12  C   UNL     1     -12.632  10.728  71.502  1.00  0.00    -0.395 A  
ENDROOT
BRANCH   9  13
HETATM   13  N   UNL     1     -13.537  14.950  70.738  1.00  0.00    -0.638 NA 
HETATM   14  H   UNL     1     -14.528  14.966  70.497  1.00  0.00     0.000 HD 
BRANCH  13  15
HETATM   15  C   UNL     1     -12.974  15.904  71.697  1.00  0.00    -0.313 C  
HETATM   16  C   UNL     1     -13.151  15.695  73.178  1.00  0.00    -0.666 C  
HETATM   17  C   UNL     1     -11.787  15.591  72.561  1.00  0.00    -0.572 C  
ENDBRANCH  13  15
ENDBRANCH   9  13
BRANCH  11  18
HETATM   18  C   UNL     1     -10.984   9.473  70.018  1.00  0.00    -0.251 C  
HETATM   19  C   UNL     1     -11.499   8.151  70.622  1.00  0.00    -0.237 C  
HETATM   20  C   UNL     1     -10.377   7.586  71.516  1.00  0.00    -0.216 C  
HETATM   21  C   UNL     1      -9.526   9.465  70.363  1.00  0.00    -0.319 C  
HETATM   22  C   UNL     1      -9.195   8.438  71.152  1.00  0.00    -0.218 C  
BRANCH  20  23
HETATM   23  C   UNL     1     -10.721   7.662  73.007  1.00  0.00    -0.391 C  
HETATM   24  O   UNL     1     -12.121   7.847  73.195  1.00  0.00    -0.655 OA 
HETATM   25  H   UNL     1     -12.334   7.894  74.119  1.00  0.00     0.000 HD 
ENDBRANCH  20  23
ENDBRANCH  11  18
TORSDOF 4
ENDMDL
MODEL       24
REMARK 921   NORMALIZED FREE ENERGY PREDICTED BY IDOCK:   -5.99 KCAL/MOL
REMARK 922        TOTAL FREE ENERGY PREDICTED BY IDOCK:   -7.90 KCAL/MOL
REMARK 923 INTER-LIGAND FREE ENERGY PREDICTED BY IDOCK:   -7.39 KCAL/MOL
REMARK 924 INTRA-LIGAND FREE ENERGY PREDICTED BY IDOCK:   -0.52 KCAL/MOL
REMARK 927      BINDING AFFINITY PREDICTED BY RF-SCORE:    0.00 PKD
ROOT
HETATM    1  N   UNL     1      -9.368   8.401  65.467  1.00  0.00    -0.427 NA 
HETATM    2  C   UNL     1     -10.007   9.231  66.363  1.00  0.00    -0.286 A  
HETATM    3  H2  UNL     1      -9.021   7.483  65.748  1.00  0.00     0.000 HD 
HETATM    4  H1  UNL     1      -9.256   8.740  64.512  1.00  0.00     0.000 HD 
HETATM    5  N   UNL     1     -10.153   8.786  67.614  1.00  0.00    -0.201 NA 
HETATM    6  C   UNL     1     -10.740   9.696  68.410  1.00  0.00    -0.209 A  
HETATM    7  C   UNL     1     -11.174  10.962  68.055  1.00  0.00    -0.314 A  
HETATM    8  N   UNL     1     -11.712  11.602  69.157  1.00  0.00    -0.298 NA 
HETATM    9  C   UNL     1     -11.026  11.318  66.698  1.00  0.00    -0.268 A  
HETATM   10  N   UNL     1     -10.445  10.400  65.872  1.00  0.00    -0.175 NA 
HETATM   11  N   UNL     1     -11.029   9.560  69.738  1.00  0.00    -0.233 NA 
HETATM   12  C   UNL     1     -11.606  10.733  70.146  1.00  0.00    -0.337 A  
ENDROOT
BRANCH   9  13
HETATM   13  N   UNL     1     -11.432  12.556  66.162  1.00  0.00    -0.356 NA 
HETATM   14  H   UNL     1     -11.851  13.277  66.751  1.00  0.00     0.000 HD 
BRANCH  13  15
HETATM   15  C   UNL     1     -11.232  12.773  64.727  1.00  0.00    -0.305 C  
HETATM   16  C   UNL     1     -12.332  12.466  63.746  1.00  0.00    -0.625 C  
HETATM   17  C   UNL     1     -11.896  13.884  63.967  1.00  0.00    -0.372 C  
ENDBRANCH  13  15
ENDBRANCH   9  13
BRANCH  11  18
HETATM   18  C   UNL     1     -10.796   8.345  70.508  1.00  0.00    -0.232 C  
HETATM   19  C   UNL     1     -11.944   7.321  70.393  1.00  0.00    -0.124 C  
HETATM   20  C   UNL     1     -12.596   7.204  71.784  1.00  0.00    -0.381 C  
HETATM   21  C   UNL     1     -10.666   8.551  71.986  1.00  0.00    -0.410 C  
HETATM   22  C   UNL     1     -11.622   7.921  72.675  1.00  0.00    -0.435 C  
BRANCH  20  23
HETATM   23  C   UNL     1     -13.999   7.818  71.829  1.00  0.00    -0.385 C  
HETATM   24  O   UNL     1     -14.168   8.610  73.001  1.00  0.00    -1.016 OA 
HETATM   25  H   UNL     1     -15.037   8.991  73.029  1.00  0.00     0.000 HD 
ENDBRANCH  20  23
ENDBRANCH  11  18
TORSDOF 4
ENDMDL
MODEL       25
REMARK 921   NORMALIZED FREE ENERGY PREDICTED BY IDOCK:   -5.98 KCAL/MOL
REMARK 922        TOTAL FREE ENERGY PREDICTED BY IDOCK:   -7.89 KCAL/MOL
REMARK 923 INTER-LIGAND FREE ENERGY PREDICTED BY IDOCK:   -7.31 KCAL/MOL
REMARK 924 INTRA-LIGAND FREE ENERGY PREDICTED BY IDOCK:   -0.58 KCAL/MOL
REMARK 927      BINDING AFFINITY PREDICTED BY RF-SCORE:    0.00 PKD
ROOT
HETATM    1  N   UNL     1     -14.281   9.133  72.997  1.00  0.00    -1.124 NA 
HETATM    2  C   UNL     1     -13.258   9.281  72.083  1.00  0.00    -0.461 A  
HETATM    3  H2  UNL     1     -14.921   9.899  73.206  1.00  0.00     0.000 HD 
HETATM    4  H1  UNL     1     -14.371   8.226  73.455  1.00  0.00     0.000 HD 
HETATM    5  N   UNL     1     -13.140  10.469  71.483  1.00  0.00    -0.423 NA 
HETATM    6  C   UNL     1     -12.082  10.515  70.657  1.00  0.00    -0.356 A  
HETATM    7  C   UNL     1     -11.177   9.500  70.398  1.00  0.00    -0.270 A  
HETATM    8  N   UNL     1     -10.220   9.938  69.501  1.00  0.00    -0.209 NA 
HETATM    9  C   UNL     1     -11.420   8.266  71.038  1.00  0.00    -0.275 A  
HETATM   10  N   UNL     1     -12.499   8.197  71.871  1.00  0.00    -0.318 NA 
HETATM   11  N   UNL     1     -11.679  11.578  69.899  1.00  0.00    -0.327 NA 
HETATM   12  C   UNL     1     -10.551  11.187  69.227  1.00  0.00    -0.175 A  
ENDROOT
BRANCH   9  13
HETATM   13  N   UNL     1     -10.613   7.123  70.871  1.00  0.00    -0.218 NA 
HETATM   14  H   UNL     1      -9.788   6.968  71.451  1.00  0.00     0.000 HD 
BRANCH  13  15
HETATM   15  C   UNL     1     -11.001   6.164  69.834  1.00  0.00    -0.389 C  
HETATM   16  C   UNL     1     -10.682   6.432  68.386  1.00  0.00    -0.349 C  
HETATM   17  C   UNL     1     -10.010   5.301  69.107  1.00  0.00    -0.275 C  
ENDBRANCH  13  15
ENDBRANCH   9  13
BRANCH  11  18
HETATM   18  C   UNL     1     -12.392  12.847  69.819  1.00  0.00    -0.055 C  
HETATM   19  C   UNL     1     -12.024  13.674  68.571  1.00  0.00    -0.396 C  
HETATM   20  C   UNL     1     -11.305  14.947  69.060  1.00  0.00    -0.310 C  
HETATM   21  C   UNL     1     -12.125  13.791  70.950  1.00  0.00    -0.366 C  
HETATM   22  C   UNL     1     -11.558  14.930  70.541  1.00  0.00    -0.336 C  
BRANCH  20  23
HETATM   23  C   UNL     1      -9.812  14.946  68.718  1.00  0.00    -0.225 C  
HETATM   24  O   UNL     1      -9.021  15.001  69.901  1.00  0.00    -0.451 OA 
HETATM   25  H   UNL     1      -8.095  15.000  69.690  1.00  0.00     0.000 HD 
ENDBRANCH  20  23
ENDBRANCH  11  18
TORSDOF 4
ENDMDL
MODEL       26
REMARK 921   NORMALIZED FREE ENERGY PREDICTED BY IDOCK:   -5.95 KCAL/MOL
REMARK 922        TOTAL FREE ENERGY PREDICTED BY IDOCK:   -7.86 KCAL/MOL
REMARK 923 INTER-LIGAND FREE ENERGY PREDICTED BY IDOCK:   -7.34 KCAL/MOL
REMARK 924 INTRA-LIGAND FREE ENERGY PREDICTED BY IDOCK:   -0.53 KCAL/MOL
REMARK 927      BINDING AFFINITY PREDICTED BY RF-SCORE:    0.00 PKD
ROOT
HETATM    1  N   UNL     1     -12.312  15.166  68.927  1.00  0.00    -0.603 NA 
HETATM    2  C   UNL     1     -12.034  13.880  68.515  1.00  0.00    -0.359 A  
HETATM    3  H2  UNL     1     -12.449  15.389  69.913  1.00  0.00     0.000 HD 
HETATM    4  H1  UNL     1     -12.375  15.885  68.207  1.00  0.00     0.000 HD 
HETATM    5  N   UNL     1     -11.953  12.938  69.459  1.00  0.00    -0.308 NA 
HETATM    6  C   UNL     1     -11.732  11.718  68.939  1.00  0.00    -0.323 A  
HETATM    7  C   UNL     1     -11.590  11.392  67.601  1.00  0.00    -0.238 A  
HETATM    8  N   UNL     1     -11.390  10.030  67.467  1.00  0.00    -0.140 NA 
HETATM    9  C   UNL     1     -11.637  12.465  66.687  1.00  0.00    -0.385 A  
HETATM   10  N   UNL     1     -11.847  13.713  67.198  1.00  0.00    -0.380 NA 
HETATM   11  N   UNL     1     -11.603  10.545  69.627  1.00  0.00    -0.266 NA 
HETATM   12  C   UNL     1     -11.405   9.556  68.700  1.00  0.00     0.233 A  
ENDROOT
BRANCH   9  13
HETATM   13  N   UNL     1     -11.490  12.315  65.292  1.00  0.00    -0.342 NA 
HETATM   14  H   UNL     1     -12.274  12.468  64.658  1.00  0.00     0.000 HD 
BRANCH  13  15
HETATM   15  C   UNL     1     -10.170  11.933  64.787  1.00  0.00    -0.276 C  
HETATM   16  C   UNL     1      -9.878  10.503  64.412  1.00  0.00    -0.405 C  
HETATM   17  C   UNL     1      -9.918  11.565  63.353  1.00  0.00    -0.445 C  
ENDBRANCH  13  15
ENDBRANCH   9  13
BRANCH  11  18
HETATM   18  C   UNL     1     -11.622  10.439  71.080  1.00  0.00    -0.228 C  
HETATM   19  C   UNL     1     -10.851   9.213  71.611  1.00  0.00    -0.442 C  
HETATM   20  C   UNL     1     -11.881   8.268  72.260  1.00  0.00    -0.451 C  
HETATM   21  C   UNL     1     -12.984  10.276  71.681  1.00  0.00    -0.570 C  
HETATM   22  C   UNL     1     -13.118   9.117  72.334  1.00  0.00    -0.493 C  
BRANCH  20  23
HETATM   23  C   UNL     1     -12.094   6.986  71.449  1.00  0.00    -0.355 C  
HETATM   24  O   UNL     1     -13.247   7.097  70.619  1.00  0.00    -0.561 OA 
HETATM   25  H   UNL     1     -13.379   6.303  70.116  1.00  0.00     0.000 HD 
ENDBRANCH  20  23
ENDBRANCH  11  18
TORSDOF 4
ENDMDL
MODEL       27
REMARK 921   NORMALIZED FREE ENERGY PREDICTED BY IDOCK:   -5.93 KCAL/MOL
REMARK 922        TOTAL FREE ENERGY PREDICTED BY IDOCK:   -7.84 KCAL/MOL
REMARK 923 INTER-LIGAND FREE ENERGY PREDICTED BY IDOCK:   -7.29 KCAL/MOL
REMARK 924 INTRA-LIGAND FREE ENERGY PREDICTED BY IDOCK:   -0.55 KCAL/MOL
REMARK 927      BINDING AFFINITY PREDICTED BY RF-SCORE:    0.00 PKD
ROOT
HETATM    1  N   UNL     1     -14.119   9.101  72.958  1.00  0.00    -1.124 NA 
HETATM    2  C   UNL     1     -12.917   9.166  72.286  1.00  0.00    -0.420 A  
HETATM    3  H2  UNL     1     -14.897   9.714  72.715  1.00  0.00     0.000 HD 
HETATM    4  H1  UNL     1     -14.199   8.414  73.707  1.00  0.00     0.000 HD 
HETATM    5  N   UNL     1     -12.812  10.066  71.304  1.00  0.00    -0.373 NA 
HETATM    6  C   UNL     1     -11.584  10.079  70.757  1.00  0.00    -0.360 A  
HETATM    7  C   UNL     1     -10.505   9.284  71.106  1.00  0.00    -0.331 A  
HETATM    8  N   UNL     1      -9.411   9.604  70.322  1.00  0.00    -0.256 NA 
HETATM    9  C   UNL     1     -10.732   8.327  72.117  1.00  0.00    -0.319 A  
HETATM   10  N   UNL     1     -11.977   8.291  72.674  1.00  0.00    -0.368 NA 
HETATM   11  N   UNL     1     -11.147  10.879  69.741  1.00  0.00    -0.269 NA 
HETATM   12  C   UNL     1      -9.832  10.564  69.518  1.00  0.00    -0.142 A  
ENDROOT
BRANCH   9  13
HETATM   13  N   UNL     1      -9.752   7.425  72.579  1.00  0.00    -0.153 NA 
HETATM   14  H   UNL     1      -9.202   7.625  73.415  1.00  0.00     0.000 HD 
BRANCH  13  15
HETATM   15  C   UNL     1      -9.552   6.191  71.817  1.00  0.00    -0.150 C  
HETATM   16  C   UNL     1     -10.374   4.965  72.117  1.00  0.00    -0.263 C  
HETATM   17  C   UNL     1     -10.544   5.682  70.811  1.00  0.00    -0.335 C  
ENDBRANCH  13  15
ENDBRANCH   9  13
BRANCH  11  18
HETATM   18  C   UNL     1     -11.987  11.832  69.026  1.00  0.00    -0.280 C  
HETATM   19  C   UNL     1     -11.611  11.979  67.538  1.00  0.00    -0.401 C  
HETATM   20  C   UNL     1     -11.081  13.413  67.339  1.00  0.00    -0.297 C  
HETATM   21  C   UNL     1     -11.921  13.237  69.540  1.00  0.00    -0.366 C  
HETATM   22  C   UNL     1     -11.453  14.093  68.626  1.00  0.00    -0.332 C  
BRANCH  20  23
HETATM   23  C   UNL     1      -9.574  13.449  67.068  1.00  0.00    -0.244 C  
HETATM   24  O   UNL     1      -9.286  14.218  65.903  1.00  0.00    -0.504 OA 
HETATM   25  H   UNL     1      -8.352  14.241  65.735  1.00  0.00     0.000 HD 
ENDBRANCH  20  23
ENDBRANCH  11  18
TORSDOF 4
ENDMDL
MODEL       28
REMARK 921   NORMALIZED FREE ENERGY PREDICTED BY IDOCK:   -5.93 KCAL/MOL
REMARK 922        TOTAL FREE ENERGY PREDICTED BY IDOCK:   -7.84 KCAL/MOL
REMARK 923 INTER-LIGAND FREE ENERGY PREDICTED BY IDOCK:   -7.31 KCAL/MOL
REMARK 924 INTRA-LIGAND FREE ENERGY PREDICTED BY IDOCK:   -0.53 KCAL/MOL
REMARK 927      BINDING AFFINITY PREDICTED BY RF-SCORE:    0.00 PKD
ROOT
HETATM    1  N   UNL     1     -10.268   7.367  67.652  1.00  0.00    -0.184 NA 
HETATM    2  C   UNL     1     -10.640   8.653  67.985  1.00  0.00    -0.145 A  
HETATM    3  H2  UNL     1     -10.103   7.097  66.682  1.00  0.00     0.000 HD 
HETATM    4  H1  UNL     1     -10.164   6.699  68.415  1.00  0.00     0.000 HD 
HETATM    5  N   UNL     1     -10.777   9.529  66.985  1.00  0.00    -0.199 NA 
HETATM    6  C   UNL     1     -11.193  10.731  67.419  1.00  0.00    -0.241 A  
HETATM    7  C   UNL     1     -11.465  11.101  68.725  1.00  0.00    -0.299 A  
HETATM    8  N   UNL     1     -11.884  12.418  68.765  1.00  0.00    -0.322 NA 
HETATM    9  C   UNL     1     -11.238  10.121  69.714  1.00  0.00    -0.272 A  
HETATM   10  N   UNL     1     -10.801   8.899  69.293  1.00  0.00    -0.155 NA 
HETATM   11  N   UNL     1     -11.434  11.839  66.658  1.00  0.00    -0.468 NA 
HETATM   12  C   UNL     1     -11.854  12.827  67.509  1.00  0.00    -0.343 A  
ENDROOT
BRANCH   9  13
HETATM   13  N   UNL     1     -11.443  10.334  71.092  1.00  0.00    -0.309 NA 
HETATM   14  H   UNL     1     -10.664  10.547  71.717  1.00  0.00     0.000 HD 
BRANCH  13  15
HETATM   15  C   UNL     1     -12.815  10.239  71.596  1.00  0.00    -0.463 C  
HETATM   16  C   UNL     1     -13.773   9.229  71.021  1.00  0.00    -0.057 C  
HETATM   17  C   UNL     1     -13.299   9.093  72.438  1.00  0.00    -0.527 C  
ENDBRANCH  13  15
ENDBRANCH   9  13
BRANCH  11  18
HETATM   18  C   UNL     1     -11.211  11.912  65.219  1.00  0.00    -0.295 C  
HETATM   19  C   UNL     1     -10.329  13.105  64.800  1.00  0.00    -0.369 C  
HETATM   20  C   UNL     1     -11.212  14.060  63.972  1.00  0.00     0.038 C  
HETATM   21  C   UNL     1     -12.450  12.094  64.398  1.00  0.00    -0.418 C  
HETATM   22  C   UNL     1     -12.443  13.240  63.711  1.00  0.00    -0.339 C  
BRANCH  20  23
HETATM   23  C   UNL     1     -11.519  15.365  64.712  1.00  0.00    -0.336 C  
HETATM   24  O   UNL     1     -11.571  16.462  63.804  1.00  0.00    -1.605 OA 
HETATM   25  H   UNL     1     -11.762  17.271  64.263  1.00  0.00     0.000 HD 
ENDBRANCH  20  23
ENDBRANCH  11  18
TORSDOF 4
ENDMDL
MODEL       29
REMARK 921   NORMALIZED FREE ENERGY PREDICTED BY IDOCK:   -5.90 KCAL/MOL
REMARK 922        TOTAL FREE ENERGY PREDICTED BY IDOCK:   -7.80 KCAL/MOL
REMARK 923 INTER-LIGAND FREE ENERGY PREDICTED BY IDOCK:   -7.36 KCAL/MOL
REMARK 924 INTRA-LIGAND FREE ENERGY PREDICTED BY IDOCK:   -0.43 KCAL/MOL
REMARK 927      BINDING AFFINITY PREDICTED BY RF-SCORE:    0.00 PKD
ROOT
HETATM    1  N   UNL     1     -14.239   9.046  73.237  1.00  0.00    -1.188 NA 
HETATM    2  C   UNL     1     -13.038   9.039  72.558  1.00  0.00    -0.385 A  
HETATM    3  H2  UNL     1     -14.977   9.710  73.003  1.00  0.00     0.000 HD 
HETATM    4  H1  UNL     1     -14.358   8.360  73.982  1.00  0.00     0.000 HD 
HETATM    5  N   UNL     1     -12.881   9.938  71.582  1.00  0.00    -0.400 NA 
HETATM    6  C   UNL     1     -11.658   9.876  71.028  1.00  0.00    -0.389 A  
HETATM    7  C   UNL     1     -10.631   9.011  71.365  1.00  0.00    -0.323 A  
HETATM    8  N   UNL     1      -9.523   9.266  70.577  1.00  0.00    -0.245 NA 
HETATM    9  C   UNL     1     -10.913   8.063  72.370  1.00  0.00    -0.338 A  
HETATM   10  N   UNL     1     -12.155   8.103  72.935  1.00  0.00    -0.208 NA 
HETATM   11  N   UNL     1     -11.176  10.654  70.015  1.00  0.00    -0.297 NA 
HETATM   12  C   UNL     1      -9.886  10.257  69.782  1.00  0.00    -0.161 A  
ENDROOT
BRANCH   9  13
HETATM   13  N   UNL     1      -9.991   7.097  72.821  1.00  0.00    -0.175 NA 
HETATM   14  H   UNL     1      -9.028   7.087  72.484  1.00  0.00     0.000 HD 
BRANCH  13  15
HETATM   15  C   UNL     1     -10.465   6.106  73.790  1.00  0.00    -0.283 C  
HETATM   16  C   UNL     1     -11.170   4.858  73.326  1.00  0.00    -0.423 C  
HETATM   17  C   UNL     1      -9.818   4.763  73.969  1.00  0.00    -0.179 C  
ENDBRANCH  13  15
ENDBRANCH   9  13
BRANCH  11  18
HETATM   18  C   UNL     1     -11.958  11.664  69.312  1.00  0.00    -0.317 C  
HETATM   19  C   UNL     1     -11.527  11.854  67.844  1.00  0.00    -0.385 C  
HETATM   20  C   UNL     1     -10.939  13.273  67.717  1.00  0.00    -0.278 C  
HETATM   21  C   UNL     1     -11.858  13.046  69.882  1.00  0.00    -0.377 C  
HETATM   22  C   UNL     1     -11.329  13.917  69.018  1.00  0.00    -0.324 C  
BRANCH  20  23
HETATM   23  C   UNL     1      -9.424  13.264  67.495  1.00  0.00    -0.220 C  
HETATM   24  O   UNL     1      -9.112  13.474  66.122  1.00  0.00    -0.471 OA 
HETATM   25  H   UNL     1      -8.172  13.468  65.984  1.00  0.00     0.000 HD 
ENDBRANCH  20  23
ENDBRANCH  11  18
TORSDOF 4
ENDMDL
MODEL       30
REMARK 921   NORMALIZED FREE ENERGY PREDICTED BY IDOCK:   -5.89 KCAL/MOL
REMARK 922        TOTAL FREE ENERGY PREDICTED BY IDOCK:   -7.78 KCAL/MOL
REMARK 923 INTER-LIGAND FREE ENERGY PREDICTED BY IDOCK:   -7.17 KCAL/MOL
REMARK 924 INTRA-LIGAND FREE ENERGY PREDICTED BY IDOCK:   -0.61 KCAL/MOL
REMARK 927      BINDING AFFINITY PREDICTED BY RF-SCORE:    0.00 PKD
ROOT
HETATM    1  N   UNL     1     -11.694  14.114  64.105  1.00  0.00    -0.624 NA 
HETATM    2  C   UNL     1     -11.506  14.575  65.391  1.00  0.00    -0.348 A  
HETATM    3  H2  UNL     1     -11.363  14.642  63.298  1.00  0.00     0.000 HD 
HETATM    4  H1  UNL     1     -12.178  13.223  63.994  1.00  0.00     0.000 HD 
HETATM    5  N   UNL     1     -10.872  15.742  65.536  1.00  0.00    -0.346 NA 
HETATM    6  C   UNL     1     -10.793  16.118  66.824  1.00  0.00    -0.162 A  
HETATM    7  C   UNL     1     -11.278  15.435  67.926  1.00  0.00    -0.329 A  
HETATM    8  N   UNL     1     -11.014  16.153  69.079  1.00  0.00    -0.291 NA 
HETATM    9  C   UNL     1     -11.882  14.186  67.674  1.00  0.00    -0.392 A  
HETATM   10  N   UNL     1     -11.959  13.782  66.372  1.00  0.00    -0.413 NA 
HETATM   11  N   UNL     1     -10.215  17.256  67.313  1.00  0.00    -0.311 NA 
HETATM   12  C   UNL     1     -10.379  17.237  68.672  1.00  0.00    -0.357 A  
ENDROOT
BRANCH   9  13
HETATM   13  N   UNL     1     -12.410  13.351  68.679  1.00  0.00    -0.158 NA 
HETATM   14  H   UNL     1     -13.393  13.402  68.947  1.00  0.00     0.000 HD 
BRANCH  13  15
HETATM   15  C   UNL     1     -11.496  12.406  69.325  1.00  0.00    -0.288 C  
HETATM   16  C   UNL     1     -12.032  11.243  70.117  1.00  0.00    -0.452 C  
HETATM   17  C   UNL     1     -11.292  11.002  68.835  1.00  0.00    -0.346 C  
ENDBRANCH  13  15
ENDBRANCH   9  13
BRANCH  11  18
HETATM   18  C   UNL     1      -9.518  18.239  66.493  1.00  0.00    -0.310 C  
HETATM   19  C   UNL     1      -8.027  18.388  66.857  1.00  0.00    -0.249 C  
HETATM   20  C   UNL     1      -7.832  19.806  67.428  1.00  0.00    -0.311 C  
HETATM   21  C   UNL     1     -10.042  19.638  66.608  1.00  0.00    -0.555 C  
HETATM   22  C   UNL     1      -9.129  20.486  67.092  1.00  0.00    -0.452 C  
BRANCH  20  23
HETATM   23  C   UNL     1      -7.544  19.799  68.933  1.00  0.00    -0.250 C  
HETATM   24  O   UNL     1      -6.977  18.555  69.334  1.00  0.00    -0.227 OA 
HETATM   25  H   UNL     1      -6.798  18.551  70.266  1.00  0.00     0.000 HD 
ENDBRANCH  20  23
ENDBRANCH  11  18
TORSDOF 4
ENDMDL
MODEL       31
REMARK 921   NORMALIZED FREE ENERGY PREDICTED BY IDOCK:   -5.86 KCAL/MOL
REMARK 922        TOTAL FREE ENERGY PREDICTED BY IDOCK:   -7.75 KCAL/MOL
REMARK 923 INTER-LIGAND FREE ENERGY PREDICTED BY IDOCK:   -7.76 KCAL/MOL
REMARK 924 INTRA-LIGAND FREE ENERGY PREDICTED BY IDOCK:    0.01 KCAL/MOL
REMARK 927      BINDING AFFINITY PREDICTED BY RF-SCORE:    0.00 PKD
ROOT
HETATM    1  N   UNL     1     -12.315  14.902  63.694  1.00  0.00    -1.053 NA 
HETATM    2  C   UNL     1     -11.300  15.074  64.611  1.00  0.00    -0.352 A  
HETATM    3  H2  UNL     1     -12.702  13.978  63.497  1.00  0.00     0.000 HD 
HETATM    4  H1  UNL     1     -12.663  15.735  63.220  1.00  0.00     0.000 HD 
HETATM    5  N   UNL     1     -10.843  13.983  65.232  1.00  0.00    -0.327 NA 
HETATM    6  C   UNL     1      -9.822  14.262  66.060  1.00  0.00    -0.314 A  
HETATM    7  C   UNL     1      -9.256  15.502  66.303  1.00  0.00    -0.329 A  
HETATM    8  N   UNL     1      -8.218  15.377  67.208  1.00  0.00    -0.179 NA 
HETATM    9  C   UNL     1      -9.845  16.599  65.641  1.00  0.00    -0.114 A  
HETATM   10  N   UNL     1     -10.892  16.337  64.806  1.00  0.00    -0.699 NA 
HETATM   11  N   UNL     1      -9.130  13.376  66.837  1.00  0.00    -0.238 NA 
HETATM   12  C   UNL     1      -8.171  14.091  67.504  1.00  0.00    -0.186 A  
ENDROOT
BRANCH   9  13
HETATM   13  N   UNL     1      -9.409  17.932  65.789  1.00  0.00    -0.429 NA 
HETATM   14  H   UNL     1      -8.460  18.209  65.535  1.00  0.00     0.000 HD 
BRANCH  13  15
HETATM   15  C   UNL     1     -10.367  18.904  66.319  1.00  0.00    -0.453 C  
HETATM   16  C   UNL     1     -10.489  19.126  67.804  1.00  0.00    -0.512 C  
HETATM   17  C   UNL     1      -9.952  20.215  66.923  1.00  0.00    -0.600 C  
ENDBRANCH  13  15
ENDBRANCH   9  13
BRANCH  11  18
HETATM   18  C   UNL     1      -9.442  11.956  66.938  1.00  0.00    -0.199 C  
HETATM   19  C   UNL     1      -8.595  11.078  65.994  1.00  0.00    -0.173 C  
HETATM   20  C   UNL     1      -9.553  10.466  64.953  1.00  0.00    -0.348 C  
HETATM   21  C   UNL     1     -10.850  11.593  66.576  1.00  0.00    -0.328 C  
HETATM   22  C   UNL     1     -10.910  10.775  65.521  1.00  0.00    -0.061 C  
BRANCH  20  23
HETATM   23  C   UNL     1      -9.353  11.054  63.553  1.00  0.00    -0.260 C  
HETATM   24  O   UNL     1     -10.464  11.862  63.179  1.00  0.00    -0.603 OA 
HETATM   25  H   UNL     1     -10.340  12.227  62.311  1.00  0.00     0.000 HD 
ENDBRANCH  20  23
ENDBRANCH  11  18
TORSDOF 4
ENDMDL
MODEL       32
REMARK 921   NORMALIZED FREE ENERGY PREDICTED BY IDOCK:   -5.85 KCAL/MOL
REMARK 922        TOTAL FREE ENERGY PREDICTED BY IDOCK:   -7.74 KCAL/MOL
REMARK 923 INTER-LIGAND FREE ENERGY PREDICTED BY IDOCK:   -7.52 KCAL/MOL
REMARK 924 INTRA-LIGAND FREE ENERGY PREDICTED BY IDOCK:   -0.22 KCAL/MOL
REMARK 927      BINDING AFFINITY PREDICTED BY RF-SCORE:    0.00 PKD
ROOT
HETATM    1  N   UNL     1     -12.858   8.956  71.920  1.00  0.00    -0.354 NA 
HETATM    2  C   UNL     1     -12.588  10.199  71.387  1.00  0.00    -0.422 A  
HETATM    3  H2  UNL     1     -12.438   8.110  71.535  1.00  0.00     0.000 HD 
HETATM    4  H1  UNL     1     -13.496   8.917  72.715  1.00  0.00     0.000 HD 
HETATM    5  N   UNL     1     -11.753  10.250  70.345  1.00  0.00    -0.296 NA 
HETATM    6  C   UNL     1     -11.606  11.500  69.875  1.00  0.00    -0.308 A  
HETATM    7  C   UNL     1     -12.205  12.651  70.357  1.00  0.00    -0.288 A  
HETATM    8  N   UNL     1     -11.814  13.739  69.598  1.00  0.00    -0.314 NA 
HETATM    9  C   UNL     1     -13.026  12.501  71.494  1.00  0.00    -0.280 A  
HETATM   10  N   UNL     1     -13.177  11.240  71.993  1.00  0.00    -0.459 NA 
HETATM   11  N   UNL     1     -10.831  11.894  68.821  1.00  0.00    -0.224 NA 
HETATM   12  C   UNL     1     -10.993  13.248  68.687  1.00  0.00    -0.264 A  
ENDROOT
BRANCH   9  13
HETATM   13  N   UNL     1     -13.695  13.569  72.126  1.00  0.00    -0.528 NA 
HETATM   14  H   UNL     1     -14.682  13.755  71.946  1.00  0.00     0.000 HD 
BRANCH  13  15
HETATM   15  C   UNL     1     -12.923  14.401  73.050  1.00  0.00    -0.472 C  
HETATM   16  C   UNL     1     -12.004  15.474  72.528  1.00  0.00    -0.557 C  
HETATM   17  C   UNL     1     -13.234  15.849  73.301  1.00  0.00    -0.698 C  
ENDBRANCH  13  15
ENDBRANCH   9  13
BRANCH  11  18
HETATM   18  C   UNL     1      -9.968  11.001  68.057  1.00  0.00    -0.173 C  
HETATM   19  C   UNL     1      -9.183  11.721  66.942  1.00  0.00    -0.189 C  
HETATM   20  C   UNL     1      -9.702  11.182  65.594  1.00  0.00    -0.267 C  
HETATM   21  C   UNL     1     -10.684   9.908  67.325  1.00  0.00    -0.304 C  
HETATM   22  C   UNL     1     -10.525   9.993  66.001  1.00  0.00    -0.145 C  
BRANCH  20  23
HETATM   23  C   UNL     1     -10.515  12.223  64.819  1.00  0.00    -0.296 C  
HETATM   24  O   UNL     1      -9.748  12.770  63.750  1.00  0.00    -0.678 OA 
HETATM   25  H   UNL     1     -10.252  13.416  63.269  1.00  0.00     0.000 HD 
ENDBRANCH  20  23
ENDBRANCH  11  18
TORSDOF 4
ENDMDL
MODEL       33
REMARK 921   NORMALIZED FREE ENERGY PREDICTED BY IDOCK:   -5.85 KCAL/MOL
REMARK 922        TOTAL FREE ENERGY PREDICTED BY IDOCK:   -7.73 KCAL/MOL
REMARK 923 INTER-LIGAND FREE ENERGY PREDICTED BY IDOCK:   -7.17 KCAL/MOL
REMARK 924 INTRA-LIGAND FREE ENERGY PREDICTED BY IDOCK:   -0.56 KCAL/MOL
REMARK 927      BINDING AFFINITY PREDICTED BY RF-SCORE:    0.00 PKD
ROOT
HETATM    1  N   UNL     1      -9.189   8.279  65.273  1.00  0.00    -0.390 NA 
HETATM    2  C   UNL     1      -9.881   9.146  66.093  1.00  0.00    -0.293 A  
HETATM    3  H2  UNL     1      -8.813   7.399  65.628  1.00  0.00     0.000 HD 
HETATM    4  H1  UNL     1      -9.068   8.554  64.298  1.00  0.00     0.000 HD 
HETATM    5  N   UNL     1     -10.040   8.786  67.370  1.00  0.00    -0.207 NA 
HETATM    6  C   UNL     1     -10.680   9.727  68.085  1.00  0.00    -0.233 A  
HETATM    7  C   UNL     1     -11.154  10.945  67.629  1.00  0.00    -0.313 A  
HETATM    8  N   UNL     1     -11.742  11.641  68.670  1.00  0.00    -0.308 NA 
HETATM    9  C   UNL     1     -10.987  11.208  66.254  1.00  0.00    -0.163 A  
HETATM   10  N   UNL     1     -10.351  10.258  65.509  1.00  0.00    -0.224 NA 
HETATM   11  N   UNL     1     -10.995   9.675  69.413  1.00  0.00    -0.219 NA 
HETATM   12  C   UNL     1     -11.627  10.851  69.722  1.00  0.00    -0.322 A  
ENDROOT
BRANCH   9  13
HETATM   13  N   UNL     1     -11.428  12.388  65.620  1.00  0.00    -0.351 NA 
HETATM   14  H   UNL     1     -12.421  12.565  65.463  1.00  0.00     0.000 HD 
BRANCH  13  15
HETATM   15  C   UNL     1     -10.410  13.350  65.194  1.00  0.00    -0.336 C  
HETATM   16  C   UNL     1     -10.764  14.801  64.995  1.00  0.00    -0.452 C  
HETATM   17  C   UNL     1      -9.842  14.397  66.108  1.00  0.00    -0.340 C  
ENDBRANCH  13  15
ENDBRANCH   9  13
BRANCH  11  18
HETATM   18  C   UNL     1     -10.734   8.529  70.274  1.00  0.00    -0.230 C  
HETATM   19  C   UNL     1     -11.909   7.533  70.335  1.00  0.00    -0.062 C  
HETATM   20  C   UNL     1     -12.461   7.561  71.774  1.00  0.00    -0.360 C  
HETATM   21  C   UNL     1     -10.492   8.866  71.714  1.00  0.00    -0.431 C  
HETATM   22  C   UNL     1     -11.409   8.329  72.524  1.00  0.00    -0.455 C  
BRANCH  20  23
HETATM   23  C   UNL     1     -13.843   8.217  71.860  1.00  0.00    -0.364 C  
HETATM   24  O   UNL     1     -14.004   8.898  73.101  1.00  0.00    -1.118 OA 
HETATM   25  H   UNL     1     -14.860   9.304  73.155  1.00  0.00     0.000 HD 
ENDBRANCH  20  23
ENDBRANCH  11  18
TORSDOF 4
ENDMDL
MODEL       34
REMARK 921   NORMALIZED FREE ENERGY PREDICTED BY IDOCK:   -5.85 KCAL/MOL
REMARK 922        TOTAL FREE ENERGY PREDICTED BY IDOCK:   -7.73 KCAL/MOL
REMARK 923 INTER-LIGAND FREE ENERGY PREDICTED BY IDOCK:   -8.08 KCAL/MOL
REMARK 924 INTRA-LIGAND FREE ENERGY PREDICTED BY IDOCK:    0.35 KCAL/MOL
REMARK 927      BINDING AFFINITY PREDICTED BY RF-SCORE:    0.00 PKD
ROOT
HETATM    1  N   UNL     1     -10.445  17.966  67.706  1.00  0.00    -0.388 NA 
HETATM    2  C   UNL     1     -10.905  16.764  68.199  1.00  0.00    -0.353 A  
HETATM    3  H2  UNL     1      -9.913  18.015  66.837  1.00  0.00     0.000 HD 
HETATM    4  H1  UNL     1     -10.658  18.805  68.245  1.00  0.00     0.000 HD 
HETATM    5  N   UNL     1     -10.626  15.664  67.493  1.00  0.00    -0.291 NA 
HETATM    6  C   UNL     1     -11.074  14.549  68.093  1.00  0.00    -0.266 A  
HETATM    7  C   UNL     1     -11.757  14.463  69.295  1.00  0.00    -0.317 A  
HETATM    8  N   UNL     1     -12.036  13.139  69.585  1.00  0.00    -0.317 NA 
HETATM    9  C   UNL     1     -12.052  15.683  69.937  1.00  0.00    -0.341 A  
HETATM   10  N   UNL     1     -11.615  16.827  69.335  1.00  0.00     0.281 NA 
HETATM   11  N   UNL     1     -10.950  13.267  67.640  1.00  0.00    -0.257 NA 
HETATM   12  C   UNL     1     -11.536  12.452  68.573  1.00  0.00    -0.313 A  
ENDROOT
BRANCH   9  13
HETATM   13  N   UNL     1     -12.755  15.780  71.155  1.00  0.00    -0.506 NA 
HETATM   14  H   UNL     1     -13.775  15.791  71.178  1.00  0.00     0.000 HD 
BRANCH  13  15
HETATM   15  C   UNL     1     -11.969  15.864  72.388  1.00  0.00    -0.518 C  
HETATM   16  C   UNL     1     -12.618  16.277  73.683  1.00  0.00    -0.639 C  
HETATM   17  C   UNL     1     -12.103  14.878  73.512  1.00  0.00    -0.436 C  
ENDBRANCH  13  15
ENDBRANCH   9  13
BRANCH  11  18
HETATM   18  C   UNL     1     -10.347  12.902  66.364  1.00  0.00    -0.268 C  
HETATM   19  C   UNL     1     -10.111  14.110  65.435  1.00  0.00    -0.359 C  
HETATM   20  C   UNL     1     -11.036  13.938  64.214  1.00  0.00    -0.250 C  
HETATM   21  C   UNL     1     -11.169  11.975  65.522  1.00  0.00    -0.372 C  
HETATM   22  C   UNL     1     -11.523  12.524  64.356  1.00  0.00    -0.406 C  
BRANCH  20  23
HETATM   23  C   UNL     1     -12.181  14.956  64.196  1.00  0.00    -0.255 C  
HETATM   24  O   UNL     1     -11.709  16.241  63.802  1.00  0.00    -1.511 OA 
HETATM   25  H   UNL     1     -12.418  16.873  63.791  1.00  0.00     0.000 HD 
ENDBRANCH  20  23
ENDBRANCH  11  18
TORSDOF 4
ENDMDL
MODEL       35
REMARK 921   NORMALIZED FREE ENERGY PREDICTED BY IDOCK:   -5.84 KCAL/MOL
REMARK 922        TOTAL FREE ENERGY PREDICTED BY IDOCK:   -7.73 KCAL/MOL
REMARK 923 INTER-LIGAND FREE ENERGY PREDICTED BY IDOCK:   -7.25 KCAL/MOL
REMARK 924 INTRA-LIGAND FREE ENERGY PREDICTED BY IDOCK:   -0.48 KCAL/MOL
REMARK 927      BINDING AFFINITY PREDICTED BY RF-SCORE:    0.00 PKD
ROOT
HETATM    1  N   UNL     1      -9.699  15.173  69.611  1.00  0.00    -0.429 NA 
HETATM    2  C   UNL     1      -9.963  15.557  68.313  1.00  0.00    -0.213 A  
HETATM    3  H2  UNL     1     -10.063  14.299  69.990  1.00  0.00     0.000 HD 
HETATM    4  H1  UNL     1      -9.125  15.799  70.176  1.00  0.00     0.000 HD 
HETATM    5  N   UNL     1     -10.715  14.738  67.573  1.00  0.00    -0.264 NA 
HETATM    6  C   UNL     1     -10.952  15.237  66.348  1.00  0.00    -0.299 A  
HETATM    7  C   UNL     1     -10.504  16.442  65.835  1.00  0.00    -0.337 A  
HETATM    8  N   UNL     1     -10.970  16.607  64.543  1.00  0.00    -0.898 NA 
HETATM    9  C   UNL     1      -9.671  17.210  66.674  1.00  0.00    -0.276 A  
HETATM   10  N   UNL     1      -9.409  16.712  67.918  1.00  0.00    -0.219 NA 
HETATM   11  N   UNL     1     -11.685  14.655  65.353  1.00  0.00    -0.348 NA 
HETATM   12  C   UNL     1     -11.674  15.518  64.289  1.00  0.00    -0.190 A  
ENDROOT
BRANCH   9  13
HETATM   13  N   UNL     1      -9.112  18.450  66.305  1.00  0.00    -0.458 NA 
HETATM   14  H   UNL     1      -9.653  19.141  65.784  1.00  0.00     0.000 HD 
BRANCH  13  15
HETATM   15  C   UNL     1      -7.725  18.712  66.696  1.00  0.00    -0.248 C  
HETATM   16  C   UNL     1      -6.627  17.758  66.305  1.00  0.00    -0.297 C  
HETATM   17  C   UNL     1      -6.667  19.139  65.720  1.00  0.00    -0.295 C  
ENDBRANCH  13  15
ENDBRANCH   9  13
BRANCH  11  18
HETATM   18  C   UNL     1     -12.292  13.334  65.446  1.00  0.00    -0.479 C  
HETATM   19  C   UNL     1     -11.258  12.197  65.577  1.00  0.00    -0.381 C  
HETATM   20  C   UNL     1     -11.349  11.344  64.296  1.00  0.00    -0.244 C  
HETATM   21  C   UNL     1     -13.102  12.928  64.253  1.00  0.00     0.127 C  
HETATM   22  C   UNL     1     -12.607  11.845  63.645  1.00  0.00    -0.555 C  
BRANCH  20  23
HETATM   23  C   UNL     1     -10.118  11.501  63.398  1.00  0.00    -0.420 C  
HETATM   24  O   UNL     1      -9.663  12.851  63.393  1.00  0.00    -0.530 OA 
HETATM   25  H   UNL     1      -8.900  12.948  62.836  1.00  0.00     0.000 HD 
ENDBRANCH  20  23
ENDBRANCH  11  18
TORSDOF 4
ENDMDL
MODEL       36
REMARK 921   NORMALIZED FREE ENERGY PREDICTED BY IDOCK:   -5.84 KCAL/MOL
REMARK 922        TOTAL FREE ENERGY PREDICTED BY IDOCK:   -7.72 KCAL/MOL
REMARK 923 INTER-LIGAND FREE ENERGY PREDICTED BY IDOCK:   -7.10 KCAL/MOL
REMARK 924 INTRA-LIGAND FREE ENERGY PREDICTED BY IDOCK:   -0.62 KCAL/MOL
REMARK 927      BINDING AFFINITY PREDICTED BY RF-SCORE:    0.00 PKD
ROOT
HETATM    1  N   UNL     1     -12.860  12.657  64.430  1.00  0.00    -0.752 NA 
HETATM    2  C   UNL     1     -12.067  12.940  65.522  1.00  0.00    -0.458 A  
HETATM    3  H2  UNL     1     -12.935  13.306  63.646  1.00  0.00     0.000 HD 
HETATM    4  H1  UNL     1     -13.368  11.773  64.437  1.00  0.00     0.000 HD 
HETATM    5  N   UNL     1     -11.402  14.098  65.513  1.00  0.00    -0.312 NA 
HETATM    6  C   UNL     1     -10.707  14.293  66.647  1.00  0.00    -0.290 A  
HETATM    7  C   UNL     1     -10.632  13.443  67.737  1.00  0.00    -0.245 A  
HETATM    8  N   UNL     1      -9.828  14.001  68.715  1.00  0.00    -0.185 NA 
HETATM    9  C   UNL     1     -11.325  12.220  67.628  1.00  0.00    -0.311 A  
HETATM   10  N   UNL     1     -12.025  12.000  66.477  1.00  0.00    -0.601 NA 
HETATM   11  N   UNL     1      -9.929  15.371  66.957  1.00  0.00    -0.235 NA 
HETATM   12  C   UNL     1      -9.426  15.155  68.213  1.00  0.00    -0.201 A  
ENDROOT
BRANCH   9  13
HETATM   13  N   UNL     1     -11.339  11.232  68.634  1.00  0.00    -0.245 NA 
HETATM   14  H   UNL     1     -10.640  10.490  68.656  1.00  0.00     0.000 HD 
BRANCH  13  15
HETATM   15  C   UNL     1     -12.395  11.311  69.646  1.00  0.00    -0.194 C  
HETATM   16  C   UNL     1     -12.196  10.698  71.008  1.00  0.00    -0.498 C  
HETATM   17  C   UNL     1     -12.298  12.188  70.861  1.00  0.00    -0.370 C  
ENDBRANCH  13  15
ENDBRANCH   9  13
BRANCH  11  18
HETATM   18  C   UNL     1      -9.673  16.486  66.054  1.00  0.00    -0.301 C  
HETATM   19  C   UNL     1      -8.289  17.134  66.264  1.00  0.00    -0.298 C  
HETATM   20  C   UNL     1      -8.527  18.565  66.786  1.00  0.00    -0.290 C  
HETATM   21  C   UNL     1     -10.618  17.639  66.194  1.00  0.00    -0.220 C  
HETATM   22  C   UNL     1     -10.000  18.763  66.568  1.00  0.00    -0.415 C  
BRANCH  20  23
HETATM   23  C   UNL     1      -8.122  18.730  68.254  1.00  0.00    -0.324 C  
HETATM   24  O   UNL     1      -9.159  19.362  68.999  1.00  0.00    -0.358 OA 
HETATM   25  H   UNL     1      -8.908  19.464  69.909  1.00  0.00     0.000 HD 
ENDBRANCH  20  23
ENDBRANCH  11  18
TORSDOF 4
ENDMDL
MODEL       37
REMARK 921   NORMALIZED FREE ENERGY PREDICTED BY IDOCK:   -5.82 KCAL/MOL
REMARK 922        TOTAL FREE ENERGY PREDICTED BY IDOCK:   -7.70 KCAL/MOL
REMARK 923 INTER-LIGAND FREE ENERGY PREDICTED BY IDOCK:   -7.15 KCAL/MOL
REMARK 924 INTRA-LIGAND FREE ENERGY PREDICTED BY IDOCK:   -0.55 KCAL/MOL
REMARK 927      BINDING AFFINITY PREDICTED BY RF-SCORE:    0.00 PKD
ROOT
HETATM    1  N   UNL     1     -12.945  11.380  71.478  1.00  0.00    -0.440 NA 
HETATM    2  C   UNL     1     -12.048  11.052  70.483  1.00  0.00    -0.377 A  
HETATM    3  H2  UNL     1     -13.524  12.218  71.415  1.00  0.00     0.000 HD 
HETATM    4  H1  UNL     1     -13.005  10.751  72.278  1.00  0.00     0.000 HD 
HETATM    5  N   UNL     1     -11.968  11.876  69.434  1.00  0.00    -0.306 NA 
HETATM    6  C   UNL     1     -11.027  11.489  68.556  1.00  0.00    -0.223 A  
HETATM    7  C   UNL     1     -10.202  10.381  68.649  1.00  0.00    -0.181 A  
HETATM    8  N   UNL     1      -9.357  10.330  67.555  1.00  0.00    -0.147 NA 
HETATM    9  C   UNL     1     -10.401   9.543  69.766  1.00  0.00    -0.230 A  
HETATM   10  N   UNL     1     -11.362   9.914  70.661  1.00  0.00    -0.312 NA 
HETATM   11  N   UNL     1     -10.691  12.109  67.387  1.00  0.00    -0.228 NA 
HETATM   12  C   UNL     1      -9.677  11.381  66.823  1.00  0.00    -0.198 A  
ENDROOT
BRANCH   9  13
HETATM   13  N   UNL     1      -9.664   8.365  70.006  1.00  0.00    -0.175 NA 
HETATM   14  H   UNL     1      -8.842   8.369  70.609  1.00  0.00     0.000 HD 
BRANCH  13  15
HETATM   15  C   UNL     1     -10.123   7.134  69.357  1.00  0.00    -0.176 C  
HETATM   16  C   UNL     1     -10.073   5.819  70.090  1.00  0.00    -0.274 C  
HETATM   17  C   UNL     1     -11.395   6.435  69.740  1.00  0.00    -0.494 C  
ENDBRANCH  13  15
ENDBRANCH   9  13
BRANCH  11  18
HETATM   18  C   UNL     1     -11.363  13.292  66.862  1.00  0.00    -0.318 C  
HETATM   19  C   UNL     1     -12.365  12.972  65.734  1.00  0.00    -0.477 C  
HETATM   20  C   UNL     1     -11.818  13.607  64.441  1.00  0.00    -0.460 C  
HETATM   21  C   UNL     1     -10.455  14.307  66.239  1.00  0.00    -0.291 C  
HETATM   22  C   UNL     1     -10.712  14.493  64.941  1.00  0.00    -0.448 C  
BRANCH  20  23
HETATM   23  C   UNL     1     -11.327  12.562  63.435  1.00  0.00    -0.422 C  
HETATM   24  O   UNL     1     -12.385  11.687  63.056  1.00  0.00    -0.970 OA 
HETATM   25  H   UNL     1     -12.080  11.039  62.432  1.00  0.00     0.000 HD 
ENDBRANCH  20  23
ENDBRANCH  11  18
TORSDOF 4
ENDMDL
MODEL       38
REMARK 921   NORMALIZED FREE ENERGY PREDICTED BY IDOCK:   -5.82 KCAL/MOL
REMARK 922        TOTAL FREE ENERGY PREDICTED BY IDOCK:   -7.70 KCAL/MOL
REMARK 923 INTER-LIGAND FREE ENERGY PREDICTED BY IDOCK:   -7.19 KCAL/MOL
REMARK 924 INTRA-LIGAND FREE ENERGY PREDICTED BY IDOCK:   -0.51 KCAL/MOL
REMARK 927      BINDING AFFINITY PREDICTED BY RF-SCORE:    0.00 PKD
ROOT
HETATM    1  N   UNL     1     -10.029   7.538  66.691  1.00  0.00    -0.367 NA 
HETATM    2  C   UNL     1     -10.417   8.689  67.344  1.00  0.00    -0.281 A  
HETATM    3  H2  UNL     1      -9.989   7.493  65.673  1.00  0.00     0.000 HD 
HETATM    4  H1  UNL     1      -9.784   6.733  67.267  1.00  0.00     0.000 HD 
HETATM    5  N   UNL     1     -10.738   9.743  66.589  1.00  0.00    -0.099 NA 
HETATM    6  C   UNL     1     -11.150  10.788  67.327  1.00  0.00    -0.270 A  
HETATM    7  C   UNL     1     -11.254  10.848  68.707  1.00  0.00    -0.270 A  
HETATM    8  N   UNL     1     -11.730  12.089  69.090  1.00  0.00    -0.311 NA 
HETATM    9  C   UNL     1     -10.839   9.703  69.417  1.00  0.00    -0.217 A  
HETATM   10  N   UNL     1     -10.404   8.637  68.684  1.00  0.00    -0.198 NA 
HETATM   11  N   UNL     1     -11.553  12.009  66.868  1.00  0.00    -0.511 NA 
HETATM   12  C   UNL     1     -11.899  12.756  67.962  1.00  0.00    -0.336 A  
ENDROOT
BRANCH   9  13
HETATM   13  N   UNL     1     -10.859   9.600  70.823  1.00  0.00    -0.307 NA 
HETATM   14  H   UNL     1     -11.194  10.368  71.405  1.00  0.00     0.000 HD 
BRANCH  13  15
HETATM   15  C   UNL     1     -10.380   8.351  71.419  1.00  0.00    -0.222 C  
HETATM   16  C   UNL     1      -9.210   8.354  72.367  1.00  0.00    -0.345 C  
HETATM   17  C   UNL     1     -10.581   8.005  72.866  1.00  0.00    -0.399 C  
ENDBRANCH  13  15
ENDBRANCH   9  13
BRANCH  11  18
HETATM   18  C   UNL     1     -11.538  12.403  65.464  1.00  0.00    -0.385 C  
HETATM   19  C   UNL     1     -10.346  13.311  65.100  1.00  0.00    -0.336 C  
HETATM   20  C   UNL     1     -10.918  14.692  64.724  1.00  0.00    -0.399 C  
HETATM   21  C   UNL     1     -12.726  13.202  65.023  1.00  0.00    -0.456 C  
HETATM   22  C   UNL     1     -12.391  14.426  64.605  1.00  0.00    -0.435 C  
BRANCH  20  23
HETATM   23  C   UNL     1     -10.595  15.765  65.769  1.00  0.00    -0.355 C  
HETATM   24  O   UNL     1     -10.587  17.061  65.179  1.00  0.00    -0.688 OA 
HETATM   25  H   UNL     1     -10.387  17.726  65.826  1.00  0.00     0.000 HD 
ENDBRANCH  20  23
ENDBRANCH  11  18
TORSDOF 4
ENDMDL
MODEL       39
REMARK 921   NORMALIZED FREE ENERGY PREDICTED BY IDOCK:   -5.72 KCAL/MOL
REMARK 922        TOTAL FREE ENERGY PREDICTED BY IDOCK:   -7.57 KCAL/MOL
REMARK 923 INTER-LIGAND FREE ENERGY PREDICTED BY IDOCK:   -7.14 KCAL/MOL
REMARK 924 INTRA-LIGAND FREE ENERGY PREDICTED BY IDOCK:   -0.43 KCAL/MOL
REMARK 927      BINDING AFFINITY PREDICTED BY RF-SCORE:    0.00 PKD
ROOT
HETATM    1  N   UNL     1      -7.962   8.284  69.327  1.00  0.00    -0.112 NA 
HETATM    2  C   UNL     1      -8.984   9.194  69.157  1.00  0.00    -0.144 A  
HETATM    3  H2  UNL     1      -7.275   8.113  68.592  1.00  0.00     0.000 HD 
HETATM    4  H1  UNL     1      -7.920   7.790  70.219  1.00  0.00     0.000 HD 
HETATM    5  N   UNL     1      -9.040   9.841  67.989  1.00  0.00    -0.125 NA 
HETATM    6  C   UNL     1     -10.104  10.659  67.914  1.00  0.00    -0.168 A  
HETATM    7  C   UNL     1     -11.069  10.867  68.884  1.00  0.00    -0.252 A  
HETATM    8  N   UNL     1     -12.010  11.771  68.427  1.00  0.00    -0.490 NA 
HETATM    9  C   UNL     1     -10.892  10.179  70.103  1.00  0.00    -0.311 A  
HETATM   10  N   UNL     1      -9.809   9.354  70.202  1.00  0.00    -0.216 NA 
HETATM   11  N   UNL     1     -10.453  11.456  66.861  1.00  0.00    -0.230 NA 
HETATM   12  C   UNL     1     -11.610  12.101  67.212  1.00  0.00    -0.334 A  
ENDROOT
BRANCH   9  13
HETATM   13  N   UNL     1     -11.767  10.290  71.203  1.00  0.00    -0.361 NA 
HETATM   14  H   UNL     1     -12.080  11.201  71.539  1.00  0.00     0.000 HD 
BRANCH  13  15
HETATM   15  C   UNL     1     -12.209   9.051  71.845  1.00  0.00    -0.381 C  
HETATM   16  C   UNL     1     -13.677   8.764  72.024  1.00  0.00    -0.491 C  
HETATM   17  C   UNL     1     -12.854   7.924  71.091  1.00  0.00    -0.156 C  
ENDBRANCH  13  15
ENDBRANCH   9  13
BRANCH  11  18
HETATM   18  C   UNL     1      -9.668  11.595  65.641  1.00  0.00    -0.236 C  
HETATM   19  C   UNL     1     -10.051  12.835  64.809  1.00  0.00    -0.240 C  
HETATM   20  C   UNL     1     -10.662  12.331  63.487  1.00  0.00    -0.497 C  
HETATM   21  C   UNL     1      -9.814  10.467  64.666  1.00  0.00    -0.404 C  
HETATM   22  C   UNL     1     -10.330  10.865  63.500  1.00  0.00    -0.342 C  
BRANCH  20  23
HETATM   23  C   UNL     1     -12.168  12.593  63.398  1.00  0.00    -0.517 C  
HETATM   24  O   UNL     1     -12.429  13.972  63.158  1.00  0.00    -1.137 OA 
HETATM   25  H   UNL     1     -13.363  14.135  63.103  1.00  0.00     0.000 HD 
ENDBRANCH  20  23
ENDBRANCH  11  18
TORSDOF 4
ENDMDL
MODEL       40
REMARK 921   NORMALIZED FREE ENERGY PREDICTED BY IDOCK:   -5.72 KCAL/MOL
REMARK 922        TOTAL FREE ENERGY PREDICTED BY IDOCK:   -7.57 KCAL/MOL
REMARK 923 INTER-LIGAND FREE ENERGY PREDICTED BY IDOCK:   -7.39 KCAL/MOL
REMARK 924 INTRA-LIGAND FREE ENERGY PREDICTED BY IDOCK:   -0.18 KCAL/MOL
REMARK 927      BINDING AFFINITY PREDICTED BY RF-SCORE:    0.00 PKD
ROOT
HETATM    1  N   UNL     1     -11.567  16.326  63.727  1.00  0.00    -1.482 NA 
HETATM    2  C   UNL     1     -11.133  16.202  65.030  1.00  0.00    -0.294 A  
HETATM    3  H2  UNL     1     -12.063  15.567  63.259  1.00  0.00     0.000 HD 
HETATM    4  H1  UNL     1     -11.372  17.207  63.251  1.00  0.00     0.000 HD 
HETATM    5  N   UNL     1     -11.388  15.048  65.654  1.00  0.00    -0.330 NA 
HETATM    6  C   UNL     1     -10.874  15.020  66.896  1.00  0.00    -0.315 A  
HETATM    7  C   UNL     1     -10.159  16.022  67.528  1.00  0.00    -0.247 A  
HETATM    8  N   UNL     1      -9.788  15.609  68.795  1.00  0.00    -0.204 NA 
HETATM    9  C   UNL     1      -9.990  17.222  66.807  1.00  0.00    -0.301 A  
HETATM   10  N   UNL     1     -10.517  17.274  65.549  1.00  0.00    -0.629 NA 
HETATM   11  N   UNL     1     -10.952  13.992  67.792  1.00  0.00    -0.254 NA 
HETATM   12  C   UNL     1     -10.279  14.389  68.917  1.00  0.00    -0.213 A  
ENDROOT
BRANCH   9  13
HETATM   13  N   UNL     1      -9.307  18.350  67.307  1.00  0.00    -0.267 NA 
HETATM   14  H   UNL     1      -9.696  19.289  67.212  1.00  0.00     0.000 HD 
BRANCH  13  15
HETATM   15  C   UNL     1      -8.020  18.125  67.968  1.00  0.00    -0.264 C  
HETATM   16  C   UNL     1      -6.738  18.578  67.320  1.00  0.00    -0.208 C  
HETATM   17  C   UNL     1      -7.213  19.232  68.584  1.00  0.00    -0.367 C  
ENDBRANCH  13  15
ENDBRANCH   9  13
BRANCH  11  18
HETATM   18  C   UNL     1     -11.680  12.752  67.558  1.00  0.00    -0.364 C  
HETATM   19  C   UNL     1     -11.835  11.888  68.826  1.00  0.00    -0.371 C  
HETATM   20  C   UNL     1     -11.023  10.596  68.603  1.00  0.00    -0.291 C  
HETATM   21  C   UNL     1     -11.034  11.818  66.581  1.00  0.00    -0.342 C  
HETATM   22  C   UNL     1     -10.699  10.650  67.137  1.00  0.00    -0.327 C  
BRANCH  20  23
HETATM   23  C   UNL     1      -9.770  10.532  69.482  1.00  0.00    -0.119 C  
HETATM   24  O   UNL     1      -9.757   9.338  70.259  1.00  0.00    -0.198 OA 
HETATM   25  H   UNL     1      -8.981   9.298  70.804  1.00  0.00     0.000 HD 
ENDBRANCH  20  23
ENDBRANCH  11  18
TORSDOF 4
ENDMDL
MODEL       41
REMARK 921   NORMALIZED FREE ENERGY PREDICTED BY IDOCK:   -5.69 KCAL/MOL
REMARK 922        TOTAL FREE ENERGY PREDICTED BY IDOCK:   -7.54 KCAL/MOL
REMARK 923 INTER-LIGAND FREE ENERGY PREDICTED BY IDOCK:   -6.97 KCAL/MOL
REMARK 924 INTRA-LIGAND FREE ENERGY PREDICTED BY IDOCK:   -0.57 KCAL/MOL
REMARK 927      BINDING AFFINITY PREDICTED BY RF-SCORE:    0.00 PKD
ROOT
HETATM    1  N   UNL     1     -10.069  10.366  64.859  1.00  0.00    -0.334 NA 
HETATM    2  C   UNL     1     -10.576  11.217  65.819  1.00  0.00    -0.227 A  
HETATM    3  H2  UNL     1      -9.545  10.720  64.059  1.00  0.00     0.000 HD 
HETATM    4  H1  UNL     1     -10.240   9.368  64.982  1.00  0.00     0.000 HD 
HETATM    5  N   UNL     1     -10.353  12.524  65.658  1.00  0.00    -0.266 NA 
HETATM    6  C   UNL     1     -10.936  13.259  66.620  1.00  0.00    -0.283 A  
HETATM    7  C   UNL     1     -11.688  12.797  67.686  1.00  0.00    -0.367 A  
HETATM    8  N   UNL     1     -12.129  13.862  68.450  1.00  0.00    -0.349 NA 
HETATM    9  C   UNL     1     -11.820  11.397  67.800  1.00  0.00    -0.120 A  
HETATM   10  N   UNL     1     -11.223  10.634  66.839  1.00  0.00    -0.225 NA 
HETATM   11  N   UNL     1     -10.905  14.619  66.745  1.00  0.00    -0.306 NA 
HETATM   12  C   UNL     1     -11.642  14.937  67.855  1.00  0.00    -0.344 A  
ENDROOT
BRANCH   9  13
HETATM   13  N   UNL     1     -12.533  10.756  68.833  1.00  0.00    -0.731 NA 
HETATM   14  H   UNL     1     -13.415  10.278  68.650  1.00  0.00     0.000 HD 
BRANCH  13  15
HETATM   15  C   UNL     1     -11.962  10.803  70.181  1.00  0.00    -0.349 C  
HETATM   16  C   UNL     1     -12.840  11.064  71.376  1.00  0.00    -0.548 C  
HETATM   17  C   UNL     1     -12.187   9.725  71.202  1.00  0.00    -0.453 C  
ENDBRANCH  13  15
ENDBRANCH   9  13
BRANCH  11  18
HETATM   18  C   UNL     1     -10.161  15.508  65.862  1.00  0.00    -0.345 C  
HETATM   19  C   UNL     1      -8.740  15.823  66.372  1.00  0.00    -0.372 C  
HETATM   20  C   UNL     1      -8.698  17.325  66.716  1.00  0.00    -0.275 C  
HETATM   21  C   UNL     1     -10.769  16.865  65.676  1.00  0.00    -0.173 C  
HETATM   22  C   UNL     1      -9.974  17.844  66.117  1.00  0.00    -0.288 C  
BRANCH  20  23
HETATM   23  C   UNL     1      -8.609  17.580  68.224  1.00  0.00    -0.266 C  
HETATM   24  O   UNL     1      -9.795  18.207  68.703  1.00  0.00    -0.347 OA 
HETATM   25  H   UNL     1      -9.740  18.365  69.637  1.00  0.00     0.000 HD 
ENDBRANCH  20  23
ENDBRANCH  11  18
TORSDOF 4
ENDMDL
MODEL       42
REMARK 921   NORMALIZED FREE ENERGY PREDICTED BY IDOCK:   -5.68 KCAL/MOL
REMARK 922        TOTAL FREE ENERGY PREDICTED BY IDOCK:   -7.53 KCAL/MOL
REMARK 923 INTER-LIGAND FREE ENERGY PREDICTED BY IDOCK:   -7.07 KCAL/MOL
REMARK 924 INTRA-LIGAND FREE ENERGY PREDICTED BY IDOCK:   -0.46 KCAL/MOL
REMARK 927      BINDING AFFINITY PREDICTED BY RF-SCORE:    0.00 PKD
ROOT
HETATM    1  N   UNL     1      -9.019  17.672  68.241  1.00  0.00    -0.269 NA 
HETATM    2  C   UNL     1      -9.837  16.662  68.701  1.00  0.00    -0.252 A  
HETATM    3  H2  UNL     1      -8.422  17.541  67.424  1.00  0.00     0.000 HD 
HETATM    4  H1  UNL     1      -9.035  18.556  68.750  1.00  0.00     0.000 HD 
HETATM    5  N   UNL     1      -9.815  15.504  68.034  1.00  0.00    -0.212 NA 
HETATM    6  C   UNL     1     -10.607  14.579  68.602  1.00  0.00    -0.255 A  
HETATM    7  C   UNL     1     -11.387  14.727  69.736  1.00  0.00    -0.283 A  
HETATM    8  N   UNL     1     -12.048  13.543  70.011  1.00  0.00    -0.339 NA 
HETATM    9  C   UNL     1     -11.385  16.003  70.336  1.00  0.00    -0.391 A  
HETATM   10  N   UNL     1     -10.596  16.960  69.765  1.00  0.00    -0.207 NA 
HETATM   11  N   UNL     1     -10.807  13.297  68.174  1.00  0.00    -0.243 NA 
HETATM   12  C   UNL     1     -11.675  12.710  69.057  1.00  0.00    -0.318 A  
ENDROOT
BRANCH   9  13
HETATM   13  N   UNL     1     -12.136  16.334  71.482  1.00  0.00    -0.633 NA 
HETATM   14  H   UNL     1     -12.871  17.040  71.447  1.00  0.00     0.000 HD 
BRANCH  13  15
HETATM   15  C   UNL     1     -11.822  15.627  72.726  1.00  0.00    -0.474 C  
HETATM   16  C   UNL     1     -12.549  15.962  74.001  1.00  0.00    -0.755 C  
HETATM   17  C   UNL     1     -12.748  14.624  73.352  1.00  0.00    -0.528 C  
ENDBRANCH  13  15
ENDBRANCH   9  13
BRANCH  11  18
HETATM   18  C   UNL     1     -10.221  12.735  66.963  1.00  0.00    -0.241 C  
HETATM   19  C   UNL     1     -11.007  11.528  66.411  1.00  0.00    -0.336 C  
HETATM   20  C   UNL     1     -10.101  10.289  66.547  1.00  0.00    -0.290 C  
HETATM   21  C   UNL     1      -8.833  12.196  67.127  1.00  0.00    -0.191 C  
HETATM   22  C   UNL     1      -8.763  10.884  66.883  1.00  0.00    -0.144 C  
BRANCH  20  23
HETATM   23  C   UNL     1     -10.597   9.313  67.618  1.00  0.00    -0.261 C  
HETATM   24  O   UNL     1     -10.976   8.070  67.035  1.00  0.00    -0.447 OA 
HETATM   25  H   UNL     1     -11.284   7.464  67.698  1.00  0.00     0.000 HD 
ENDBRANCH  20  23
ENDBRANCH  11  18
TORSDOF 4
ENDMDL
MODEL       43
REMARK 921   NORMALIZED FREE ENERGY PREDICTED BY IDOCK:   -5.68 KCAL/MOL
REMARK 922        TOTAL FREE ENERGY PREDICTED BY IDOCK:   -7.52 KCAL/MOL
REMARK 923 INTER-LIGAND FREE ENERGY PREDICTED BY IDOCK:   -7.02 KCAL/MOL
REMARK 924 INTRA-LIGAND FREE ENERGY PREDICTED BY IDOCK:   -0.51 KCAL/MOL
REMARK 927      BINDING AFFINITY PREDICTED BY RF-SCORE:    0.00 PKD
ROOT
HETATM    1  N   UNL     1     -11.997  12.216  65.714  1.00  0.00    -0.550 NA 
HETATM    2  C   UNL     1     -11.359  12.998  66.653  1.00  0.00    -0.325 A  
HETATM    3  H2  UNL     1     -12.947  11.874  65.864  1.00  0.00     0.000 HD 
HETATM    4  H1  UNL     1     -11.482  11.994  64.862  1.00  0.00     0.000 HD 
HETATM    5  N   UNL     1     -12.035  13.289  67.769  1.00  0.00    -0.341 NA 
HETATM    6  C   UNL     1     -11.298  14.008  68.634  1.00  0.00    -0.276 A  
HETATM    7  C   UNL     1      -9.994  14.440  68.464  1.00  0.00    -0.237 A  
HETATM    8  N   UNL     1      -9.580  15.140  69.582  1.00  0.00    -0.170 NA 
HETATM    9  C   UNL     1      -9.387  14.130  67.230  1.00  0.00    -0.225 A  
HETATM   10  N   UNL     1     -10.124  13.411  66.334  1.00  0.00    -0.285 NA 
HETATM   11  N   UNL     1     -11.687  14.463  69.862  1.00  0.00    -0.287 NA 
HETATM   12  C   UNL     1     -10.619  15.132  70.399  1.00  0.00    -0.134 A  
ENDROOT
BRANCH   9  13
HETATM   13  N   UNL     1      -8.074  14.509  66.882  1.00  0.00    -0.377 NA 
HETATM   14  H   UNL     1      -7.895  15.343  66.322  1.00  0.00     0.000 HD 
BRANCH  13  15
HETATM   15  C   UNL     1      -6.976  13.663  67.355  1.00  0.00    -0.057 C  
HETATM   16  C   UNL     1      -6.409  13.847  68.738  1.00  0.00    -0.091 C  
HETATM   17  C   UNL     1      -7.157  12.594  68.393  1.00  0.00    -0.101 C  
ENDBRANCH  13  15
ENDBRANCH   9  13
BRANCH  11  18
HETATM   18  C   UNL     1     -13.023  14.286  70.417  1.00  0.00    -0.124 C  
HETATM   19  C   UNL     1     -13.567  15.552  71.109  1.00  0.00    -0.459 C  
HETATM   20  C   UNL     1     -13.695  15.235  72.612  1.00  0.00    -0.608 C  
HETATM   21  C   UNL     1     -13.128  13.239  71.483  1.00  0.00    -0.414 C  
HETATM   22  C   UNL     1     -13.509  13.745  72.660  1.00  0.00    -0.638 C  
BRANCH  20  23
HETATM   23  C   UNL     1     -12.664  15.985  73.461  1.00  0.00    -0.589 C  
HETATM   24  O   UNL     1     -12.226  15.182  74.553  1.00  0.00    -0.729 OA 
HETATM   25  H   UNL     1     -11.587  15.647  75.079  1.00  0.00     0.000 HD 
ENDBRANCH  20  23
ENDBRANCH  11  18
TORSDOF 4
ENDMDL
MODEL       44
REMARK 921   NORMALIZED FREE ENERGY PREDICTED BY IDOCK:   -5.64 KCAL/MOL
REMARK 922        TOTAL FREE ENERGY PREDICTED BY IDOCK:   -7.48 KCAL/MOL
REMARK 923 INTER-LIGAND FREE ENERGY PREDICTED BY IDOCK:   -6.84 KCAL/MOL
REMARK 924 INTRA-LIGAND FREE ENERGY PREDICTED BY IDOCK:   -0.64 KCAL/MOL
REMARK 927      BINDING AFFINITY PREDICTED BY RF-SCORE:    0.00 PKD
ROOT
HETATM    1  N   UNL     1     -12.994  15.139  70.065  1.00  0.00    -0.632 NA 
HETATM    2  C   UNL     1     -12.016  15.144  69.093  1.00  0.00    -0.274 A  
HETATM    3  H2  UNL     1     -13.075  15.899  70.741  1.00  0.00     0.000 HD 
HETATM    4  H1  UNL     1     -13.634  14.345  70.081  1.00  0.00     0.000 HD 
HETATM    5  N   UNL     1     -11.178  16.185  69.074  1.00  0.00    -0.338 NA 
HETATM    6  C   UNL     1     -10.236  16.058  68.123  1.00  0.00    -0.243 A  
HETATM    7  C   UNL     1     -10.085  15.012  67.229  1.00  0.00    -0.235 A  
HETATM    8  N   UNL     1      -8.989  15.240  66.417  1.00  0.00    -0.304 NA 
HETATM    9  C   UNL     1     -11.053  13.988  67.294  1.00  0.00    -0.302 A  
HETATM   10  N   UNL     1     -12.025  14.107  68.244  1.00  0.00    -0.351 NA 
HETATM   11  N   UNL     1      -9.230  16.939  67.842  1.00  0.00    -0.230 NA 
HETATM   12  C   UNL     1      -8.501  16.402  66.814  1.00  0.00    -0.244 A  
ENDROOT
BRANCH   9  13
HETATM   13  N   UNL     1     -11.063  12.861  66.446  1.00  0.00    -0.278 NA 
HETATM   14  H   UNL     1     -10.378  12.112  66.554  1.00  0.00     0.000 HD 
BRANCH  13  15
HETATM   15  C   UNL     1     -12.091  12.805  65.405  1.00  0.00    -0.462 C  
HETATM   16  C   UNL     1     -12.037  13.738  64.224  1.00  0.00    -0.481 C  
HETATM   17  C   UNL     1     -11.832  12.264  64.028  1.00  0.00    -0.530 C  
ENDBRANCH  13  15
ENDBRANCH   9  13
BRANCH  11  18
HETATM   18  C   UNL     1      -9.053  18.223  68.509  1.00  0.00    -0.311 C  
HETATM   19  C   UNL     1      -9.881  19.358  67.874  1.00  0.00    -0.460 C  
HETATM   20  C   UNL     1      -8.887  20.365  67.264  1.00  0.00    -0.444 C  
HETATM   21  C   UNL     1      -7.655  18.759  68.481  1.00  0.00    -0.357 C  
HETATM   22  C   UNL     1      -7.568  19.922  67.829  1.00  0.00    -0.322 C  
BRANCH  20  23
HETATM   23  C   UNL     1      -8.906  20.355  65.732  1.00  0.00     0.282 C  
HETATM   24  O   UNL     1      -7.677  19.853  65.214  1.00  0.00    -0.326 OA 
HETATM   25  H   UNL     1      -7.688  19.846  64.265  1.00  0.00     0.000 HD 
ENDBRANCH  20  23
ENDBRANCH  11  18
TORSDOF 4
ENDMDL
MODEL       45
REMARK 921   NORMALIZED FREE ENERGY PREDICTED BY IDOCK:   -5.64 KCAL/MOL
REMARK 922        TOTAL FREE ENERGY PREDICTED BY IDOCK:   -7.47 KCAL/MOL
REMARK 923 INTER-LIGAND FREE ENERGY PREDICTED BY IDOCK:   -6.88 KCAL/MOL
REMARK 924 INTRA-LIGAND FREE ENERGY PREDICTED BY IDOCK:   -0.60 KCAL/MOL
REMARK 927      BINDING AFFINITY PREDICTED BY RF-SCORE:    0.00 PKD
ROOT
HETATM    1  N   UNL     1     -12.876  15.563  71.918  1.00  0.00    -0.396 NA 
HETATM    2  C   UNL     1     -12.185  15.401  70.735  1.00  0.00    -0.381 A  
HETATM    3  H2  UNL     1     -12.839  16.440  72.438  1.00  0.00     0.000 HD 
HETATM    4  H1  UNL     1     -13.425  14.771  72.251  1.00  0.00     0.000 HD 
HETATM    5  N   UNL     1     -11.465  16.438  70.299  1.00  0.00    -0.222 NA 
HETATM    6  C   UNL     1     -10.793  16.150  69.171  1.00  0.00    -0.298 A  
HETATM    7  C   UNL     1     -10.797  14.951  68.479  1.00  0.00    -0.247 A  
HETATM    8  N   UNL     1      -9.969  15.042  67.374  1.00  0.00    -0.226 NA 
HETATM    9  C   UNL     1     -11.632  13.935  68.989  1.00  0.00    -0.310 A  
HETATM   10  N   UNL     1     -12.331  14.215  70.127  1.00  0.00    -0.342 NA 
HETATM   11  N   UNL     1      -9.967  16.983  68.473  1.00  0.00    -0.276 NA 
HETATM   12  C   UNL     1      -9.489  16.272  67.404  1.00  0.00    -0.227 A  
ENDROOT
BRANCH   9  13
HETATM   13  N   UNL     1     -11.771  12.662  68.399  1.00  0.00    -0.318 NA 
HETATM   14  H   UNL     1     -12.523  12.465  67.738  1.00  0.00     0.000 HD 
BRANCH  13  15
HETATM   15  C   UNL     1     -10.797  11.633  68.769  1.00  0.00    -0.220 C  
HETATM   16  C   UNL     1     -11.063  10.710  69.929  1.00  0.00    -0.364 C  
HETATM   17  C   UNL     1     -11.026  10.168  68.530  1.00  0.00    -0.278 C  
ENDBRANCH  13  15
ENDBRANCH   9  13
BRANCH  11  18
HETATM   18  C   UNL     1      -9.725  18.379  68.818  1.00  0.00    -0.343 C  
HETATM   19  C   UNL     1     -10.658  19.359  68.079  1.00  0.00    -0.453 C  
HETATM   20  C   UNL     1      -9.781  20.203  67.134  1.00  0.00    -0.576 C  
HETATM   21  C   UNL     1      -8.356  18.883  68.479  1.00  0.00    -0.384 C  
HETATM   22  C   UNL     1      -8.386  19.878  67.588  1.00  0.00    -0.362 C  
BRANCH  20  23
HETATM   23  C   UNL     1     -10.013  19.865  65.658  1.00  0.00    -0.163 C  
HETATM   24  O   UNL     1     -10.816  18.696  65.527  1.00  0.00    -0.489 OA 
HETATM   25  H   UNL     1     -10.961  18.486  64.612  1.00  0.00     0.000 HD 
ENDBRANCH  20  23
ENDBRANCH  11  18
TORSDOF 4
ENDMDL
MODEL       46
REMARK 921   NORMALIZED FREE ENERGY PREDICTED BY IDOCK:   -5.54 KCAL/MOL
REMARK 922        TOTAL FREE ENERGY PREDICTED BY IDOCK:   -7.36 KCAL/MOL
REMARK 923 INTER-LIGAND FREE ENERGY PREDICTED BY IDOCK:   -6.86 KCAL/MOL
REMARK 924 INTRA-LIGAND FREE ENERGY PREDICTED BY IDOCK:   -0.50 KCAL/MOL
REMARK 927      BINDING AFFINITY PREDICTED BY RF-SCORE:    0.00 PKD
ROOT
HETATM    1  N   UNL     1     -13.596  15.502  70.779  1.00  0.00    -0.847 NA 
HETATM    2  C   UNL     1     -12.469  15.184  70.052  1.00  0.00    -0.277 A  
HETATM    3  H2  UNL     1     -14.314  14.805  70.978  1.00  0.00     0.000 HD 
HETATM    4  H1  UNL     1     -13.683  16.463  71.110  1.00  0.00     0.000 HD 
HETATM    5  N   UNL     1     -12.355  13.925  69.617  1.00  0.00    -0.306 NA 
HETATM    6  C   UNL     1     -11.248  13.743  68.877  1.00  0.00    -0.272 A  
HETATM    7  C   UNL     1     -10.289  14.690  68.560  1.00  0.00    -0.238 A  
HETATM    8  N   UNL     1      -9.309  14.121  67.767  1.00  0.00    -0.194 NA 
HETATM    9  C   UNL     1     -10.470  15.975  69.112  1.00  0.00    -0.251 A  
HETATM   10  N   UNL     1     -11.582  16.174  69.877  1.00  0.00    -0.292 NA 
HETATM   11  N   UNL     1     -10.840  12.583  68.283  1.00  0.00    -0.224 NA 
HETATM   12  C   UNL     1      -9.673  12.859  67.621  1.00  0.00    -0.212 A  
ENDROOT
BRANCH   9  13
HETATM   13  N   UNL     1      -9.581  17.050  68.908  1.00  0.00    -0.266 NA 
HETATM   14  H   UNL     1      -8.570  16.909  68.915  1.00  0.00     0.000 HD 
BRANCH  13  15
HETATM   15  C   UNL     1     -10.160  18.377  68.688  1.00  0.00    -0.377 C  
HETATM   16  C   UNL     1      -9.364  19.455  68.000  1.00  0.00    -0.402 C  
HETATM   17  C   UNL     1     -10.575  18.872  67.332  1.00  0.00    -0.534 C  
ENDBRANCH  13  15
ENDBRANCH   9  13
BRANCH  11  18
HETATM   18  C   UNL     1     -11.531  11.306  68.416  1.00  0.00    -0.307 C  
HETATM   19  C   UNL     1     -11.405  10.689  69.823  1.00  0.00    -0.371 C  
HETATM   20  C   UNL     1     -10.578   9.396  69.686  1.00  0.00    -0.239 C  
HETATM   21  C   UNL     1     -11.023  10.220  67.517  1.00  0.00    -0.344 C  
HETATM   22  C   UNL     1     -10.529   9.183  68.199  1.00  0.00    -0.260 C  
BRANCH  20  23
HETATM   23  C   UNL     1      -9.184   9.520  70.309  1.00  0.00    -0.258 C  
HETATM   24  O   UNL     1      -8.511  10.675  69.818  1.00  0.00    -0.385 OA 
HETATM   25  H   UNL     1      -7.647  10.752  70.204  1.00  0.00     0.000 HD 
ENDBRANCH  20  23
ENDBRANCH  11  18
TORSDOF 4
ENDMDL
MODEL       47
REMARK 921   NORMALIZED FREE ENERGY PREDICTED BY IDOCK:   -5.51 KCAL/MOL
REMARK 922        TOTAL FREE ENERGY PREDICTED BY IDOCK:   -7.32 KCAL/MOL
REMARK 923 INTER-LIGAND FREE ENERGY PREDICTED BY IDOCK:   -6.69 KCAL/MOL
REMARK 924 INTRA-LIGAND FREE ENERGY PREDICTED BY IDOCK:   -0.64 KCAL/MOL
REMARK 927      BINDING AFFINITY PREDICTED BY RF-SCORE:    0.00 PKD
ROOT
HETATM    1  N   UNL     1     -10.293  15.087  66.979  1.00  0.00    -0.265 NA 
HETATM    2  C   UNL     1     -10.879  14.279  67.931  1.00  0.00    -0.253 A  
HETATM    3  H2  UNL     1      -9.581  14.727  66.343  1.00  0.00     0.000 HD 
HETATM    4  H1  UNL     1     -10.601  16.058  66.937  1.00  0.00     0.000 HD 
HETATM    5  N   UNL     1     -10.476  13.006  67.987  1.00  0.00    -0.222 NA 
HETATM    6  C   UNL     1     -11.073  12.330  68.983  1.00  0.00    -0.236 A  
HETATM    7  C   UNL     1     -12.006  12.816  69.883  1.00  0.00    -0.298 A  
HETATM    8  N   UNL     1     -12.373  11.817  70.767  1.00  0.00    -0.374 NA 
HETATM    9  C   UNL     1     -12.407  14.156  69.707  1.00  0.00    -0.299 A  
HETATM   10  N   UNL     1     -11.822  14.855  68.691  1.00  0.00    -0.320 NA 
HETATM   11  N   UNL     1     -10.881  11.018  69.314  1.00  0.00    -0.230 NA 
HETATM   12  C   UNL     1     -11.678  10.757  70.397  1.00  0.00    -0.351 A  
ENDROOT
BRANCH   9  13
HETATM   13  N   UNL     1     -13.361  14.804  70.519  1.00  0.00    -0.591 NA 
HETATM   14  H   UNL     1     -14.359  14.629  70.405  1.00  0.00     0.000 HD 
BRANCH  13  15
HETATM   15  C   UNL     1     -12.866  15.738  71.532  1.00  0.00    -0.449 C  
HETATM   16  C   UNL     1     -13.302  15.611  72.968  1.00  0.00    -0.668 C  
HETATM   17  C   UNL     1     -11.874  15.347  72.590  1.00  0.00    -0.567 C  
ENDBRANCH  13  15
ENDBRANCH   9  13
BRANCH  11  18
HETATM   18  C   UNL     1     -10.019  10.103  68.576  1.00  0.00    -0.163 C  
HETATM   19  C   UNL     1     -10.664   8.724  68.332  1.00  0.00    -0.112 C  
HETATM   20  C   UNL     1      -9.848   7.688  69.129  1.00  0.00    -0.171 C  
HETATM   21  C   UNL     1      -8.730   9.765  69.259  1.00  0.00    -0.165 C  
HETATM   22  C   UNL     1      -8.628   8.462  69.539  1.00  0.00    -0.129 C  
BRANCH  20  23
HETATM   23  C   UNL     1     -10.621   7.129  70.328  1.00  0.00    -0.227 C  
HETATM   24  O   UNL     1     -12.009   7.017  70.029  1.00  0.00    -0.595 OA 
HETATM   25  H   UNL     1     -12.488   6.671  70.771  1.00  0.00     0.000 HD 
ENDBRANCH  20  23
ENDBRANCH  11  18
TORSDOF 4
ENDMDL
MODEL       48
REMARK 921   NORMALIZED FREE ENERGY PREDICTED BY IDOCK:   -5.48 KCAL/MOL
REMARK 922        TOTAL FREE ENERGY PREDICTED BY IDOCK:   -7.27 KCAL/MOL
REMARK 923 INTER-LIGAND FREE ENERGY PREDICTED BY IDOCK:   -7.11 KCAL/MOL
REMARK 924 INTRA-LIGAND FREE ENERGY PREDICTED BY IDOCK:   -0.17 KCAL/MOL
REMARK 927      BINDING AFFINITY PREDICTED BY RF-SCORE:    0.00 PKD
ROOT
HETATM    1  N   UNL     1     -11.709  12.006  69.085  1.00  0.00    -0.311 NA 
HETATM    2  C   UNL     1     -11.589  12.933  68.071  1.00  0.00    -0.342 A  
HETATM    3  H2  UNL     1     -11.278  12.159  69.997  1.00  0.00     0.000 HD 
HETATM    4  H1  UNL     1     -12.245  11.161  68.886  1.00  0.00     0.000 HD 
HETATM    5  N   UNL     1     -10.887  14.039  68.332  1.00  0.00    -0.242 NA 
HETATM    6  C   UNL     1     -10.791  14.843  67.259  1.00  0.00    -0.306 A  
HETATM    7  C   UNL     1     -11.330  14.627  66.002  1.00  0.00    -0.344 A  
HETATM    8  N   UNL     1     -11.002  15.677  65.162  1.00  0.00    -0.400 NA 
HETATM    9  C   UNL     1     -12.101  13.458  65.842  1.00  0.00    -0.439 A  
HETATM   10  N   UNL     1     -12.220  12.636  66.926  1.00  0.00    -0.454 NA 
HETATM   11  N   UNL     1     -10.141  16.042  67.188  1.00  0.00    -0.264 NA 
HETATM   12  C   UNL     1     -10.288  16.503  65.906  1.00  0.00    -0.350 A  
ENDROOT
BRANCH   9  13
HETATM   13  N   UNL     1     -12.738  13.094  64.638  1.00  0.00    -0.699 NA 
HETATM   14  H   UNL     1     -13.702  13.368  64.446  1.00  0.00     0.000 HD 
BRANCH  13  15
HETATM   15  C   UNL     1     -11.965  12.309  63.673  1.00  0.00    -0.543 C  
HETATM   16  C   UNL     1     -10.486  12.542  63.506  1.00  0.00    -0.360 C  
HETATM   17  C   UNL     1     -10.984  11.248  64.081  1.00  0.00    -0.376 C  
ENDBRANCH  13  15
ENDBRANCH   9  13
BRANCH  11  18
HETATM   18  C   UNL     1      -9.482  16.687  68.317  1.00  0.00    -0.230 C  
HETATM   19  C   UNL     1      -8.731  17.976  67.927  1.00  0.00    -0.258 C  
HETATM   20  C   UNL     1      -7.227  17.713  68.140  1.00  0.00    -0.218 C  
HETATM   21  C   UNL     1      -8.425  15.860  68.983  1.00  0.00    -0.242 C  
HETATM   22  C   UNL     1      -7.215  16.422  68.907  1.00  0.00    -0.203 C  
BRANCH  20  23
HETATM   23  C   UNL     1      -6.454  17.622  66.820  1.00  0.00    -0.187 C  
HETATM   24  O   UNL     1      -5.720  16.404  66.746  1.00  0.00    -0.340 OA 
HETATM   25  H   UNL     1      -5.241  16.347  65.928  1.00  0.00     0.000 HD 
ENDBRANCH  20  23
ENDBRANCH  11  18
TORSDOF 4
ENDMDL
MODEL       49
REMARK 921   NORMALIZED FREE ENERGY PREDICTED BY IDOCK:   -5.47 KCAL/MOL
REMARK 922        TOTAL FREE ENERGY PREDICTED BY IDOCK:   -7.27 KCAL/MOL
REMARK 923 INTER-LIGAND FREE ENERGY PREDICTED BY IDOCK:   -6.80 KCAL/MOL
REMARK 924 INTRA-LIGAND FREE ENERGY PREDICTED BY IDOCK:   -0.47 KCAL/MOL
REMARK 927      BINDING AFFINITY PREDICTED BY RF-SCORE:    0.00 PKD
ROOT
HETATM    1  N   UNL     1      -9.031   9.702  70.558  1.00  0.00    -0.314 NA 
HETATM    2  C   UNL     1      -9.375   9.847  69.231  1.00  0.00    -0.206 A  
HETATM    3  H2  UNL     1      -8.892  10.512  71.163  1.00  0.00     0.000 HD 
HETATM    4  H1  UNL     1      -8.921   8.751  70.912  1.00  0.00     0.000 HD 
HETATM    5  N   UNL     1      -9.518  11.093  68.768  1.00  0.00    -0.187 NA 
HETATM    6  C   UNL     1      -9.799  11.115  67.454  1.00  0.00    -0.173 A  
HETATM    7  C   UNL     1      -9.946  10.026  66.611  1.00  0.00    -0.216 A  
HETATM    8  N   UNL     1     -10.219  10.459  65.326  1.00  0.00    -0.291 NA 
HETATM    9  C   UNL     1      -9.830   8.753  67.207  1.00  0.00    -0.201 A  
HETATM   10  N   UNL     1      -9.558   8.711  68.543  1.00  0.00    -0.152 NA 
HETATM   11  N   UNL     1     -10.001  12.220  66.677  1.00  0.00    -0.212 NA 
HETATM   12  C   UNL     1     -10.243  11.777  65.404  1.00  0.00    -0.261 A  
ENDROOT
BRANCH   9  13
HETATM   13  N   UNL     1      -9.971   7.540  66.501  1.00  0.00    -0.423 NA 
HETATM   14  H   UNL     1      -9.518   7.398  65.598  1.00  0.00     0.000 HD 
BRANCH  13  15
HETATM   15  C   UNL     1     -10.791   6.492  67.112  1.00  0.00    -0.401 C  
HETATM   16  C   UNL     1     -10.859   5.119  66.498  1.00  0.00    -0.146 C  
HETATM   17  C   UNL     1     -10.204   5.312  67.834  1.00  0.00    -0.203 C  
ENDBRANCH  13  15
ENDBRANCH   9  13
BRANCH  11  18
HETATM   18  C   UNL     1     -10.003  13.588  67.180  1.00  0.00    -0.246 C  
HETATM   19  C   UNL     1     -11.298  14.357  66.849  1.00  0.00    -0.357 C  
HETATM   20  C   UNL     1     -10.923  15.492  65.876  1.00  0.00    -0.264 C  
HETATM   21  C   UNL     1      -8.927  14.467  66.618  1.00  0.00    -0.232 C  
HETATM   22  C   UNL     1      -9.421  15.503  65.934  1.00  0.00    -0.377 C  
BRANCH  20  23
HETATM   23  C   UNL     1     -11.456  15.253  64.461  1.00  0.00    -0.315 C  
HETATM   24  O   UNL     1     -11.636  16.486  63.772  1.00  0.00    -1.617 OA 
HETATM   25  H   UNL     1     -11.966  16.338  62.894  1.00  0.00     0.000 HD 
ENDBRANCH  20  23
ENDBRANCH  11  18
TORSDOF 4
ENDMDL
MODEL       50
REMARK 921   NORMALIZED FREE ENERGY PREDICTED BY IDOCK:   -5.44 KCAL/MOL
REMARK 922        TOTAL FREE ENERGY PREDICTED BY IDOCK:   -7.23 KCAL/MOL
REMARK 923 INTER-LIGAND FREE ENERGY PREDICTED BY IDOCK:   -7.18 KCAL/MOL
REMARK 924 INTRA-LIGAND FREE ENERGY PREDICTED BY IDOCK:   -0.06 KCAL/MOL
REMARK 927      BINDING AFFINITY PREDICTED BY RF-SCORE:    0.00 PKD
ROOT
HETATM    1  N   UNL     1      -9.622   9.635  64.628  1.00  0.00    -0.436 NA 
HETATM    2  C   UNL     1     -10.166  10.025  65.833  1.00  0.00    -0.205 A  
HETATM    3  H2  UNL     1      -9.525  10.290  63.852  1.00  0.00     0.000 HD 
HETATM    4  H1  UNL     1      -9.320   8.664  64.543  1.00  0.00     0.000 HD 
HETATM    5  N   UNL     1     -10.562  11.296  65.944  1.00  0.00    -0.262 NA 
HETATM    6  C   UNL     1     -11.124  11.550  67.138  1.00  0.00    -0.297 A  
HETATM    7  C   UNL     1     -11.304  10.659  68.183  1.00  0.00    -0.284 A  
HETATM    8  N   UNL     1     -11.932  11.294  69.239  1.00  0.00    -0.339 NA 
HETATM    9  C   UNL     1     -10.803   9.356  67.989  1.00  0.00    -0.139 A  
HETATM   10  N   UNL     1     -10.217   9.084  66.787  1.00  0.00    -0.271 NA 
HETATM   11  N   UNL     1     -11.634  12.741  67.568  1.00  0.00    -0.335 NA 
HETATM   12  C   UNL     1     -12.116  12.538  68.834  1.00  0.00    -0.122 A  
ENDROOT
BRANCH   9  13
HETATM   13  N   UNL     1     -10.884   8.331  68.955  1.00  0.00    -0.428 NA 
HETATM   14  H   UNL     1     -11.198   8.525  69.906  1.00  0.00     0.000 HD 
BRANCH  13  15
HETATM   15  C   UNL     1     -10.501   6.979  68.542  1.00  0.00    -0.200 C  
HETATM   16  C   UNL     1      -9.291   6.310  69.142  1.00  0.00    -0.133 C  
HETATM   17  C   UNL     1     -10.664   5.778  69.428  1.00  0.00    -0.397 C  
ENDBRANCH  13  15
ENDBRANCH   9  13
BRANCH  11  18
HETATM   18  C   UNL     1     -11.590  13.978  66.799  1.00  0.00    -0.386 C  
HETATM   19  C   UNL     1     -12.669  14.049  65.699  1.00  0.00    -0.515 C  
HETATM   20  C   UNL     1     -11.941  14.037  64.340  1.00  0.00    -0.480 C  
HETATM   21  C   UNL     1     -10.315  14.207  66.047  1.00  0.00    -0.316 C  
HETATM   22  C   UNL     1     -10.506  14.259  64.725  1.00  0.00    -0.421 C  
BRANCH  20  23
HETATM   23  C   UNL     1     -12.149  12.728  63.573  1.00  0.00    -0.559 C  
HETATM   24  O   UNL     1     -10.916  12.248  63.045  1.00  0.00    -0.651 OA 
HETATM   25  H   UNL     1     -11.045  11.436  62.569  1.00  0.00     0.000 HD 
ENDBRANCH  20  23
ENDBRANCH  11  18
TORSDOF 4
ENDMDL
MODEL       51
REMARK 921   NORMALIZED FREE ENERGY PREDICTED BY IDOCK:   -5.44 KCAL/MOL
REMARK 922        TOTAL FREE ENERGY PREDICTED BY IDOCK:   -7.23 KCAL/MOL
REMARK 923 INTER-LIGAND FREE ENERGY PREDICTED BY IDOCK:   -6.95 KCAL/MOL
REMARK 924 INTRA-LIGAND FREE ENERGY PREDICTED BY IDOCK:   -0.28 KCAL/MOL
REMARK 927      BINDING AFFINITY PREDICTED BY RF-SCORE:    0.00 PKD
ROOT
HETATM    1  N   UNL     1     -12.398  10.774  69.032  1.00  0.00    -0.768 NA 
HETATM    2  C   UNL     1     -11.960  11.710  68.119  1.00  0.00    -0.144 A  
HETATM    3  H2  UNL     1     -12.371   9.776  68.823  1.00  0.00     0.000 HD 
HETATM    4  H1  UNL     1     -12.749  11.121  69.925  1.00  0.00     0.000 HD 
HETATM    5  N   UNL     1     -11.500  11.256  66.949  1.00  0.00    -0.433 NA 
HETATM    6  C   UNL     1     -11.152  12.255  66.120  1.00  0.00    -0.311 A  
HETATM    7  C   UNL     1     -11.225  13.614  66.371  1.00  0.00    -0.308 A  
HETATM    8  N   UNL     1     -10.789  14.322  65.265  1.00  0.00    -0.333 NA 
HETATM    9  C   UNL     1     -11.672  13.991  67.654  1.00  0.00    -0.377 A  
HETATM   10  N   UNL     1     -12.016  12.990  68.515  1.00  0.00    -0.309 NA 
HETATM   11  N   UNL     1     -10.652  12.134  64.854  1.00  0.00    -0.281 NA 
HETATM   12  C   UNL     1     -10.456  13.402  64.377  1.00  0.00    -0.384 A  
ENDROOT
BRANCH   9  13
HETATM   13  N   UNL     1     -11.787  15.329  68.084  1.00  0.00    -0.477 NA 
HETATM   14  H   UNL     1     -12.700  15.759  68.236  1.00  0.00     0.000 HD 
BRANCH  13  15
HETATM   15  C   UNL     1     -10.549  16.079  68.306  1.00  0.00    -0.283 C  
HETATM   16  C   UNL     1     -10.075  17.089  67.294  1.00  0.00    -0.295 C  
HETATM   17  C   UNL     1     -10.529  17.541  68.651  1.00  0.00    -0.338 C  
ENDBRANCH  13  15
ENDBRANCH   9  13
BRANCH  11  18
HETATM   18  C   UNL     1     -10.351  10.862  64.209  1.00  0.00    -0.368 C  
HETATM   19  C   UNL     1      -9.604   9.875  65.129  1.00  0.00    -0.367 C  
HETATM   20  C   UNL     1      -8.195   9.673  64.537  1.00  0.00    -0.151 C  
HETATM   21  C   UNL     1      -9.458  10.960  63.011  1.00  0.00    -0.369 C  
HETATM   22  C   UNL     1      -8.306  10.304  63.178  1.00  0.00    -0.167 C  
BRANCH  20  23
HETATM   23  C   UNL     1      -7.100  10.313  65.397  1.00  0.00    -0.139 C  
HETATM   24  O   UNL     1      -7.531  11.569  65.913  1.00  0.00    -0.351 OA 
HETATM   25  H   UNL     1      -6.852  11.966  66.445  1.00  0.00     0.000 HD 
ENDBRANCH  20  23
ENDBRANCH  11  18
TORSDOF 4
ENDMDL
MODEL       52
REMARK 921   NORMALIZED FREE ENERGY PREDICTED BY IDOCK:   -5.41 KCAL/MOL
REMARK 922        TOTAL FREE ENERGY PREDICTED BY IDOCK:   -7.20 KCAL/MOL
REMARK 923 INTER-LIGAND FREE ENERGY PREDICTED BY IDOCK:   -6.57 KCAL/MOL
REMARK 924 INTRA-LIGAND FREE ENERGY PREDICTED BY IDOCK:   -0.63 KCAL/MOL
REMARK 927      BINDING AFFINITY PREDICTED BY RF-SCORE:    0.00 PKD
ROOT
HETATM    1  N   UNL     1     -12.166  13.795  63.632  1.00  0.00    -0.900 NA 
HETATM    2  C   UNL     1     -11.944  13.342  64.916  1.00  0.00    -0.378 A  
HETATM    3  H2  UNL     1     -11.942  13.220  62.820  1.00  0.00     0.000 HD 
HETATM    4  H1  UNL     1     -12.563  14.729  63.528  1.00  0.00     0.000 HD 
HETATM    5  N   UNL     1     -11.424  12.118  65.052  1.00  0.00    -0.331 NA 
HETATM    6  C   UNL     1     -11.202  11.803  66.340  1.00  0.00    -0.323 A  
HETATM    7  C   UNL     1     -11.458  12.591  67.449  1.00  0.00    -0.341 A  
HETATM    8  N   UNL     1     -11.080  11.921  68.599  1.00  0.00    -0.228 NA 
HETATM    9  C   UNL     1     -12.058  13.843  67.205  1.00  0.00    -0.387 A  
HETATM   10  N   UNL     1     -12.304  14.174  65.904  1.00  0.00    -0.465 NA 
HETATM   11  N   UNL     1     -10.677  10.638  66.820  1.00  0.00    -0.238 NA 
HETATM   12  C   UNL     1     -10.615  10.757  68.183  1.00  0.00    -0.203 A  
ENDROOT
BRANCH   9  13
HETATM   13  N   UNL     1     -12.405  14.760  68.218  1.00  0.00    -0.586 NA 
HETATM   14  H   UNL     1     -13.310  14.714  68.686  1.00  0.00     0.000 HD 
BRANCH  13  15
HETATM   15  C   UNL     1     -11.417  15.780  68.576  1.00  0.00    -0.379 C  
HETATM   16  C   UNL     1     -11.142  16.106  70.020  1.00  0.00    -0.363 C  
HETATM   17  C   UNL     1     -10.084  15.451  69.182  1.00  0.00    -0.235 C  
ENDBRANCH  13  15
ENDBRANCH   9  13
BRANCH  11  18
HETATM   18  C   UNL     1     -10.322   9.493  65.990  1.00  0.00    -0.060 C  
HETATM   19  C   UNL     1     -10.338   8.156  66.757  1.00  0.00    -0.361 C  
HETATM   20  C   UNL     1      -8.887   7.639  66.810  1.00  0.00    -0.150 C  
HETATM   21  C   UNL     1      -8.942   9.541  65.409  1.00  0.00    -0.244 C  
HETATM   22  C   UNL     1      -8.175   8.532  65.834  1.00  0.00    -0.125 C  
BRANCH  20  23
HETATM   23  C   UNL     1      -8.289   7.710  68.218  1.00  0.00    -0.125 C  
HETATM   24  O   UNL     1      -9.306   7.586  69.208  1.00  0.00    -0.151 OA 
HETATM   25  H   UNL     1      -8.936   7.630  70.081  1.00  0.00     0.000 HD 
ENDBRANCH  20  23
ENDBRANCH  11  18
TORSDOF 4
ENDMDL
MODEL       53
REMARK 921   NORMALIZED FREE ENERGY PREDICTED BY IDOCK:   -5.41 KCAL/MOL
REMARK 922        TOTAL FREE ENERGY PREDICTED BY IDOCK:   -7.19 KCAL/MOL
REMARK 923 INTER-LIGAND FREE ENERGY PREDICTED BY IDOCK:   -7.13 KCAL/MOL
REMARK 924 INTRA-LIGAND FREE ENERGY PREDICTED BY IDOCK:   -0.06 KCAL/MOL
REMARK 927      BINDING AFFINITY PREDICTED BY RF-SCORE:    0.00 PKD
ROOT
HETATM    1  N   UNL     1     -11.444  16.406  63.854  1.00  0.00    -1.618 NA 
HETATM    2  C   UNL     1     -10.993  15.965  65.080  1.00  0.00    -0.377 A  
HETATM    3  H2  UNL     1     -11.044  17.232  63.408  1.00  0.00     0.000 HD 
HETATM    4  H1  UNL     1     -12.192  15.873  63.411  1.00  0.00     0.000 HD 
HETATM    5  N   UNL     1     -10.014  16.664  65.661  1.00  0.00    -0.563 NA 
HETATM    6  C   UNL     1      -9.693  16.176  66.872  1.00  0.00    -0.236 A  
HETATM    7  C   UNL     1     -10.257  15.084  67.510  1.00  0.00    -0.234 A  
HETATM    8  N   UNL     1      -9.668  14.907  68.749  1.00  0.00    -0.220 NA 
HETATM    9  C   UNL     1     -11.245  14.380  66.792  1.00  0.00    -0.337 A  
HETATM   10  N   UNL     1     -11.574  14.853  65.554  1.00  0.00    -0.308 NA 
HETATM   11  N   UNL     1      -8.742  16.659  67.725  1.00  0.00    -0.199 NA 
HETATM   12  C   UNL     1      -8.768  15.869  68.844  1.00  0.00    -0.225 A  
ENDROOT
BRANCH   9  13
HETATM   13  N   UNL     1     -11.907  13.236  67.282  1.00  0.00    -0.372 NA 
HETATM   14  H   UNL     1     -12.726  13.316  67.885  1.00  0.00     0.000 HD 
BRANCH  13  15
HETATM   15  C   UNL     1     -11.377  11.927  66.892  1.00  0.00    -0.330 C  
HETATM   16  C   UNL     1      -9.902  11.638  66.993  1.00  0.00    -0.211 C  
HETATM   17  C   UNL     1     -10.871  10.921  67.887  1.00  0.00    -0.295 C  
ENDBRANCH  13  15
ENDBRANCH   9  13
BRANCH  11  18
HETATM   18  C   UNL     1      -7.856  17.775  67.419  1.00  0.00    -0.207 C  
HETATM   19  C   UNL     1      -6.362  17.430  67.592  1.00  0.00    -0.164 C  
HETATM   20  C   UNL     1      -5.827  18.279  68.762  1.00  0.00    -0.195 C  
HETATM   21  C   UNL     1      -8.035  18.978  68.293  1.00  0.00    -0.350 C  
HETATM   22  C   UNL     1      -6.938  19.262  69.001  1.00  0.00    -0.381 C  
BRANCH  20  23
HETATM   23  C   UNL     1      -5.511  17.436  70.001  1.00  0.00    -0.235 C  
HETATM   24  O   UNL     1      -6.482  16.409  70.178  1.00  0.00    -0.080 OA 
HETATM   25  H   UNL     1      -6.286  15.886  70.945  1.00  0.00     0.000 HD 
ENDBRANCH  20  23
ENDBRANCH  11  18
TORSDOF 4
ENDMDL
MODEL       54
REMARK 921   NORMALIZED FREE ENERGY PREDICTED BY IDOCK:   -5.40 KCAL/MOL
REMARK 922        TOTAL FREE ENERGY PREDICTED BY IDOCK:   -7.18 KCAL/MOL
REMARK 923 INTER-LIGAND FREE ENERGY PREDICTED BY IDOCK:   -6.67 KCAL/MOL
REMARK 924 INTRA-LIGAND FREE ENERGY PREDICTED BY IDOCK:   -0.51 KCAL/MOL
REMARK 927      BINDING AFFINITY PREDICTED BY RF-SCORE:    0.00 PKD
ROOT
HETATM    1  N   UNL     1      -7.620  11.513  66.211  1.00  0.00    -0.372 NA 
HETATM    2  C   UNL     1      -8.820  11.635  66.878  1.00  0.00    -0.190 A  
HETATM    3  H2  UNL     1      -6.960  10.768  66.435  1.00  0.00     0.000 HD 
HETATM    4  H1  UNL     1      -7.418  12.199  65.483  1.00  0.00     0.000 HD 
HETATM    5  N   UNL     1      -9.085  10.736  67.831  1.00  0.00    -0.147 NA 
HETATM    6  C   UNL     1     -10.253  10.983  68.449  1.00  0.00    -0.185 A  
HETATM    7  C   UNL     1     -11.136  12.016  68.187  1.00  0.00    -0.245 A  
HETATM    8  N   UNL     1     -12.219  11.940  69.044  1.00  0.00    -0.218 NA 
HETATM    9  C   UNL     1     -10.793  12.879  67.125  1.00  0.00    -0.256 A  
HETATM   10  N   UNL     1      -9.617  12.636  66.477  1.00  0.00    -0.245 NA 
HETATM   11  N   UNL     1     -10.811  10.262  69.466  1.00  0.00    -0.238 NA 
HETATM   12  C   UNL     1     -11.989  10.879  69.796  1.00  0.00    -0.351 A  
ENDROOT
BRANCH   9  13
HETATM   13  N   UNL     1     -11.587  13.968  66.711  1.00  0.00    -0.366 NA 
HETATM   14  H   UNL     1     -11.522  14.876  67.172  1.00  0.00     0.000 HD 
BRANCH  13  15
HETATM   15  C   UNL     1     -12.508  13.750  65.593  1.00  0.00    -0.503 C  
HETATM   16  C   UNL     1     -12.084  14.057  64.181  1.00  0.00    -0.456 C  
HETATM   17  C   UNL     1     -12.337  12.638  64.598  1.00  0.00    -0.546 C  
ENDBRANCH  13  15
ENDBRANCH   9  13
BRANCH  11  18
HETATM   18  C   UNL     1     -10.239   9.039  70.015  1.00  0.00    -0.203 C  
HETATM   19  C   UNL     1     -11.232   7.858  70.033  1.00  0.00    -0.105 C  
HETATM   20  C   UNL     1     -11.515   7.520  71.510  1.00  0.00    -0.293 C  
HETATM   21  C   UNL     1      -9.795   9.137  71.442  1.00  0.00    -0.354 C  
HETATM   22  C   UNL     1     -10.466   8.306  72.244  1.00  0.00    -0.392 C  
BRANCH  20  23
HETATM   23  C   UNL     1     -12.938   7.895  71.936  1.00  0.00    -0.298 C  
HETATM   24  O   UNL     1     -12.917   8.743  73.080  1.00  0.00    -0.710 OA 
HETATM   25  H   UNL     1     -13.799   8.975  73.344  1.00  0.00     0.000 HD 
ENDBRANCH  20  23
ENDBRANCH  11  18
TORSDOF 4
ENDMDL
MODEL       55
REMARK 921   NORMALIZED FREE ENERGY PREDICTED BY IDOCK:   -5.36 KCAL/MOL
REMARK 922        TOTAL FREE ENERGY PREDICTED BY IDOCK:   -7.13 KCAL/MOL
REMARK 923 INTER-LIGAND FREE ENERGY PREDICTED BY IDOCK:   -6.68 KCAL/MOL
REMARK 924 INTRA-LIGAND FREE ENERGY PREDICTED BY IDOCK:   -0.45 KCAL/MOL
REMARK 927      BINDING AFFINITY PREDICTED BY RF-SCORE:    0.00 PKD
ROOT
HETATM    1  N   UNL     1      -9.592  12.145  68.816  1.00  0.00    -0.405 NA 
HETATM    2  C   UNL     1      -9.809  13.059  67.806  1.00  0.00    -0.224 A  
HETATM    3  H2  UNL     1      -9.466  12.443  69.784  1.00  0.00     0.000 HD 
HETATM    4  H1  UNL     1      -9.563  11.159  68.556  1.00  0.00     0.000 HD 
HETATM    5  N   UNL     1      -9.846  14.350  68.147  1.00  0.00    -0.217 NA 
HETATM    6  C   UNL     1     -10.008  15.151  67.079  1.00  0.00    -0.241 A  
HETATM    7  C   UNL     1     -10.134  14.764  65.756  1.00  0.00    -0.339 A  
HETATM    8  N   UNL     1     -10.270  15.881  64.950  1.00  0.00    -0.428 NA 
HETATM    9  C   UNL     1     -10.137  13.377  65.505  1.00  0.00    -0.266 A  
HETATM   10  N   UNL     1      -9.987  12.548  66.579  1.00  0.00    -0.238 NA 
HETATM   11  N   UNL     1     -10.083  16.515  67.080  1.00  0.00    -0.268 NA 
HETATM   12  C   UNL     1     -10.233  16.910  65.777  1.00  0.00    -0.268 A  
ENDROOT
BRANCH   9  13
HETATM   13  N   UNL     1     -10.276  12.810  64.222  1.00  0.00    -0.541 NA 
HETATM   14  H   UNL     1     -10.482  13.389  63.407  1.00  0.00     0.000 HD 
BRANCH  13  15
HETATM   15  C   UNL     1     -10.115  11.360  64.100  1.00  0.00    -0.309 C  
HETATM   16  C   UNL     1      -9.745  10.739  62.778  1.00  0.00    -0.297 C  
HETATM   17  C   UNL     1      -8.778  10.698  63.925  1.00  0.00    -0.134 C  
ENDBRANCH  13  15
ENDBRANCH   9  13
BRANCH  11  18
HETATM   18  C   UNL     1     -10.060  17.337  68.284  1.00  0.00    -0.321 C  
HETATM   19  C   UNL     1     -10.491  18.796  68.032  1.00  0.00    -0.410 C  
HETATM   20  C   UNL     1      -9.259  19.688  68.282  1.00  0.00    -0.412 C  
HETATM   21  C   UNL     1      -8.712  17.481  68.921  1.00  0.00    -0.135 C  
HETATM   22  C   UNL     1      -8.289  18.748  68.939  1.00  0.00    -0.244 C  
BRANCH  20  23
HETATM   23  C   UNL     1      -8.705  20.299  66.991  1.00  0.00    -0.322 C  
HETATM   24  O   UNL     1      -9.720  20.387  65.995  1.00  0.00    -0.655 OA 
HETATM   25  H   UNL     1      -9.376  20.765  65.195  1.00  0.00     0.000 HD 
ENDBRANCH  20  23
ENDBRANCH  11  18
TORSDOF 4
ENDMDL
MODEL       56
REMARK 921   NORMALIZED FREE ENERGY PREDICTED BY IDOCK:   -5.33 KCAL/MOL
REMARK 922        TOTAL FREE ENERGY PREDICTED BY IDOCK:   -7.10 KCAL/MOL
REMARK 923 INTER-LIGAND FREE ENERGY PREDICTED BY IDOCK:   -6.57 KCAL/MOL
REMARK 924 INTRA-LIGAND FREE ENERGY PREDICTED BY IDOCK:   -0.53 KCAL/MOL
REMARK 927      BINDING AFFINITY PREDICTED BY RF-SCORE:    0.00 PKD
ROOT
HETATM    1  N   UNL     1     -13.315  10.164  70.521  1.00  0.00    -0.525 NA 
HETATM    2  C   UNL     1     -12.133  10.490  69.889  1.00  0.00    -0.245 A  
HETATM    3  H2  UNL     1     -14.192  10.626  70.277  1.00  0.00     0.000 HD 
HETATM    4  H1  UNL     1     -13.277   9.443  71.241  1.00  0.00     0.000 HD 
HETATM    5  N   UNL     1     -12.183  11.435  68.946  1.00  0.00    -0.464 NA 
HETATM    6  C   UNL     1     -10.969  11.708  68.438  1.00  0.00    -0.220 A  
HETATM    7  C   UNL     1      -9.764  11.123  68.790  1.00  0.00    -0.185 A  
HETATM    8  N   UNL     1      -8.736  11.682  68.053  1.00  0.00    -0.150 NA 
HETATM    9  C   UNL     1      -9.824  10.097  69.756  1.00  0.00    -0.208 A  
HETATM   10  N   UNL     1     -11.051   9.797  70.273  1.00  0.00    -0.271 NA 
HETATM   11  N   UNL     1     -10.672  12.621  67.467  1.00  0.00    -0.223 NA 
HETATM   12  C   UNL     1      -9.317  12.576  67.273  1.00  0.00    -0.190 A  
ENDROOT
BRANCH   9  13
HETATM   13  N   UNL     1      -8.699   9.382  70.214  1.00  0.00    -0.213 NA 
HETATM   14  H   UNL     1      -8.069   9.778  70.913  1.00  0.00     0.000 HD 
BRANCH  13  15
HETATM   15  C   UNL     1      -8.466   8.051  69.651  1.00  0.00    -0.131 C  
HETATM   16  C   UNL     1      -9.237   7.584  68.444  1.00  0.00    -0.139 C  
HETATM   17  C   UNL     1      -7.760   7.828  68.344  1.00  0.00    -0.119 C  
ENDBRANCH  13  15
ENDBRANCH   9  13
BRANCH  11  18
HETATM   18  C   UNL     1     -11.666  13.424  66.764  1.00  0.00    -0.385 C  
HETATM   19  C   UNL     1     -12.385  12.652  65.639  1.00  0.00    -0.390 C  
HETATM   20  C   UNL     1     -11.981  13.306  64.303  1.00  0.00    -0.477 C  
HETATM   21  C   UNL     1     -11.119  14.628  66.061  1.00  0.00    -0.332 C  
HETATM   22  C   UNL     1     -11.306  14.575  64.739  1.00  0.00    -0.397 C  
BRANCH  20  23
HETATM   23  C   UNL     1     -11.065  12.410  63.463  1.00  0.00    -0.458 C  
HETATM   24  O   UNL     1     -11.792  11.314  62.915  1.00  0.00    -0.852 OA 
HETATM   25  H   UNL     1     -11.224  10.759  62.395  1.00  0.00     0.000 HD 
ENDBRANCH  20  23
ENDBRANCH  11  18
TORSDOF 4
ENDMDL
MODEL       57
REMARK 921   NORMALIZED FREE ENERGY PREDICTED BY IDOCK:   -5.33 KCAL/MOL
REMARK 922        TOTAL FREE ENERGY PREDICTED BY IDOCK:   -7.10 KCAL/MOL
REMARK 923 INTER-LIGAND FREE ENERGY PREDICTED BY IDOCK:   -7.18 KCAL/MOL
REMARK 924 INTRA-LIGAND FREE ENERGY PREDICTED BY IDOCK:    0.08 KCAL/MOL
REMARK 927      BINDING AFFINITY PREDICTED BY RF-SCORE:    0.00 PKD
ROOT
HETATM    1  N   UNL     1     -12.276  11.576  69.434  1.00  0.00    -0.257 NA 
HETATM    2  C   UNL     1     -11.966  12.904  69.233  1.00  0.00    -0.260 A  
HETATM    3  H2  UNL     1     -12.086  10.872  68.720  1.00  0.00     0.000 HD 
HETATM    4  H1  UNL     1     -12.702  11.325  70.326  1.00  0.00     0.000 HD 
HETATM    5  N   UNL     1     -11.408  13.233  68.064  1.00  0.00    -0.273 NA 
HETATM    6  C   UNL     1     -11.200  14.556  67.956  1.00  0.00    -0.292 A  
HETATM    7  C   UNL     1     -11.495  15.528  68.897  1.00  0.00    -0.354 A  
HETATM    8  N   UNL     1     -11.146  16.776  68.412  1.00  0.00    -0.330 NA 
HETATM    9  C   UNL     1     -12.030  15.075  70.120  1.00  0.00    -0.320 A  
HETATM   10  N   UNL     1     -12.236  13.732  70.252  1.00  0.00    -0.347 NA 
HETATM   11  N   UNL     1     -10.653  15.217  66.893  1.00  0.00    -0.298 NA 
HETATM   12  C   UNL     1     -10.648  16.550  67.209  1.00  0.00    -0.285 A  
ENDROOT
BRANCH   9  13
HETATM   13  N   UNL     1     -12.368  15.924  71.194  1.00  0.00    -0.512 NA 
HETATM   14  H   UNL     1     -12.230  16.934  71.133  1.00  0.00     0.000 HD 
BRANCH  13  15
HETATM   15  C   UNL     1     -12.924  15.306  72.399  1.00  0.00    -0.380 C  
HETATM   16  C   UNL     1     -12.470  15.749  73.765  1.00  0.00    -0.727 C  
HETATM   17  C   UNL     1     -13.877  16.016  73.317  1.00  0.00    -0.218 C  
ENDBRANCH  13  15
ENDBRANCH   9  13
BRANCH  11  18
HETATM   18  C   UNL     1     -10.137  14.563  65.698  1.00  0.00    -0.359 C  
HETATM   19  C   UNL     1     -11.131  14.579  64.518  1.00  0.00    -0.280 C  
HETATM   20  C   UNL     1     -11.547  13.119  64.249  1.00  0.00    -0.440 C  
HETATM   21  C   UNL     1      -9.821  13.108  65.863  1.00  0.00    -0.241 C  
HETATM   22  C   UNL     1     -10.565  12.331  65.069  1.00  0.00    -0.322 C  
BRANCH  20  23
HETATM   23  C   UNL     1     -13.000  12.840  64.642  1.00  0.00    -0.146 C  
HETATM   24  O   UNL     1     -13.458  13.791  65.599  1.00  0.00    -0.540 OA 
HETATM   25  H   UNL     1     -14.359  13.618  65.844  1.00  0.00     0.000 HD 
ENDBRANCH  20  23
ENDBRANCH  11  18
TORSDOF 4
ENDMDL
MODEL       58
REMARK 921   NORMALIZED FREE ENERGY PREDICTED BY IDOCK:   -5.31 KCAL/MOL
REMARK 922        TOTAL FREE ENERGY PREDICTED BY IDOCK:   -7.07 KCAL/MOL
REMARK 923 INTER-LIGAND FREE ENERGY PREDICTED BY IDOCK:   -6.52 KCAL/MOL
REMARK 924 INTRA-LIGAND FREE ENERGY PREDICTED BY IDOCK:   -0.55 KCAL/MOL
REMARK 927      BINDING AFFINITY PREDICTED BY RF-SCORE:    0.00 PKD
ROOT
HETATM    1  N   UNL     1      -8.939   7.605  65.345  1.00  0.00    -0.378 NA 
HETATM    2  C   UNL     1      -9.454   8.525  66.232  1.00  0.00    -0.231 A  
HETATM    3  H2  UNL     1      -8.788   6.633  65.616  1.00  0.00     0.000 HD 
HETATM    4  H1  UNL     1      -8.715   7.935  64.406  1.00  0.00     0.000 HD 
HETATM    5  N   UNL     1      -9.747   8.093  67.462  1.00  0.00    -0.153 NA 
HETATM    6  C   UNL     1     -10.190   9.084  68.255  1.00  0.00    -0.204 A  
HETATM    7  C   UNL     1     -10.356  10.416  67.915  1.00  0.00    -0.190 A  
HETATM    8  N   UNL     1     -10.819  11.127  69.008  1.00  0.00    -0.218 NA 
HETATM    9  C   UNL     1     -10.072  10.762  66.578  1.00  0.00    -0.228 A  
HETATM   10  N   UNL     1      -9.634   9.765  65.755  1.00  0.00    -0.234 NA 
HETATM   11  N   UNL     1     -10.568   8.981  69.563  1.00  0.00    -0.226 NA 
HETATM   12  C   UNL     1     -10.932  10.235  69.977  1.00  0.00    -0.311 A  
ENDROOT
BRANCH   9  13
HETATM   13  N   UNL     1     -10.207  12.065  66.058  1.00  0.00    -0.220 NA 
HETATM   14  H   UNL     1      -9.390  12.616  65.792  1.00  0.00     0.000 HD 
BRANCH  13  15
HETATM   15  C   UNL     1     -11.562  12.601  65.914  1.00  0.00    -0.396 C  
HETATM   16  C   UNL     1     -11.862  14.033  66.273  1.00  0.00    -0.428 C  
HETATM   17  C   UNL     1     -11.943  13.584  64.844  1.00  0.00    -0.410 C  
ENDBRANCH  13  15
ENDBRANCH   9  13
BRANCH  11  18
HETATM   18  C   UNL     1     -10.611   7.729  70.309  1.00  0.00    -0.231 C  
HETATM   19  C   UNL     1     -12.012   7.085  70.337  1.00  0.00    -0.256 C  
HETATM   20  C   UNL     1     -12.507   7.123  71.796  1.00  0.00    -0.385 C  
HETATM   21  C   UNL     1     -10.258   7.849  71.760  1.00  0.00    -0.247 C  
HETATM   22  C   UNL     1     -11.271   7.503  72.561  1.00  0.00    -0.381 C  
BRANCH  20  23
HETATM   23  C   UNL     1     -13.655   8.115  72.002  1.00  0.00    -0.289 C  
HETATM   24  O   UNL     1     -13.380   8.990  73.091  1.00  0.00    -0.902 OA 
HETATM   25  H   UNL     1     -14.092   9.605  73.219  1.00  0.00     0.000 HD 
ENDBRANCH  20  23
ENDBRANCH  11  18
TORSDOF 4
ENDMDL
MODEL       59
REMARK 921   NORMALIZED FREE ENERGY PREDICTED BY IDOCK:   -5.27 KCAL/MOL
REMARK 922        TOTAL FREE ENERGY PREDICTED BY IDOCK:   -7.01 KCAL/MOL
REMARK 923 INTER-LIGAND FREE ENERGY PREDICTED BY IDOCK:   -6.96 KCAL/MOL
REMARK 924 INTRA-LIGAND FREE ENERGY PREDICTED BY IDOCK:   -0.05 KCAL/MOL
REMARK 927      BINDING AFFINITY PREDICTED BY RF-SCORE:    0.00 PKD
ROOT
HETATM    1  N   UNL     1      -8.223   7.089  68.829  1.00  0.00    -0.121 NA 
HETATM    2  C   UNL     1      -9.123   8.072  68.477  1.00  0.00    -0.136 A  
HETATM    3  H2  UNL     1      -8.073   6.831  69.805  1.00  0.00     0.000 HD 
HETATM    4  H1  UNL     1      -7.713   6.629  68.075  1.00  0.00     0.000 HD 
HETATM    5  N   UNL     1      -9.790   8.674  69.466  1.00  0.00    -0.183 NA 
HETATM    6  C   UNL     1     -10.597   9.649  69.012  1.00  0.00    -0.218 A  
HETATM    7  C   UNL     1     -10.776  10.041  67.697  1.00  0.00    -0.284 A  
HETATM    8  N   UNL     1     -11.677  11.089  67.636  1.00  0.00    -0.580 NA 
HETATM    9  C   UNL     1     -10.068   9.308  66.722  1.00  0.00    -0.261 A  
HETATM   10  N   UNL     1      -9.255   8.306  67.163  1.00  0.00    -0.140 NA 
HETATM   11  N   UNL     1     -11.408  10.455  69.758  1.00  0.00    -0.270 NA 
HETATM   12  C   UNL     1     -12.033  11.310  68.889  1.00  0.00    -0.310 A  
ENDROOT
BRANCH   9  13
HETATM   13  N   UNL     1     -10.149   9.560  65.337  1.00  0.00    -0.337 NA 
HETATM   14  H   UNL     1     -10.536   8.867  64.695  1.00  0.00     0.000 HD 
BRANCH  13  15
HETATM   15  C   UNL     1      -9.658  10.852  64.852  1.00  0.00    -0.248 C  
HETATM   16  C   UNL     1      -9.241  11.022  63.415  1.00  0.00    -0.255 C  
HETATM   17  C   UNL     1     -10.453  11.737  63.936  1.00  0.00    -0.437 C  
ENDBRANCH  13  15
ENDBRANCH   9  13
BRANCH  11  18
HETATM   18  C   UNL     1     -11.579  10.340  71.201  1.00  0.00    -0.300 C  
HETATM   19  C   UNL     1     -11.302   8.919  71.734  1.00  0.00    -0.431 C  
HETATM   20  C   UNL     1     -12.636   8.361  72.268  1.00  0.00    -0.401 C  
HETATM   21  C   UNL     1     -12.962  10.630  71.696  1.00  0.00    -0.582 C  
HETATM   22  C   UNL     1     -13.524   9.573  72.289  1.00  0.00    -0.521 C  
BRANCH  20  23
HETATM   23  C   UNL     1     -13.195   7.236  71.392  1.00  0.00    -0.346 C  
HETATM   24  O   UNL     1     -12.275   6.893  70.360  1.00  0.00    -0.600 OA 
HETATM   25  H   UNL     1     -12.620   6.195  69.817  1.00  0.00     0.000 HD 
ENDBRANCH  20  23
ENDBRANCH  11  18
TORSDOF 4
ENDMDL
MODEL       60
REMARK 921   NORMALIZED FREE ENERGY PREDICTED BY IDOCK:   -5.22 KCAL/MOL
REMARK 922        TOTAL FREE ENERGY PREDICTED BY IDOCK:   -6.96 KCAL/MOL
REMARK 923 INTER-LIGAND FREE ENERGY PREDICTED BY IDOCK:   -6.29 KCAL/MOL
REMARK 924 INTRA-LIGAND FREE ENERGY PREDICTED BY IDOCK:   -0.67 KCAL/MOL
REMARK 927      BINDING AFFINITY PREDICTED BY RF-SCORE:    0.00 PKD
ROOT
HETATM    1  N   UNL     1      -6.997  12.388  67.879  1.00  0.00    -0.093 NA 
HETATM    2  C   UNL     1      -7.995  13.173  67.340  1.00  0.00    -0.171 A  
HETATM    3  H2  UNL     1      -6.115  12.793  68.194  1.00  0.00     0.000 HD 
HETATM    4  H1  UNL     1      -7.177  11.387  67.951  1.00  0.00     0.000 HD 
HETATM    5  N   UNL     1      -7.759  14.485  67.246  1.00  0.00    -0.187 NA 
HETATM    6  C   UNL     1      -8.774  15.141  66.659  1.00  0.00    -0.272 A  
HETATM    7  C   UNL     1      -9.957  14.600  66.185  1.00  0.00    -0.304 A  
HETATM    8  N   UNL     1     -10.743  15.596  65.635  1.00  0.00    -0.352 NA 
HETATM    9  C   UNL     1     -10.135  13.215  66.381  1.00  0.00    -0.281 A  
HETATM   10  N   UNL     1      -9.120  12.534  66.988  1.00  0.00    -0.207 NA 
HETATM   11  N   UNL     1      -8.848  16.482  66.408  1.00  0.00    -0.283 NA 
HETATM   12  C   UNL     1     -10.047  16.708  65.784  1.00  0.00    -0.277 A  
ENDROOT
BRANCH   9  13
HETATM   13  N   UNL     1     -11.286  12.506  65.979  1.00  0.00    -0.300 NA 
HETATM   14  H   UNL     1     -12.135  12.512  66.545  1.00  0.00     0.000 HD 
BRANCH  13  15
HETATM   15  C   UNL     1     -11.218  11.761  64.720  1.00  0.00    -0.271 C  
HETATM   16  C   UNL     1     -11.879  12.298  63.477  1.00  0.00    -0.601 C  
HETATM   17  C   UNL     1     -10.383  12.203  63.553  1.00  0.00    -0.473 C  
ENDBRANCH  13  15
ENDBRANCH   9  13
BRANCH  11  18
HETATM   18  C   UNL     1      -7.833  17.449  66.806  1.00  0.00    -0.238 C  
HETATM   19  C   UNL     1      -8.137  18.129  68.156  1.00  0.00    -0.289 C  
HETATM   20  C   UNL     1      -8.399  19.621  67.870  1.00  0.00    -0.349 C  
HETATM   21  C   UNL     1      -7.662  18.604  65.868  1.00  0.00    -0.143 C  
HETATM   22  C   UNL     1      -7.947  19.776  66.446  1.00  0.00    -0.335 C  
BRANCH  20  23
HETATM   23  C   UNL     1      -9.868  20.008  68.067  1.00  0.00    -0.394 C  
HETATM   24  O   UNL     1     -10.534  19.061  68.897  1.00  0.00    -0.465 OA 
HETATM   25  H   UNL     1     -11.445  19.300  69.019  1.00  0.00     0.000 HD 
ENDBRANCH  20  23
ENDBRANCH  11  18
TORSDOF 4
ENDMDL
MODEL       61
REMARK 921   NORMALIZED FREE ENERGY PREDICTED BY IDOCK:   -5.21 KCAL/MOL
REMARK 922        TOTAL FREE ENERGY PREDICTED BY IDOCK:   -6.94 KCAL/MOL
REMARK 923 INTER-LIGAND FREE ENERGY PREDICTED BY IDOCK:   -7.28 KCAL/MOL
REMARK 924 INTRA-LIGAND FREE ENERGY PREDICTED BY IDOCK:    0.34 KCAL/MOL
REMARK 927      BINDING AFFINITY PREDICTED BY RF-SCORE:    0.00 PKD
ROOT
HETATM    1  N   UNL     1      -7.578  13.843  67.697  1.00  0.00    -0.164 NA 
HETATM    2  C   UNL     1      -8.370  14.688  66.949  1.00  0.00    -0.126 A  
HETATM    3  H2  UNL     1      -7.712  12.832  67.674  1.00  0.00     0.000 HD 
HETATM    4  H1  UNL     1      -6.853  14.269  68.274  1.00  0.00     0.000 HD 
HETATM    5  N   UNL     1      -9.321  14.130  66.194  1.00  0.00    -0.196 NA 
HETATM    6  C   UNL     1     -10.063  15.049  65.553  1.00  0.00    -0.369 A  
HETATM    7  C   UNL     1      -9.923  16.425  65.610  1.00  0.00    -0.238 A  
HETATM    8  N   UNL     1     -10.886  17.029  64.822  1.00  0.00    -0.812 NA 
HETATM    9  C   UNL     1      -8.856  16.915  66.391  1.00  0.00    -0.287 A  
HETATM   10  N   UNL     1      -8.083  15.995  67.039  1.00  0.00    -0.198 NA 
HETATM   11  N   UNL     1     -11.112  14.813  64.711  1.00  0.00    -0.393 NA 
HETATM   12  C   UNL     1     -11.580  16.033  64.301  1.00  0.00    -0.138 A  
ENDROOT
BRANCH   9  13
HETATM   13  N   UNL     1      -8.557  18.284  66.543  1.00  0.00    -0.277 NA 
HETATM   14  H   UNL     1      -7.826  18.731  65.988  1.00  0.00     0.000 HD 
BRANCH  13  15
HETATM   15  C   UNL     1      -9.334  19.043  67.525  1.00  0.00    -0.298 C  
HETATM   16  C   UNL     1      -9.518  20.530  67.372  1.00  0.00    -0.551 C  
HETATM   17  C   UNL     1     -10.694  19.609  67.231  1.00  0.00    -0.583 C  
ENDBRANCH  13  15
ENDBRANCH   9  13
BRANCH  11  18
HETATM   18  C   UNL     1     -11.564  13.485  64.314  1.00  0.00    -0.397 C  
HETATM   19  C   UNL     1     -12.488  12.821  65.356  1.00  0.00    -0.478 C  
HETATM   20  C   UNL     1     -11.739  11.597  65.920  1.00  0.00     0.035 C  
HETATM   21  C   UNL     1     -10.472  12.477  64.130  1.00  0.00    -0.429 C  
HETATM   22  C   UNL     1     -10.576  11.451  64.980  1.00  0.00    -0.359 C  
BRANCH  20  23
HETATM   23  C   UNL     1     -11.300  11.796  67.373  1.00  0.00    -0.311 C  
HETATM   24  O   UNL     1     -12.202  11.152  68.268  1.00  0.00    -0.709 OA 
HETATM   25  H   UNL     1     -11.930  11.275  69.169  1.00  0.00     0.000 HD 
ENDBRANCH  20  23
ENDBRANCH  11  18
TORSDOF 4
ENDMDL
MODEL       62
REMARK 921   NORMALIZED FREE ENERGY PREDICTED BY IDOCK:   -5.20 KCAL/MOL
REMARK 922        TOTAL FREE ENERGY PREDICTED BY IDOCK:   -6.93 KCAL/MOL
REMARK 923 INTER-LIGAND FREE ENERGY PREDICTED BY IDOCK:   -6.41 KCAL/MOL
REMARK 924 INTRA-LIGAND FREE ENERGY PREDICTED BY IDOCK:   -0.53 KCAL/MOL
REMARK 927      BINDING AFFINITY PREDICTED BY RF-SCORE:    0.00 PKD
ROOT
HETATM    1  N   UNL     1     -10.962  16.820  68.474  1.00  0.00    -0.339 NA 
HETATM    2  C   UNL     1     -11.499  15.757  69.168  1.00  0.00    -0.380 A  
HETATM    3  H2  UNL     1     -10.279  16.678  67.730  1.00  0.00     0.000 HD 
HETATM    4  H1  UNL     1     -11.275  17.755  68.734  1.00  0.00     0.000 HD 
HETATM    5  N   UNL     1     -11.088  14.532  68.828  1.00  0.00    -0.240 NA 
HETATM    6  C   UNL     1     -11.634  13.581  69.604  1.00  0.00    -0.275 A  
HETATM    7  C   UNL     1     -12.526  13.762  70.647  1.00  0.00    -0.359 A  
HETATM    8  N   UNL     1     -12.847  12.541  71.211  1.00  0.00    -0.313 NA 
HETATM    9  C   UNL     1     -12.942  15.087  70.893  1.00  0.00    -0.405 A  
HETATM   10  N   UNL     1     -12.407  16.065  70.105  1.00  0.00    -0.178 NA 
HETATM   11  N   UNL     1     -11.421  12.234  69.523  1.00  0.00    -0.269 NA 
HETATM   12  C   UNL     1     -12.165  11.649  70.513  1.00  0.00    -0.361 A  
ENDROOT
BRANCH   9  13
HETATM   13  N   UNL     1     -13.859  15.449  71.900  1.00  0.00    -0.490 NA 
HETATM   14  H   UNL     1     -14.866  15.376  71.750  1.00  0.00     0.000 HD 
BRANCH  13  15
HETATM   15  C   UNL     1     -13.315  15.932  73.171  1.00  0.00    -0.587 C  
HETATM   16  C   UNL     1     -12.536  15.009  74.071  1.00  0.00    -0.578 C  
HETATM   17  C   UNL     1     -11.848  16.160  73.398  1.00  0.00    -0.390 C  
ENDBRANCH  13  15
ENDBRANCH   9  13
BRANCH  11  18
HETATM   18  C   UNL     1     -10.590  11.594  68.511  1.00  0.00    -0.215 C  
HETATM   19  C   UNL     1     -11.185  10.273  67.982  1.00  0.00    -0.303 C  
HETATM   20  C   UNL     1     -10.243   9.135  68.424  1.00  0.00    -0.230 C  
HETATM   21  C   UNL     1      -9.225  11.194  68.979  1.00  0.00    -0.045 C  
HETATM   22  C   UNL     1      -9.030   9.873  68.913  1.00  0.00    -0.153 C  
BRANCH  20  23
HETATM   23  C   UNL     1     -10.865   8.244  69.504  1.00  0.00    -0.116 C  
HETATM   24  O   UNL     1      -9.858   7.536  70.219  1.00  0.00    -0.183 OA 
HETATM   25  H   UNL     1     -10.243   6.984  70.888  1.00  0.00     0.000 HD 
ENDBRANCH  20  23
ENDBRANCH  11  18
TORSDOF 4
ENDMDL
MODEL       63
REMARK 921   NORMALIZED FREE ENERGY PREDICTED BY IDOCK:   -5.19 KCAL/MOL
REMARK 922        TOTAL FREE ENERGY PREDICTED BY IDOCK:   -6.92 KCAL/MOL
REMARK 923 INTER-LIGAND FREE ENERGY PREDICTED BY IDOCK:   -6.93 KCAL/MOL
REMARK 924 INTRA-LIGAND FREE ENERGY PREDICTED BY IDOCK:    0.01 KCAL/MOL
REMARK 927      BINDING AFFINITY PREDICTED BY RF-SCORE:    0.00 PKD
ROOT
HETATM    1  N   UNL     1     -12.308  11.210  69.322  1.00  0.00    -0.478 NA 
HETATM    2  C   UNL     1     -11.472  10.728  68.337  1.00  0.00    -0.288 A  
HETATM    3  H2  UNL     1     -12.879  12.042  69.173  1.00  0.00     0.000 HD 
HETATM    4  H1  UNL     1     -12.332  10.701  70.205  1.00  0.00     0.000 HD 
HETATM    5  N   UNL     1     -11.440  11.396  67.180  1.00  0.00    -0.499 NA 
HETATM    6  C   UNL     1     -10.553  10.870  66.317  1.00  0.00    -0.214 A  
HETATM    7  C   UNL     1      -9.738   9.770  66.521  1.00  0.00    -0.209 A  
HETATM    8  N   UNL     1      -8.955   9.549  65.403  1.00  0.00    -0.186 NA 
HETATM    9  C   UNL     1      -9.886   9.101  67.754  1.00  0.00    -0.174 A  
HETATM   10  N   UNL     1     -10.791   9.613  68.638  1.00  0.00    -0.200 NA 
HETATM   11  N   UNL     1     -10.274  11.314  65.056  1.00  0.00    -0.267 NA 
HETATM   12  C   UNL     1      -9.302  10.494  64.547  1.00  0.00    -0.253 A  
ENDROOT
BRANCH   9  13
HETATM   13  N   UNL     1      -9.152   7.954  68.118  1.00  0.00    -0.134 NA 
HETATM   14  H   UNL     1      -8.204   8.028  68.488  1.00  0.00     0.000 HD 
BRANCH  13  15
HETATM   15  C   UNL     1      -9.799   6.651  67.947  1.00  0.00    -0.124 C  
HETATM   16  C   UNL     1     -11.154   6.385  68.548  1.00  0.00    -0.385 C  
HETATM   17  C   UNL     1     -10.992   6.442  67.058  1.00  0.00    -0.463 C  
ENDBRANCH  13  15
ENDBRANCH   9  13
BRANCH  11  18
HETATM   18  C   UNL     1     -10.959  12.425  64.406  1.00  0.00    -0.334 C  
HETATM   19  C   UNL     1     -10.415  13.805  64.826  1.00  0.00    -0.448 C  
HETATM   20  C   UNL     1     -11.536  14.524  65.602  1.00  0.00    -0.341 C  
HETATM   21  C   UNL     1     -12.423  12.525  64.709  1.00  0.00    -0.532 C  
HETATM   22  C   UNL     1     -12.737  13.663  65.335  1.00  0.00    -0.500 C  
BRANCH  20  23
HETATM   23  C   UNL     1     -11.225  14.655  67.096  1.00  0.00    -0.344 C  
HETATM   24  O   UNL     1     -12.310  14.173  67.883  1.00  0.00    -0.553 OA 
HETATM   25  H   UNL     1     -12.117  14.253  68.809  1.00  0.00     0.000 HD 
ENDBRANCH  20  23
ENDBRANCH  11  18
TORSDOF 4
ENDMDL
MODEL       64
REMARK 921   NORMALIZED FREE ENERGY PREDICTED BY IDOCK:   -5.15 KCAL/MOL
REMARK 922        TOTAL FREE ENERGY PREDICTED BY IDOCK:   -6.88 KCAL/MOL
REMARK 923 INTER-LIGAND FREE ENERGY PREDICTED BY IDOCK:   -6.79 KCAL/MOL
REMARK 924 INTRA-LIGAND FREE ENERGY PREDICTED BY IDOCK:   -0.09 KCAL/MOL
REMARK 927      BINDING AFFINITY PREDICTED BY RF-SCORE:    0.00 PKD
ROOT
HETATM    1  N   UNL     1      -9.878  15.388  69.962  1.00  0.00    -0.445 NA 
HETATM    2  C   UNL     1      -9.989  15.148  68.609  1.00  0.00    -0.220 A  
HETATM    3  H2  UNL     1      -9.788  14.623  70.631  1.00  0.00     0.000 HD 
HETATM    4  H1  UNL     1      -9.889  16.361  70.267  1.00  0.00     0.000 HD 
HETATM    5  N   UNL     1      -9.975  13.873  68.209  1.00  0.00    -0.233 NA 
HETATM    6  C   UNL     1     -10.144  13.757  66.881  1.00  0.00    -0.260 A  
HETATM    7  C   UNL     1     -10.313  14.783  65.967  1.00  0.00    -0.305 A  
HETATM    8  N   UNL     1     -10.469  14.260  64.696  1.00  0.00    -0.388 NA 
HETATM    9  C   UNL     1     -10.258  16.095  66.480  1.00  0.00    -0.297 A  
HETATM   10  N   UNL     1     -10.074  16.233  67.825  1.00  0.00    -0.247 NA 
HETATM   11  N   UNL     1     -10.182  12.600  66.157  1.00  0.00    -0.253 NA 
HETATM   12  C   UNL     1     -10.387  12.950  64.849  1.00  0.00    -0.308 A  
ENDROOT
BRANCH   9  13
HETATM   13  N   UNL     1     -10.391  17.254  65.688  1.00  0.00    -0.619 NA 
HETATM   14  H   UNL     1     -10.417  17.200  64.670  1.00  0.00     0.000 HD 
BRANCH  13  15
HETATM   15  C   UNL     1     -10.490  18.541  66.381  1.00  0.00    -0.406 C  
HETATM   16  C   UNL     1      -9.346  19.520  66.345  1.00  0.00    -0.443 C  
HETATM   17  C   UNL     1     -10.639  19.849  65.659  1.00  0.00    -0.431 C  
ENDBRANCH  13  15
ENDBRANCH   9  13
BRANCH  11  18
HETATM   18  C   UNL     1      -9.978  11.271  66.722  1.00  0.00    -0.206 C  
HETATM   19  C   UNL     1     -11.284  10.608  67.205  1.00  0.00    -0.237 C  
HETATM   20  C   UNL     1     -11.191  10.474  68.738  1.00  0.00    -0.317 C  
HETATM   21  C   UNL     1      -9.101  11.232  67.936  1.00  0.00    -0.150 C  
HETATM   22  C   UNL     1      -9.747  10.784  69.017  1.00  0.00    -0.201 C  
BRANCH  20  23
HETATM   23  C   UNL     1     -12.148  11.420  69.469  1.00  0.00    -0.302 C  
HETATM   24  O   UNL     1     -11.426  12.365  70.253  1.00  0.00    -0.518 OA 
HETATM   25  H   UNL     1     -12.019  12.952  70.707  1.00  0.00     0.000 HD 
ENDBRANCH  20  23
ENDBRANCH  11  18
TORSDOF 4
ENDMDL
MODEL       65
REMARK 921   NORMALIZED FREE ENERGY PREDICTED BY IDOCK:   -5.12 KCAL/MOL
REMARK 922        TOTAL FREE ENERGY PREDICTED BY IDOCK:   -6.83 KCAL/MOL
REMARK 923 INTER-LIGAND FREE ENERGY PREDICTED BY IDOCK:   -6.23 KCAL/MOL
REMARK 924 INTRA-LIGAND FREE ENERGY PREDICTED BY IDOCK:   -0.60 KCAL/MOL
REMARK 927      BINDING AFFINITY PREDICTED BY RF-SCORE:    0.00 PKD
ROOT
HETATM    1  N   UNL     1     -13.218  12.425  64.509  1.00  0.00    -0.771 NA 
HETATM    2  C   UNL     1     -12.107  12.646  65.294  1.00  0.00    -0.467 A  
HETATM    3  H2  UNL     1     -13.818  11.612  64.654  1.00  0.00     0.000 HD 
HETATM    4  H1  UNL     1     -13.417  13.106  63.777  1.00  0.00     0.000 HD 
HETATM    5  N   UNL     1     -11.847  11.753  66.254  1.00  0.00    -0.456 NA 
HETATM    6  C   UNL     1     -10.715  12.039  66.919  1.00  0.00    -0.244 A  
HETATM    7  C   UNL     1      -9.866  13.111  66.703  1.00  0.00    -0.261 A  
HETATM    8  N   UNL     1      -8.799  13.053  67.581  1.00  0.00    -0.179 NA 
HETATM    9  C   UNL     1     -10.257  14.028  65.705  1.00  0.00    -0.328 A  
HETATM   10  N   UNL     1     -11.411  13.761  65.028  1.00  0.00    -0.321 NA 
HETATM   11  N   UNL     1     -10.166  11.329  67.949  1.00  0.00    -0.177 NA 
HETATM   12  C   UNL     1      -9.012  11.971  68.310  1.00  0.00    -0.186 A  
ENDROOT
BRANCH   9  13
HETATM   13  N   UNL     1      -9.522  15.184  65.370  1.00  0.00    -0.367 NA 
HETATM   14  H   UNL     1      -8.732  15.141  64.726  1.00  0.00     0.000 HD 
BRANCH  13  15
HETATM   15  C   UNL     1      -9.936  16.451  65.978  1.00  0.00    -0.345 C  
HETATM   16  C   UNL     1     -10.769  16.460  67.233  1.00  0.00    -0.257 C  
HETATM   17  C   UNL     1      -9.357  16.966  67.265  1.00  0.00    -0.238 C  
ENDBRANCH  13  15
ENDBRANCH   9  13
BRANCH  11  18
HETATM   18  C   UNL     1     -10.775  10.147  68.546  1.00  0.00    -0.230 C  
HETATM   19  C   UNL     1     -10.301   9.882  69.990  1.00  0.00    -0.320 C  
HETATM   20  C   UNL     1      -9.501   8.564  69.975  1.00  0.00    -0.165 C  
HETATM   21  C   UNL     1     -10.473   8.860  67.842  1.00  0.00    -0.281 C  
HETATM   22  C   UNL     1      -9.806   7.999  68.617  1.00  0.00    -0.182 C  
BRANCH  20  23
HETATM   23  C   UNL     1      -8.002   8.784  70.200  1.00  0.00    -0.107 C  
HETATM   24  O   UNL     1      -7.774   9.931  71.013  1.00  0.00    -0.345 OA 
HETATM   25  H   UNL     1      -6.845  10.067  71.152  1.00  0.00     0.000 HD 
ENDBRANCH  20  23
ENDBRANCH  11  18
TORSDOF 4
ENDMDL
MODEL       66
REMARK 921   NORMALIZED FREE ENERGY PREDICTED BY IDOCK:   -5.11 KCAL/MOL
REMARK 922        TOTAL FREE ENERGY PREDICTED BY IDOCK:   -6.83 KCAL/MOL
REMARK 923 INTER-LIGAND FREE ENERGY PREDICTED BY IDOCK:   -6.29 KCAL/MOL
REMARK 924 INTRA-LIGAND FREE ENERGY PREDICTED BY IDOCK:   -0.54 KCAL/MOL
REMARK 927      BINDING AFFINITY PREDICTED BY RF-SCORE:    0.00 PKD
ROOT
HETATM    1  N   UNL     1      -6.384  15.937  69.533  1.00  0.00    -0.163 NA 
HETATM    2  C   UNL     1      -7.681  16.030  69.074  1.00  0.00    -0.216 A  
HETATM    3  H2  UNL     1      -5.897  15.041  69.570  1.00  0.00     0.000 HD 
HETATM    4  H1  UNL     1      -5.931  16.800  69.833  1.00  0.00     0.000 HD 
HETATM    5  N   UNL     1      -8.274  14.900  68.680  1.00  0.00    -0.150 NA 
HETATM    6  C   UNL     1      -9.549  15.101  68.305  1.00  0.00    -0.211 A  
HETATM    7  C   UNL     1     -10.237  16.302  68.292  1.00  0.00    -0.253 A  
HETATM    8  N   UNL     1     -11.534  16.098  67.855  1.00  0.00    -0.184 NA 
HETATM    9  C   UNL     1      -9.507  17.447  68.673  1.00  0.00    -0.280 A  
HETATM   10  N   UNL     1      -8.207  17.263  69.044  1.00  0.00    -0.164 NA 
HETATM   11  N   UNL     1     -10.431  14.159  67.857  1.00  0.00    -0.235 NA 
HETATM   12  C   UNL     1     -11.613  14.803  67.605  1.00  0.00    -0.354 A  
ENDROOT
BRANCH   9  13
HETATM   13  N   UNL     1     -10.045  18.750  68.697  1.00  0.00    -0.392 NA 
HETATM   14  H   UNL     1     -10.752  19.018  69.383  1.00  0.00     0.000 HD 
BRANCH  13  15
HETATM   15  C   UNL     1      -9.553  19.706  67.703  1.00  0.00    -0.346 C  
HETATM   16  C   UNL     1      -8.838  19.225  66.468  1.00  0.00    -0.367 C  
HETATM   17  C   UNL     1     -10.184  19.877  66.351  1.00  0.00    -0.617 C  
ENDBRANCH  13  15
ENDBRANCH   9  13
BRANCH  11  18
HETATM   18  C   UNL     1     -10.097  12.755  67.650  1.00  0.00    -0.220 C  
HETATM   19  C   UNL     1      -9.253  12.510  66.383  1.00  0.00    -0.177 C  
HETATM   20  C   UNL     1     -10.119  11.691  65.406  1.00  0.00    -0.299 C  
HETATM   21  C   UNL     1     -11.276  11.850  67.460  1.00  0.00    -0.359 C  
HETATM   22  C   UNL     1     -11.278  11.261  66.260  1.00  0.00    -0.160 C  
BRANCH  20  23
HETATM   23  C   UNL     1     -10.558  12.506  64.185  1.00  0.00    -0.398 C  
HETATM   24  O   UNL     1     -10.038  13.831  64.247  1.00  0.00    -0.744 OA 
HETATM   25  H   UNL     1     -10.310  14.336  63.491  1.00  0.00     0.000 HD 
ENDBRANCH  20  23
ENDBRANCH  11  18
TORSDOF 4
ENDMDL
MODEL       67
REMARK 921   NORMALIZED FREE ENERGY PREDICTED BY IDOCK:   -5.10 KCAL/MOL
REMARK 922        TOTAL FREE ENERGY PREDICTED BY IDOCK:   -6.81 KCAL/MOL
REMARK 923 INTER-LIGAND FREE ENERGY PREDICTED BY IDOCK:   -6.80 KCAL/MOL
REMARK 924 INTRA-LIGAND FREE ENERGY PREDICTED BY IDOCK:   -0.01 KCAL/MOL
REMARK 927      BINDING AFFINITY PREDICTED BY RF-SCORE:    0.00 PKD
ROOT
HETATM    1  N   UNL     1     -12.433  10.662  71.282  1.00  0.00    -0.390 NA 
HETATM    2  C   UNL     1     -12.368  11.975  70.868  1.00  0.00    -0.285 A  
HETATM    3  H2  UNL     1     -11.872   9.936  70.836  1.00  0.00     0.000 HD 
HETATM    4  H1  UNL     1     -13.066  10.445  72.053  1.00  0.00     0.000 HD 
HETATM    5  N   UNL     1     -11.540  12.259  69.858  1.00  0.00    -0.249 NA 
HETATM    6  C   UNL     1     -11.597  13.554  69.505  1.00  0.00    -0.294 A  
HETATM    7  C   UNL     1     -12.387  14.541  70.070  1.00  0.00    -0.323 A  
HETATM    8  N   UNL     1     -12.174  15.744  69.421  1.00  0.00    -0.238 NA 
HETATM    9  C   UNL     1     -13.185  14.154  71.166  1.00  0.00    -0.301 A  
HETATM   10  N   UNL     1     -13.130  12.845  71.547  1.00  0.00    -0.351 NA 
HETATM   11  N   UNL     1     -10.886  14.166  68.512  1.00  0.00    -0.244 NA 
HETATM   12  C   UNL     1     -11.271  15.481  68.494  1.00  0.00    -0.333 A  
ENDROOT
BRANCH   9  13
HETATM   13  N   UNL     1     -14.032  15.033  71.871  1.00  0.00    -0.451 NA 
HETATM   14  H   UNL     1     -15.013  15.146  71.611  1.00  0.00     0.000 HD 
BRANCH  13  15
HETATM   15  C   UNL     1     -13.454  15.780  72.990  1.00  0.00    -0.583 C  
HETATM   16  C   UNL     1     -12.427  15.141  73.887  1.00  0.00    -0.715 C  
HETATM   17  C   UNL     1     -12.038  16.281  72.993  1.00  0.00    -0.629 C  
ENDBRANCH  13  15
ENDBRANCH   9  13
BRANCH  11  18
HETATM   18  C   UNL     1      -9.876  13.502  67.697  1.00  0.00    -0.228 C  
HETATM   19  C   UNL     1     -10.475  12.668  66.546  1.00  0.00    -0.264 C  
HETATM   20  C   UNL     1     -10.160  11.188  66.839  1.00  0.00    -0.250 C  
HETATM   21  C   UNL     1      -9.025  12.513  68.433  1.00  0.00    -0.130 C  
HETATM   22  C   UNL     1      -9.161  11.271  67.958  1.00  0.00    -0.160 C  
BRANCH  20  23
HETATM   23  C   UNL     1     -11.408  10.386  67.221  1.00  0.00     0.105 C  
HETATM   24  O   UNL     1     -11.191   9.653  68.422  1.00  0.00    -0.487 OA 
HETATM   25  H   UNL     1     -11.964   9.156  68.659  1.00  0.00     0.000 HD 
ENDBRANCH  20  23
ENDBRANCH  11  18
TORSDOF 4
ENDMDL
MODEL       68
REMARK 921   NORMALIZED FREE ENERGY PREDICTED BY IDOCK:   -5.10 KCAL/MOL
REMARK 922        TOTAL FREE ENERGY PREDICTED BY IDOCK:   -6.81 KCAL/MOL
REMARK 923 INTER-LIGAND FREE ENERGY PREDICTED BY IDOCK:   -6.45 KCAL/MOL
REMARK 924 INTRA-LIGAND FREE ENERGY PREDICTED BY IDOCK:   -0.36 KCAL/MOL
REMARK 927      BINDING AFFINITY PREDICTED BY RF-SCORE:    0.00 PKD
ROOT
HETATM    1  N   UNL     1     -12.219   9.797  71.085  1.00  0.00    -0.338 NA 
HETATM    2  C   UNL     1     -12.282  11.156  70.862  1.00  0.00    -0.364 A  
HETATM    3  H2  UNL     1     -11.902   9.154  70.359  1.00  0.00     0.000 HD 
HETATM    4  H1  UNL     1     -12.504   9.460  72.005  1.00  0.00     0.000 HD 
HETATM    5  N   UNL     1     -11.910  11.597  69.656  1.00  0.00    -0.330 NA 
HETATM    6  C   UNL     1     -12.062  12.927  69.534  1.00  0.00    -0.214 A  
HETATM    7  C   UNL     1     -12.535  13.806  70.494  1.00  0.00    -0.339 A  
HETATM    8  N   UNL     1     -12.558  15.092  69.984  1.00  0.00    -0.261 NA 
HETATM    9  C   UNL     1     -12.849  13.251  71.752  1.00  0.00    -0.269 A  
HETATM   10  N   UNL     1     -12.688  11.904  71.898  1.00  0.00    -0.200 NA 
HETATM   11  N   UNL     1     -11.780  13.687  68.435  1.00  0.00    -0.338 NA 
HETATM   12  C   UNL     1     -12.101  14.981  68.750  1.00  0.00    -0.180 A  
ENDROOT
BRANCH   9  13
HETATM   13  N   UNL     1     -13.323  14.004  72.846  1.00  0.00    -0.648 NA 
HETATM   14  H   UNL     1     -14.316  14.036  73.076  1.00  0.00     0.000 HD 
BRANCH  13  15
HETATM   15  C   UNL     1     -12.336  14.738  73.642  1.00  0.00    -0.352 C  
HETATM   16  C   UNL     1     -11.774  16.045  73.147  1.00  0.00    -0.347 C  
HETATM   17  C   UNL     1     -12.655  16.017  74.361  1.00  0.00    -0.642 C  
ENDBRANCH  13  15
ENDBRANCH   9  13
BRANCH  11  18
HETATM   18  C   UNL     1     -11.194  13.168  67.206  1.00  0.00    -0.287 C  
HETATM   19  C   UNL     1      -9.793  12.557  67.411  1.00  0.00    -0.201 C  
HETATM   20  C   UNL     1      -8.789  13.446  66.650  1.00  0.00    -0.076 C  
HETATM   21  C   UNL     1     -10.972  14.190  66.134  1.00  0.00    -0.309 C  
HETATM   22  C   UNL     1      -9.680  14.326  65.819  1.00  0.00    -0.264 C  
BRANCH  20  23
HETATM   23  C   UNL     1      -7.882  14.245  67.590  1.00  0.00    -0.179 C  
HETATM   24  O   UNL     1      -8.161  13.933  68.951  1.00  0.00    -0.312 OA 
HETATM   25  H   UNL     1      -7.599  14.428  69.534  1.00  0.00     0.000 HD 
ENDBRANCH  20  23
ENDBRANCH  11  18
TORSDOF 4
ENDMDL
MODEL       69
REMARK 921   NORMALIZED FREE ENERGY PREDICTED BY IDOCK:   -5.10 KCAL/MOL
REMARK 922        TOTAL FREE ENERGY PREDICTED BY IDOCK:   -6.81 KCAL/MOL
REMARK 923 INTER-LIGAND FREE ENERGY PREDICTED BY IDOCK:   -6.58 KCAL/MOL
REMARK 924 INTRA-LIGAND FREE ENERGY PREDICTED BY IDOCK:   -0.23 KCAL/MOL
REMARK 927      BINDING AFFINITY PREDICTED BY RF-SCORE:    0.00 PKD
ROOT
HETATM    1  N   UNL     1     -10.010   6.756  66.082  1.00  0.00    -0.411 NA 
HETATM    2  C   UNL     1     -10.095   7.870  66.890  1.00  0.00    -0.291 A  
HETATM    3  H2  UNL     1      -9.922   6.841  65.069  1.00  0.00     0.000 HD 
HETATM    4  H1  UNL     1     -10.039   5.844  66.538  1.00  0.00     0.000 HD 
HETATM    5  N   UNL     1     -10.057   9.065  66.293  1.00  0.00    -0.286 NA 
HETATM    6  C   UNL     1     -10.201  10.074  67.169  1.00  0.00    -0.228 A  
HETATM    7  C   UNL     1     -10.367   9.974  68.540  1.00  0.00    -0.193 A  
HETATM    8  N   UNL     1     -10.495  11.235  69.093  1.00  0.00    -0.195 NA 
HETATM    9  C   UNL     1     -10.338   8.672  69.082  1.00  0.00    -0.217 A  
HETATM   10  N   UNL     1     -10.179   7.636  68.208  1.00  0.00    -0.190 NA 
HETATM   11  N   UNL     1     -10.213  11.410  66.887  1.00  0.00    -0.213 NA 
HETATM   12  C   UNL     1     -10.399  12.070  68.073  1.00  0.00    -0.195 A  
ENDROOT
BRANCH   9  13
HETATM   13  N   UNL     1     -10.471   8.390  70.457  1.00  0.00    -0.203 NA 
HETATM   14  H   UNL     1      -9.660   8.156  71.030  1.00  0.00     0.000 HD 
BRANCH  13  15
HETATM   15  C   UNL     1     -11.816   8.445  71.033  1.00  0.00    -0.252 C  
HETATM   16  C   UNL     1     -12.008   8.483  72.526  1.00  0.00    -0.401 C  
HETATM   17  C   UNL     1     -12.374   9.674  71.691  1.00  0.00    -0.489 C  
ENDBRANCH  13  15
ENDBRANCH   9  13
BRANCH  11  18
HETATM   18  C   UNL     1     -10.002  11.970  65.558  1.00  0.00    -0.241 C  
HETATM   19  C   UNL     1     -10.369  13.465  65.462  1.00  0.00    -0.302 C  
HETATM   20  C   UNL     1     -11.583  13.580  64.519  1.00  0.00    -0.410 C  
HETATM   21  C   UNL     1     -10.824  11.343  64.474  1.00  0.00    -0.375 C  
HETATM   22  C   UNL     1     -11.660  12.214  63.900  1.00  0.00    -0.532 C  
BRANCH  20  23
HETATM   23  C   UNL     1     -12.867  13.966  65.259  1.00  0.00    -0.398 C  
HETATM   24  O   UNL     1     -12.596  14.257  66.627  1.00  0.00    -0.555 OA 
HETATM   25  H   UNL     1     -13.391  14.496  67.086  1.00  0.00     0.000 HD 
ENDBRANCH  20  23
ENDBRANCH  11  18
TORSDOF 4
ENDMDL
MODEL       70
REMARK 921   NORMALIZED FREE ENERGY PREDICTED BY IDOCK:   -5.07 KCAL/MOL
REMARK 922        TOTAL FREE ENERGY PREDICTED BY IDOCK:   -6.78 KCAL/MOL
REMARK 923 INTER-LIGAND FREE ENERGY PREDICTED BY IDOCK:   -6.90 KCAL/MOL
REMARK 924 INTRA-LIGAND FREE ENERGY PREDICTED BY IDOCK:    0.12 KCAL/MOL
REMARK 927      BINDING AFFINITY PREDICTED BY RF-SCORE:    0.00 PKD
ROOT
HETATM    1  N   UNL     1     -11.456  15.195  68.245  1.00  0.00    -0.325 NA 
HETATM    2  C   UNL     1     -11.932  14.303  69.182  1.00  0.00    -0.335 A  
HETATM    3  H2  UNL     1     -10.828  14.895  67.498  1.00  0.00     0.000 HD 
HETATM    4  H1  UNL     1     -11.756  16.166  68.328  1.00  0.00     0.000 HD 
HETATM    5  N   UNL     1     -11.538  13.031  69.073  1.00  0.00    -0.299 NA 
HETATM    6  C   UNL     1     -12.019  12.265  70.068  1.00  0.00    -0.304 A  
HETATM    7  C   UNL     1     -12.834  12.666  71.113  1.00  0.00    -0.220 A  
HETATM    8  N   UNL     1     -13.103  11.590  71.940  1.00  0.00    -0.459 NA 
HETATM    9  C   UNL     1     -13.240  14.016  71.109  1.00  0.00    -0.267 A  
HETATM   10  N   UNL     1     -12.772  14.806  70.099  1.00  0.00    -0.269 NA 
HETATM   11  N   UNL     1     -11.803  10.929  70.252  1.00  0.00    -0.331 NA 
HETATM   12  C   UNL     1     -12.468  10.568  71.394  1.00  0.00    -0.411 A  
ENDROOT
BRANCH   9  13
HETATM   13  N   UNL     1     -14.084  14.586  72.084  1.00  0.00    -0.488 NA 
HETATM   14  H   UNL     1     -15.072  14.337  72.139  1.00  0.00     0.000 HD 
BRANCH  13  15
HETATM   15  C   UNL     1     -13.491  15.548  73.015  1.00  0.00    -0.536 C  
HETATM   16  C   UNL     1     -12.407  15.121  73.970  1.00  0.00    -0.725 C  
HETATM   17  C   UNL     1     -12.096  16.082  72.860  1.00  0.00    -0.626 C  
ENDBRANCH  13  15
ENDBRANCH   9  13
BRANCH  11  18
HETATM   18  C   UNL     1     -11.044  10.086  69.337  1.00  0.00    -0.223 C  
HETATM   19  C   UNL     1      -9.553   9.965  69.715  1.00  0.00    -0.261 C  
HETATM   20  C   UNL     1      -8.739  10.650  68.599  1.00  0.00    -0.148 C  
HETATM   21  C   UNL     1     -11.001  10.574  67.921  1.00  0.00    -0.352 C  
HETATM   22  C   UNL     1      -9.760  10.858  67.517  1.00  0.00    -0.187 C  
BRANCH  20  23
HETATM   23  C   UNL     1      -8.095  11.960  69.062  1.00  0.00     0.172 C  
HETATM   24  O   UNL     1      -8.785  13.083  68.521  1.00  0.00    -0.303 OA 
HETATM   25  H   UNL     1      -8.386  13.895  68.807  1.00  0.00     0.000 HD 
ENDBRANCH  20  23
ENDBRANCH  11  18
TORSDOF 4
ENDMDL
MODEL       71
REMARK 921   NORMALIZED FREE ENERGY PREDICTED BY IDOCK:   -5.06 KCAL/MOL
REMARK 922        TOTAL FREE ENERGY PREDICTED BY IDOCK:   -6.77 KCAL/MOL
REMARK 923 INTER-LIGAND FREE ENERGY PREDICTED BY IDOCK:   -6.26 KCAL/MOL
REMARK 924 INTRA-LIGAND FREE ENERGY PREDICTED BY IDOCK:   -0.50 KCAL/MOL
REMARK 927      BINDING AFFINITY PREDICTED BY RF-SCORE:    0.00 PKD
ROOT
HETATM    1  N   UNL     1     -10.882   8.558  70.233  1.00  0.00    -0.238 NA 
HETATM    2  C   UNL     1     -10.686   8.932  68.920  1.00  0.00    -0.106 A  
HETATM    3  H2  UNL     1     -11.181   9.232  70.938  1.00  0.00     0.000 HD 
HETATM    4  H1  UNL     1     -10.716   7.580  70.471  1.00  0.00     0.000 HD 
HETATM    5  N   UNL     1     -10.903  10.213  68.609  1.00  0.00    -0.227 NA 
HETATM    6  C   UNL     1     -10.630  10.474  67.319  1.00  0.00    -0.264 A  
HETATM    7  C   UNL     1     -10.180   9.581  66.362  1.00  0.00    -0.232 A  
HETATM    8  N   UNL     1     -10.002  10.233  65.155  1.00  0.00    -0.319 NA 
HETATM    9  C   UNL     1     -10.035   8.240  66.775  1.00  0.00    -0.285 A  
HETATM   10  N   UNL     1     -10.320   7.954  68.079  1.00  0.00    -0.211 NA 
HETATM   11  N   UNL     1     -10.742  11.678  66.685  1.00  0.00    -0.258 NA 
HETATM   12  C   UNL     1     -10.346  11.487  65.387  1.00  0.00    -0.273 A  
ENDROOT
BRANCH   9  13
HETATM   13  N   UNL     1      -9.607   7.199  65.927  1.00  0.00    -0.388 NA 
HETATM   14  H   UNL     1     -10.238   6.781  65.242  1.00  0.00     0.000 HD 
BRANCH  13  15
HETATM   15  C   UNL     1      -8.224   6.737  66.064  1.00  0.00    -0.129 C  
HETATM   16  C   UNL     1      -7.718   5.581  65.242  1.00  0.00    -0.090 C  
HETATM   17  C   UNL     1      -7.179   6.962  65.009  1.00  0.00    -0.074 C  
ENDBRANCH  13  15
ENDBRANCH   9  13
BRANCH  11  18
HETATM   18  C   UNL     1     -11.249  12.893  67.312  1.00  0.00    -0.288 C  
HETATM   19  C   UNL     1     -12.218  13.684  66.410  1.00  0.00    -0.472 C  
HETATM   20  C   UNL     1     -11.536  15.022  66.065  1.00  0.00    -0.158 C  
HETATM   21  C   UNL     1     -10.201  13.904  67.662  1.00  0.00    -0.242 C  
HETATM   22  C   UNL     1     -10.367  15.058  67.007  1.00  0.00    -0.269 C  
BRANCH  20  23
HETATM   23  C   UNL     1     -11.111  15.103  64.595  1.00  0.00    -0.324 C  
HETATM   24  O   UNL     1     -11.333  16.410  64.075  1.00  0.00    -1.416 OA 
HETATM   25  H   UNL     1     -11.069  16.460  63.164  1.00  0.00     0.000 HD 
ENDBRANCH  20  23
ENDBRANCH  11  18
TORSDOF 4
ENDMDL
MODEL       72
REMARK 921   NORMALIZED FREE ENERGY PREDICTED BY IDOCK:   -5.02 KCAL/MOL
REMARK 922        TOTAL FREE ENERGY PREDICTED BY IDOCK:   -6.71 KCAL/MOL
REMARK 923 INTER-LIGAND FREE ENERGY PREDICTED BY IDOCK:   -6.84 KCAL/MOL
REMARK 924 INTRA-LIGAND FREE ENERGY PREDICTED BY IDOCK:    0.13 KCAL/MOL
REMARK 927      BINDING AFFINITY PREDICTED BY RF-SCORE:    0.00 PKD
ROOT
HETATM    1  N   UNL     1     -11.837  15.800  71.087  1.00  0.00    -0.387 NA 
HETATM    2  C   UNL     1     -11.659  15.466  69.761  1.00  0.00    -0.323 A  
HETATM    3  H2  UNL     1     -11.653  16.745  71.426  1.00  0.00     0.000 HD 
HETATM    4  H1  UNL     1     -12.162  15.065  71.715  1.00  0.00     0.000 HD 
HETATM    5  N   UNL     1     -11.233  16.429  68.939  1.00  0.00    -0.327 NA 
HETATM    6  C   UNL     1     -11.043  15.978  67.687  1.00  0.00    -0.243 A  
HETATM    7  C   UNL     1     -11.245  14.689  67.223  1.00  0.00    -0.337 A  
HETATM    8  N   UNL     1     -10.926  14.617  65.879  1.00  0.00    -0.324 NA 
HETATM    9  C   UNL     1     -11.748  13.759  68.155  1.00  0.00    -0.357 A  
HETATM   10  N   UNL     1     -11.960  14.203  69.428  1.00  0.00    -0.320 NA 
HETATM   11  N   UNL     1     -10.611  16.700  66.611  1.00  0.00    -0.252 NA 
HETATM   12  C   UNL     1     -10.548  15.839  65.548  1.00  0.00    -0.406 A  
ENDROOT
BRANCH   9  13
HETATM   13  N   UNL     1     -12.030  12.412  67.847  1.00  0.00    -0.440 NA 
HETATM   14  H   UNL     1     -12.989  12.089  67.714  1.00  0.00     0.000 HD 
BRANCH  13  15
HETATM   15  C   UNL     1     -10.897  11.493  67.725  1.00  0.00    -0.221 C  
HETATM   16  C   UNL     1     -10.243  10.917  68.954  1.00  0.00    -0.213 C  
HETATM   17  C   UNL     1     -11.001  10.023  68.018  1.00  0.00    -0.296 C  
ENDBRANCH  13  15
ENDBRANCH   9  13
BRANCH  11  18
HETATM   18  C   UNL     1     -10.339  18.132  66.640  1.00  0.00    -0.376 C  
HETATM   19  C   UNL     1      -8.840  18.469  66.500  1.00  0.00    -0.301 C  
HETATM   20  C   UNL     1      -8.384  19.098  67.832  1.00  0.00    -0.333 C  
HETATM   21  C   UNL     1     -10.730  18.821  67.912  1.00  0.00    -0.347 C  
HETATM   22  C   UNL     1      -9.682  19.359  68.543  1.00  0.00    -0.497 C  
BRANCH  20  23
HETATM   23  C   UNL     1      -7.451  18.179  68.626  1.00  0.00    -0.290 C  
HETATM   24  O   UNL     1      -8.051  16.903  68.831  1.00  0.00    -0.248 OA 
HETATM   25  H   UNL     1      -7.473  16.334  69.323  1.00  0.00     0.000 HD 
ENDBRANCH  20  23
ENDBRANCH  11  18
TORSDOF 4
ENDMDL
MODEL       73
REMARK 921   NORMALIZED FREE ENERGY PREDICTED BY IDOCK:   -5.00 KCAL/MOL
REMARK 922        TOTAL FREE ENERGY PREDICTED BY IDOCK:   -6.69 KCAL/MOL
REMARK 923 INTER-LIGAND FREE ENERGY PREDICTED BY IDOCK:   -6.79 KCAL/MOL
REMARK 924 INTRA-LIGAND FREE ENERGY PREDICTED BY IDOCK:    0.10 KCAL/MOL
REMARK 927      BINDING AFFINITY PREDICTED BY RF-SCORE:    0.00 PKD
ROOT
HETATM    1  N   UNL     1      -8.259  14.677  69.246  1.00  0.00    -0.348 NA 
HETATM    2  C   UNL     1      -8.895  14.980  68.061  1.00  0.00    -0.165 A  
HETATM    3  H2  UNL     1      -8.347  13.755  69.675  1.00  0.00     0.000 HD 
HETATM    4  H1  UNL     1      -7.697  15.411  69.677  1.00  0.00     0.000 HD 
HETATM    5  N   UNL     1      -9.631  14.018  67.497  1.00  0.00    -0.223 NA 
HETATM    6  C   UNL     1     -10.246  14.440  66.379  1.00  0.00    -0.289 A  
HETATM    7  C   UNL     1     -10.173  15.700  65.810  1.00  0.00    -0.367 A  
HETATM    8  N   UNL     1     -10.957  15.749  64.671  1.00  0.00    -0.497 NA 
HETATM    9  C   UNL     1      -9.326  16.629  66.449  1.00  0.00    -0.281 A  
HETATM   10  N   UNL     1      -8.683  16.213  67.579  1.00  0.00    -0.183 NA 
HETATM   11  N   UNL     1     -11.071  13.711  65.571  1.00  0.00    -0.293 NA 
HETATM   12  C   UNL     1     -11.480  14.541  64.561  1.00  0.00    -0.343 A  
ENDROOT
BRANCH   9  13
HETATM   13  N   UNL     1      -9.119  17.947  65.993  1.00  0.00    -0.518 NA 
HETATM   14  H   UNL     1      -8.844  18.137  65.029  1.00  0.00     0.000 HD 
BRANCH  13  15
HETATM   15  C   UNL     1      -9.314  19.035  66.955  1.00  0.00    -0.313 C  
HETATM   16  C   UNL     1      -9.984  20.316  66.534  1.00  0.00    -0.528 C  
HETATM   17  C   UNL     1     -10.658  19.401  67.513  1.00  0.00    -0.591 C  
ENDBRANCH  13  15
ENDBRANCH   9  13
BRANCH  11  18
HETATM   18  C   UNL     1     -11.373  12.299  65.767  1.00  0.00    -0.355 C  
HETATM   19  C   UNL     1     -10.675  11.693  67.002  1.00  0.00    -0.292 C  
HETATM   20  C   UNL     1      -9.660  10.651  66.490  1.00  0.00    -0.218 C  
HETATM   21  C   UNL     1     -10.939  11.401  64.650  1.00  0.00    -0.324 C  
HETATM   22  C   UNL     1     -10.032  10.501  65.043  1.00  0.00    -0.388 C  
BRANCH  20  23
HETATM   23  C   UNL     1      -8.209  11.103  66.682  1.00  0.00    -0.158 C  
HETATM   24  O   UNL     1      -8.019  11.661  67.978  1.00  0.00    -0.118 OA 
HETATM   25  H   UNL     1      -7.119  11.941  68.097  1.00  0.00     0.000 HD 
ENDBRANCH  20  23
ENDBRANCH  11  18
TORSDOF 4
ENDMDL
MODEL       74
REMARK 921   NORMALIZED FREE ENERGY PREDICTED BY IDOCK:   -4.99 KCAL/MOL
REMARK 922        TOTAL FREE ENERGY PREDICTED BY IDOCK:   -6.68 KCAL/MOL
REMARK 923 INTER-LIGAND FREE ENERGY PREDICTED BY IDOCK:   -6.13 KCAL/MOL
REMARK 924 INTRA-LIGAND FREE ENERGY PREDICTED BY IDOCK:   -0.55 KCAL/MOL
REMARK 927      BINDING AFFINITY PREDICTED BY RF-SCORE:    0.00 PKD
ROOT
HETATM    1  N   UNL     1      -7.093  10.016  69.588  1.00  0.00    -0.088 NA 
HETATM    2  C   UNL     1      -8.388  10.384  69.290  1.00  0.00    -0.155 A  
HETATM    3  H2  UNL     1      -6.295  10.513  69.192  1.00  0.00     0.000 HD 
HETATM    4  H1  UNL     1      -6.965   9.227  70.222  1.00  0.00     0.000 HD 
HETATM    5  N   UNL     1      -8.556  11.417  68.460  1.00  0.00    -0.155 NA 
HETATM    6  C   UNL     1      -9.853  11.652  68.199  1.00  0.00    -0.191 A  
HETATM    7  C   UNL     1     -10.944  10.958  68.693  1.00  0.00    -0.227 A  
HETATM    8  N   UNL     1     -12.113  11.492  68.182  1.00  0.00    -0.591 NA 
HETATM    9  C   UNL     1     -10.666   9.919  69.605  1.00  0.00    -0.252 A  
HETATM   10  N   UNL     1      -9.354   9.675  69.893  1.00  0.00    -0.215 NA 
HETATM   11  N   UNL     1     -10.364  12.627  67.391  1.00  0.00    -0.220 NA 
HETATM   12  C   UNL     1     -11.727  12.488  67.405  1.00  0.00    -0.366 A  
ENDROOT
BRANCH   9  13
HETATM   13  N   UNL     1     -11.657   9.126  70.219  1.00  0.00    -0.449 NA 
HETATM   14  H   UNL     1     -12.636   9.413  70.226  1.00  0.00     0.000 HD 
BRANCH  13  15
HETATM   15  C   UNL     1     -11.230   7.873  70.846  1.00  0.00    -0.270 C  
HETATM   16  C   UNL     1     -12.243   6.930  71.440  1.00  0.00    -0.418 C  
HETATM   17  C   UNL     1     -11.463   6.526  70.224  1.00  0.00    -0.474 C  
ENDBRANCH  13  15
ENDBRANCH   9  13
BRANCH  11  18
HETATM   18  C   UNL     1      -9.559  13.636  66.712  1.00  0.00    -0.275 C  
HETATM   19  C   UNL     1      -9.176  14.821  67.622  1.00  0.00    -0.191 C  
HETATM   20  C   UNL     1      -9.888  16.072  67.071  1.00  0.00    -0.240 C  
HETATM   21  C   UNL     1     -10.231  14.298  65.548  1.00  0.00    -0.379 C  
HETATM   22  C   UNL     1     -10.390  15.612  65.732  1.00  0.00    -0.386 C  
BRANCH  20  23
HETATM   23  C   UNL     1     -11.015  16.557  67.987  1.00  0.00    -0.320 C  
HETATM   24  O   UNL     1     -10.799  16.127  69.328  1.00  0.00    -0.264 OA 
HETATM   25  H   UNL     1     -11.497  16.428  69.896  1.00  0.00     0.000 HD 
ENDBRANCH  20  23
ENDBRANCH  11  18
TORSDOF 4
ENDMDL
MODEL       75
REMARK 921   NORMALIZED FREE ENERGY PREDICTED BY IDOCK:   -4.96 KCAL/MOL
REMARK 922        TOTAL FREE ENERGY PREDICTED BY IDOCK:   -6.64 KCAL/MOL
REMARK 923 INTER-LIGAND FREE ENERGY PREDICTED BY IDOCK:   -6.16 KCAL/MOL
REMARK 924 INTRA-LIGAND FREE ENERGY PREDICTED BY IDOCK:   -0.48 KCAL/MOL
REMARK 927      BINDING AFFINITY PREDICTED BY RF-SCORE:    0.00 PKD
ROOT
HETATM    1  N   UNL     1      -5.736  15.864  70.140  1.00  0.00    -0.168 NA 
HETATM    2  C   UNL     1      -6.791  16.389  69.424  1.00  0.00    -0.217 A  
HETATM    3  H2  UNL     1      -5.617  14.856  70.246  1.00  0.00     0.000 HD 
HETATM    4  H1  UNL     1      -5.080  16.523  70.559  1.00  0.00     0.000 HD 
HETATM    5  N   UNL     1      -7.650  15.526  68.875  1.00  0.00    -0.152 NA 
HETATM    6  C   UNL     1      -8.664  16.148  68.250  1.00  0.00    -0.180 A  
HETATM    7  C   UNL     1      -8.864  17.513  68.136  1.00  0.00    -0.263 A  
HETATM    8  N   UNL     1     -10.028  17.762  67.430  1.00  0.00    -0.311 NA 
HETATM    9  C   UNL     1      -7.872  18.342  68.701  1.00  0.00    -0.296 A  
HETATM   10  N   UNL     1      -6.829  17.726  69.329  1.00  0.00    -0.227 NA 
HETATM   11  N   UNL     1      -9.708  15.560  67.594  1.00  0.00    -0.212 NA 
HETATM   12  C   UNL     1     -10.506  16.569  67.124  1.00  0.00    -0.300 A  
ENDROOT
BRANCH   9  13
HETATM   13  N   UNL     1      -7.908  19.750  68.658  1.00  0.00    -0.294 NA 
HETATM   14  H   UNL     1      -8.331  20.292  69.412  1.00  0.00     0.000 HD 
BRANCH  13  15
HETATM   15  C   UNL     1      -7.314  20.409  67.493  1.00  0.00    -0.318 C  
HETATM   16  C   UNL     1      -6.333  19.675  66.616  1.00  0.00    -0.182 C  
HETATM   17  C   UNL     1      -7.681  20.058  66.080  1.00  0.00    -0.318 C  
ENDBRANCH  13  15
ENDBRANCH   9  13
BRANCH  11  18
HETATM   18  C   UNL     1      -9.857  14.122  67.412  1.00  0.00    -0.239 C  
HETATM   19  C   UNL     1      -9.996  13.706  65.933  1.00  0.00    -0.304 C  
HETATM   20  C   UNL     1     -11.417  13.139  65.747  1.00  0.00    -0.355 C  
HETATM   21  C   UNL     1     -11.075  13.530  68.052  1.00  0.00    -0.283 C  
HETATM   22  C   UNL     1     -11.906  12.983  67.159  1.00  0.00    -0.431 C  
BRANCH  20  23
HETATM   23  C   UNL     1     -12.312  14.060  64.913  1.00  0.00    -0.427 C  
HETATM   24  O   UNL     1     -13.628  14.117  65.456  1.00  0.00    -0.685 OA 
HETATM   25  H   UNL     1     -14.183  14.687  64.939  1.00  0.00     0.000 HD 
ENDBRANCH  20  23
ENDBRANCH  11  18
TORSDOF 4
ENDMDL
MODEL       76
REMARK 921   NORMALIZED FREE ENERGY PREDICTED BY IDOCK:   -4.95 KCAL/MOL
REMARK 922        TOTAL FREE ENERGY PREDICTED BY IDOCK:   -6.63 KCAL/MOL
REMARK 923 INTER-LIGAND FREE ENERGY PREDICTED BY IDOCK:   -6.42 KCAL/MOL
REMARK 924 INTRA-LIGAND FREE ENERGY PREDICTED BY IDOCK:   -0.21 KCAL/MOL
REMARK 927      BINDING AFFINITY PREDICTED BY RF-SCORE:    0.00 PKD
ROOT
HETATM    1  N   UNL     1     -12.509  14.211  63.293  1.00  0.00    -1.098 NA 
HETATM    2  C   UNL     1     -11.683  13.888  64.348  1.00  0.00    -0.404 A  
HETATM    3  H2  UNL     1     -12.709  13.541  62.550  1.00  0.00     0.000 HD 
HETATM    4  H1  UNL     1     -12.913  15.148  63.284  1.00  0.00     0.000 HD 
HETATM    5  N   UNL     1     -11.154  12.661  64.359  1.00  0.00    -0.323 NA 
HETATM    6  C   UNL     1     -10.325  12.476  65.401  1.00  0.00    -0.282 A  
HETATM    7  C   UNL     1     -10.008  13.391  66.390  1.00  0.00    -0.293 A  
HETATM    8  N   UNL     1      -9.109  12.831  67.279  1.00  0.00    -0.192 NA 
HETATM    9  C   UNL     1     -10.660  14.640  66.321  1.00  0.00    -0.306 A  
HETATM   10  N   UNL     1     -11.516  14.841  65.277  1.00  0.00    -0.350 NA 
HETATM   11  N   UNL     1      -9.624  11.343  65.700  1.00  0.00    -0.226 NA 
HETATM   12  C   UNL     1      -8.901  11.605  66.833  1.00  0.00    -0.190 A  
ENDROOT
BRANCH   9  13
HETATM   13  N   UNL     1     -10.471  15.678  67.256  1.00  0.00    -0.286 NA 
HETATM   14  H   UNL     1      -9.845  16.459  67.059  1.00  0.00     0.000 HD 
BRANCH  13  15
HETATM   15  C   UNL     1     -11.204  15.594  68.521  1.00  0.00    -0.342 C  
HETATM   16  C   UNL     1     -10.539  15.045  69.756  1.00  0.00    -0.232 C  
HETATM   17  C   UNL     1     -10.923  16.494  69.690  1.00  0.00    -0.287 C  
ENDBRANCH  13  15
ENDBRANCH   9  13
BRANCH  11  18
HETATM   18  C   UNL     1      -9.715  10.098  64.946  1.00  0.00    -0.324 C  
HETATM   19  C   UNL     1      -8.606   9.088  65.303  1.00  0.00    -0.199 C  
HETATM   20  C   UNL     1      -7.715   8.924  64.056  1.00  0.00    -0.128 C  
HETATM   21  C   UNL     1      -9.578  10.250  63.462  1.00  0.00    -0.321 C  
HETATM   22  C   UNL     1      -8.514   9.602  62.979  1.00  0.00    -0.184 C  
BRANCH  20  23
HETATM   23  C   UNL     1      -6.328   9.546  64.240  1.00  0.00    -0.098 C  
HETATM   24  O   UNL     1      -6.405  10.738  65.015  1.00  0.00    -0.353 OA 
HETATM   25  H   UNL     1      -5.545  11.124  65.129  1.00  0.00     0.000 HD 
ENDBRANCH  20  23
ENDBRANCH  11  18
TORSDOF 4
ENDMDL
MODEL       77
REMARK 921   NORMALIZED FREE ENERGY PREDICTED BY IDOCK:   -4.93 KCAL/MOL
REMARK 922        TOTAL FREE ENERGY PREDICTED BY IDOCK:   -6.61 KCAL/MOL
REMARK 923 INTER-LIGAND FREE ENERGY PREDICTED BY IDOCK:   -6.66 KCAL/MOL
REMARK 924 INTRA-LIGAND FREE ENERGY PREDICTED BY IDOCK:    0.06 KCAL/MOL
REMARK 927      BINDING AFFINITY PREDICTED BY RF-SCORE:    0.00 PKD
ROOT
HETATM    1  N   UNL     1      -8.420   9.140  67.168  1.00  0.00    -0.120 NA 
HETATM    2  C   UNL     1      -9.498   9.677  67.839  1.00  0.00    -0.131 A  
HETATM    3  H2  UNL     1      -7.814   8.447  67.606  1.00  0.00     0.000 HD 
HETATM    4  H1  UNL     1      -8.253   9.465  66.216  1.00  0.00     0.000 HD 
HETATM    5  N   UNL     1      -9.717   9.251  69.087  1.00  0.00    -0.160 NA 
HETATM    6  C   UNL     1     -10.757   9.879  69.661  1.00  0.00    -0.252 A  
HETATM    7  C   UNL     1     -11.561  10.855  69.096  1.00  0.00    -0.319 A  
HETATM    8  N   UNL     1     -12.517  11.264  70.008  1.00  0.00    -0.223 NA 
HETATM    9  C   UNL     1     -11.284  11.196  67.756  1.00  0.00    -0.294 A  
HETATM   10  N   UNL     1     -10.239  10.558  67.153  1.00  0.00    -0.212 NA 
HETATM   11  N   UNL     1     -11.239   9.682  70.924  1.00  0.00    -0.322 NA 
HETATM   12  C   UNL     1     -12.292  10.542  71.091  1.00  0.00    -0.405 A  
ENDROOT
BRANCH   9  13
HETATM   13  N   UNL     1     -12.015  12.152  67.022  1.00  0.00    -0.598 NA 
HETATM   14  H   UNL     1     -12.824  12.624  67.426  1.00  0.00     0.000 HD 
BRANCH  13  15
HETATM   15  C   UNL     1     -11.570  12.444  65.657  1.00  0.00    -0.392 C  
HETATM   16  C   UNL     1     -12.572  12.731  64.570  1.00  0.00    -0.463 C  
HETATM   17  C   UNL     1     -11.649  13.814  65.047  1.00  0.00    -0.350 C  
ENDBRANCH  13  15
ENDBRANCH   9  13
BRANCH  11  18
HETATM   18  C   UNL     1     -10.721   8.686  71.854  1.00  0.00    -0.344 C  
HETATM   19  C   UNL     1      -9.841   7.618  71.173  1.00  0.00    -0.184 C  
HETATM   20  C   UNL     1     -10.582   6.272  71.286  1.00  0.00    -0.285 C  
HETATM   21  C   UNL     1     -11.768   7.875  72.554  1.00  0.00    -0.423 C  
HETATM   22  C   UNL     1     -11.682   6.573  72.265  1.00  0.00    -0.320 C  
BRANCH  20  23
HETATM   23  C   UNL     1     -11.113   5.779  69.936  1.00  0.00    -0.257 C  
HETATM   24  O   UNL     1     -11.825   6.814  69.264  1.00  0.00    -0.606 OA 
HETATM   25  H   UNL     1     -12.154   6.509  68.427  1.00  0.00     0.000 HD 
ENDBRANCH  20  23
ENDBRANCH  11  18
TORSDOF 4
ENDMDL
MODEL       78
REMARK 921   NORMALIZED FREE ENERGY PREDICTED BY IDOCK:   -4.93 KCAL/MOL
REMARK 922        TOTAL FREE ENERGY PREDICTED BY IDOCK:   -6.60 KCAL/MOL
REMARK 923 INTER-LIGAND FREE ENERGY PREDICTED BY IDOCK:   -6.06 KCAL/MOL
REMARK 924 INTRA-LIGAND FREE ENERGY PREDICTED BY IDOCK:   -0.55 KCAL/MOL
REMARK 927      BINDING AFFINITY PREDICTED BY RF-SCORE:    0.00 PKD
ROOT
HETATM    1  N   UNL     1     -12.260  13.558  70.411  1.00  0.00    -0.356 NA 
HETATM    2  C   UNL     1     -11.506  13.894  69.307  1.00  0.00    -0.297 A  
HETATM    3  H2  UNL     1     -12.674  14.274  71.008  1.00  0.00     0.000 HD 
HETATM    4  H1  UNL     1     -12.386  12.565  70.607  1.00  0.00     0.000 HD 
HETATM    5  N   UNL     1     -11.340  15.195  69.050  1.00  0.00    -0.276 NA 
HETATM    6  C   UNL     1     -10.546  15.404  67.986  1.00  0.00    -0.263 A  
HETATM    7  C   UNL     1      -9.939  14.444  67.194  1.00  0.00    -0.253 A  
HETATM    8  N   UNL     1      -9.189  15.054  66.205  1.00  0.00    -0.299 NA 
HETATM    9  C   UNL     1     -10.220  13.099  67.512  1.00  0.00    -0.225 A  
HETATM   10  N   UNL     1     -11.035  12.868  68.582  1.00  0.00    -0.253 NA 
HETATM   11  N   UNL     1     -10.174  16.610  67.465  1.00  0.00    -0.282 NA 
HETATM   12  C   UNL     1      -9.352  16.351  66.399  1.00  0.00    -0.292 A  
ENDROOT
BRANCH   9  13
HETATM   13  N   UNL     1      -9.704  11.998  66.799  1.00  0.00    -0.203 NA 
HETATM   14  H   UNL     1      -9.812  11.925  65.787  1.00  0.00     0.000 HD 
BRANCH  13  15
HETATM   15  C   UNL     1      -9.004  10.963  67.563  1.00  0.00    -0.136 C  
HETATM   16  C   UNL     1      -7.783  10.288  66.998  1.00  0.00    -0.100 C  
HETATM   17  C   UNL     1      -7.660  11.181  68.196  1.00  0.00    -0.103 C  
ENDBRANCH  13  15
ENDBRANCH   9  13
BRANCH  11  18
HETATM   18  C   UNL     1     -10.644  17.898  67.959  1.00  0.00    -0.356 C  
HETATM   19  C   UNL     1     -10.869  18.934  66.839  1.00  0.00    -0.347 C  
HETATM   20  C   UNL     1      -9.836  20.060  67.040  1.00  0.00    -0.566 C  
HETATM   21  C   UNL     1      -9.702  18.597  68.890  1.00  0.00    -0.363 C  
HETATM   22  C   UNL     1      -9.282  19.769  68.406  1.00  0.00    -0.370 C  
BRANCH  20  23
HETATM   23  C   UNL     1      -8.754  20.064  65.955  1.00  0.00    -0.199 C  
HETATM   24  O   UNL     1      -7.643  20.863  66.351  1.00  0.00    -0.516 OA 
HETATM   25  H   UNL     1      -6.972  20.866  65.679  1.00  0.00     0.000 HD 
ENDBRANCH  20  23
ENDBRANCH  11  18
TORSDOF 4
ENDMDL
MODEL       79
REMARK 921   NORMALIZED FREE ENERGY PREDICTED BY IDOCK:   -4.91 KCAL/MOL
REMARK 922        TOTAL FREE ENERGY PREDICTED BY IDOCK:   -6.58 KCAL/MOL
REMARK 923 INTER-LIGAND FREE ENERGY PREDICTED BY IDOCK:   -6.05 KCAL/MOL
REMARK 924 INTRA-LIGAND FREE ENERGY PREDICTED BY IDOCK:   -0.53 KCAL/MOL
REMARK 927      BINDING AFFINITY PREDICTED BY RF-SCORE:    0.00 PKD
ROOT
HETATM    1  N   UNL     1      -9.118   8.847  64.810  1.00  0.00    -0.436 NA 
HETATM    2  C   UNL     1      -9.743   9.180  65.993  1.00  0.00    -0.287 A  
HETATM    3  H2  UNL     1      -8.582   7.984  64.717  1.00  0.00     0.000 HD 
HETATM    4  H1  UNL     1      -9.213   9.499  64.031  1.00  0.00     0.000 HD 
HETATM    5  N   UNL     1      -9.618   8.326  67.013  1.00  0.00    -0.175 NA 
HETATM    6  C   UNL     1     -10.219   8.776  68.127  1.00  0.00    -0.205 A  
HETATM    7  C   UNL     1     -10.911   9.965  68.282  1.00  0.00    -0.230 A  
HETATM    8  N   UNL     1     -11.372  10.076  69.581  1.00  0.00    -0.229 NA 
HETATM    9  C   UNL     1     -11.035  10.772  67.132  1.00  0.00    -0.260 A  
HETATM   10  N   UNL     1     -10.441  10.325  65.988  1.00  0.00    -0.162 NA 
HETATM   11  N   UNL     1     -10.274   8.150  69.340  1.00  0.00    -0.206 NA 
HETATM   12  C   UNL     1     -10.971   8.973  70.185  1.00  0.00    -0.233 A  
ENDROOT
BRANCH   9  13
HETATM   13  N   UNL     1     -11.722  12.003  67.107  1.00  0.00    -0.566 NA 
HETATM   14  H   UNL     1     -12.373  12.261  67.848  1.00  0.00     0.000 HD 
BRANCH  13  15
HETATM   15  C   UNL     1     -11.467  12.899  65.976  1.00  0.00    -0.340 C  
HETATM   16  C   UNL     1     -12.584  13.295  65.046  1.00  0.00    -0.483 C  
HETATM   17  C   UNL     1     -11.946  14.321  65.936  1.00  0.00    -0.400 C  
ENDBRANCH  13  15
ENDBRANCH   9  13
BRANCH  11  18
HETATM   18  C   UNL     1      -9.724   6.827  69.606  1.00  0.00    -0.155 C  
HETATM   19  C   UNL     1     -10.792   5.797  70.026  1.00  0.00    -0.403 C  
HETATM   20  C   UNL     1     -10.505   5.408  71.489  1.00  0.00    -0.289 C  
HETATM   21  C   UNL     1      -8.733   6.772  70.728  1.00  0.00    -0.146 C  
HETATM   22  C   UNL     1      -9.143   5.992  71.733  1.00  0.00    -0.148 C  
BRANCH  20  23
HETATM   23  C   UNL     1     -11.560   5.949  72.459  1.00  0.00    -0.277 C  
HETATM   24  O   UNL     1     -11.011   6.122  73.761  1.00  0.00    -0.423 OA 
HETATM   25  H   UNL     1     -11.665   6.457  74.362  1.00  0.00     0.000 HD 
ENDBRANCH  20  23
ENDBRANCH  11  18
TORSDOF 4
ENDMDL
MODEL       80
REMARK 921   NORMALIZED FREE ENERGY PREDICTED BY IDOCK:   -4.86 KCAL/MOL
REMARK 922        TOTAL FREE ENERGY PREDICTED BY IDOCK:   -6.51 KCAL/MOL
REMARK 923 INTER-LIGAND FREE ENERGY PREDICTED BY IDOCK:   -6.04 KCAL/MOL
REMARK 924 INTRA-LIGAND FREE ENERGY PREDICTED BY IDOCK:   -0.47 KCAL/MOL
REMARK 927      BINDING AFFINITY PREDICTED BY RF-SCORE:    0.00 PKD
ROOT
HETATM    1  N   UNL     1      -8.166   8.704  62.725  1.00  0.00    -0.184 NA 
HETATM    2  C   UNL     1      -8.684   9.028  63.961  1.00  0.00    -0.086 A  
HETATM    3  H2  UNL     1      -8.345   9.285  61.906  1.00  0.00     0.000 HD 
HETATM    4  H1  UNL     1      -7.597   7.860  62.663  1.00  0.00     0.000 HD 
HETATM    5  N   UNL     1      -9.430  10.134  64.042  1.00  0.00    -0.286 NA 
HETATM    6  C   UNL     1      -9.925  10.321  65.278  1.00  0.00    -0.317 A  
HETATM    7  C   UNL     1      -9.729   9.517  66.388  1.00  0.00    -0.232 A  
HETATM    8  N   UNL     1     -10.414  10.036  67.472  1.00  0.00    -0.236 NA 
HETATM    9  C   UNL     1      -8.882   8.404  66.214  1.00  0.00    -0.159 A  
HETATM   10  N   UNL     1      -8.359   8.205  64.969  1.00  0.00    -0.156 NA 
HETATM   11  N   UNL     1     -10.725  11.347  65.694  1.00  0.00    -0.261 NA 
HETATM   12  C   UNL     1     -11.000  11.130  67.018  1.00  0.00    -0.289 A  
ENDROOT
BRANCH   9  13
HETATM   13  N   UNL     1      -8.558   7.494  67.241  1.00  0.00    -0.117 NA 
HETATM   14  H   UNL     1      -7.632   7.487  67.669  1.00  0.00     0.000 HD 
BRANCH  13  15
HETATM   15  C   UNL     1      -9.601   6.560  67.673  1.00  0.00    -0.122 C  
HETATM   16  C   UNL     1     -10.903   6.467  66.922  1.00  0.00    -0.428 C  
HETATM   17  C   UNL     1      -9.945   5.312  66.913  1.00  0.00    -0.219 C  
ENDBRANCH  13  15
ENDBRANCH   9  13
BRANCH  11  18
HETATM   18  C   UNL     1     -11.128  12.467  64.852  1.00  0.00    -0.303 C  
HETATM   19  C   UNL     1     -10.392  13.779  65.191  1.00  0.00    -0.391 C  
HETATM   20  C   UNL     1     -11.441  14.764  65.743  1.00  0.00    -0.322 C  
HETATM   21  C   UNL     1     -12.574  12.845  64.959  1.00  0.00    -0.538 C  
HETATM   22  C   UNL     1     -12.743  14.088  65.419  1.00  0.00    -0.499 C  
BRANCH  20  23
HETATM   23  C   UNL     1     -11.270  15.026  67.242  1.00  0.00    -0.338 C  
HETATM   24  O   UNL     1     -12.491  14.800  67.939  1.00  0.00    -0.556 OA 
HETATM   25  H   UNL     1     -12.386  14.961  68.868  1.00  0.00     0.000 HD 
ENDBRANCH  20  23
ENDBRANCH  11  18
TORSDOF 4
ENDMDL
MODEL       81
REMARK 921   NORMALIZED FREE ENERGY PREDICTED BY IDOCK:   -4.82 KCAL/MOL
REMARK 922        TOTAL FREE ENERGY PREDICTED BY IDOCK:   -6.46 KCAL/MOL
REMARK 923 INTER-LIGAND FREE ENERGY PREDICTED BY IDOCK:   -5.90 KCAL/MOL
REMARK 924 INTRA-LIGAND FREE ENERGY PREDICTED BY IDOCK:   -0.56 KCAL/MOL
REMARK 927      BINDING AFFINITY PREDICTED BY RF-SCORE:    0.00 PKD
ROOT
HETATM    1  N   UNL     1     -10.089  10.660  63.968  1.00  0.00    -0.361 NA 
HETATM    2  C   UNL     1     -10.391  10.827  65.303  1.00  0.00    -0.258 A  
HETATM    3  H2  UNL     1     -10.017  11.458  63.337  1.00  0.00     0.000 HD 
HETATM    4  H1  UNL     1      -9.940   9.707  63.638  1.00  0.00     0.000 HD 
HETATM    5  N   UNL     1     -10.587  12.076  65.736  1.00  0.00    -0.254 NA 
HETATM    6  C   UNL     1     -10.928  12.114  67.036  1.00  0.00    -0.271 A  
HETATM    7  C   UNL     1     -11.074  11.037  67.894  1.00  0.00    -0.288 A  
HETATM    8  N   UNL     1     -11.446  11.483  69.149  1.00  0.00    -0.268 NA 
HETATM    9  C   UNL     1     -10.791   9.765  67.357  1.00  0.00    -0.197 A  
HETATM   10  N   UNL     1     -10.431   9.708  66.042  1.00  0.00    -0.085 NA 
HETATM   11  N   UNL     1     -11.200  13.226  67.780  1.00  0.00    -0.267 NA 
HETATM   12  C   UNL     1     -11.514  12.798  69.043  1.00  0.00    -0.309 A  
ENDROOT
BRANCH   9  13
HETATM   13  N   UNL     1     -10.869   8.565  68.094  1.00  0.00    -0.456 NA 
HETATM   14  H   UNL     1     -11.362   8.524  68.987  1.00  0.00     0.000 HD 
BRANCH  13  15
HETATM   15  C   UNL     1     -10.217   7.380  67.532  1.00  0.00    -0.224 C  
HETATM   16  C   UNL     1     -10.221   6.076  68.285  1.00  0.00    -0.218 C  
HETATM   17  C   UNL     1     -10.981   6.203  66.998  1.00  0.00    -0.414 C  
ENDBRANCH  13  15
ENDBRANCH   9  13
BRANCH  11  18
HETATM   18  C   UNL     1     -11.100  14.592  67.281  1.00  0.00    -0.328 C  
HETATM   19  C   UNL     1      -9.647  15.046  67.037  1.00  0.00    -0.233 C  
HETATM   20  C   UNL     1      -9.341  16.170  68.046  1.00  0.00    -0.203 C  
HETATM   21  C   UNL     1     -11.638  15.641  68.206  1.00  0.00    -0.326 C  
HETATM   22  C   UNL     1     -10.696  16.503  68.602  1.00  0.00    -0.334 C  
BRANCH  20  23
HETATM   23  C   UNL     1      -8.350  15.734  69.129  1.00  0.00    -0.249 C  
HETATM   24  O   UNL     1      -8.598  14.389  69.530  1.00  0.00    -0.357 OA 
HETATM   25  H   UNL     1      -7.984  14.118  70.201  1.00  0.00     0.000 HD 
ENDBRANCH  20  23
ENDBRANCH  11  18
TORSDOF 4
ENDMDL
MODEL       82
REMARK 921   NORMALIZED FREE ENERGY PREDICTED BY IDOCK:   -4.77 KCAL/MOL
REMARK 922        TOTAL FREE ENERGY PREDICTED BY IDOCK:   -6.40 KCAL/MOL
REMARK 923 INTER-LIGAND FREE ENERGY PREDICTED BY IDOCK:   -5.97 KCAL/MOL
REMARK 924 INTRA-LIGAND FREE ENERGY PREDICTED BY IDOCK:   -0.43 KCAL/MOL
REMARK 927      BINDING AFFINITY PREDICTED BY RF-SCORE:    0.00 PKD
ROOT
HETATM    1  N   UNL     1     -13.373  14.031  65.166  1.00  0.00    -0.489 NA 
HETATM    2  C   UNL     1     -12.327  13.637  65.974  1.00  0.00    -0.445 A  
HETATM    3  H2  UNL     1     -13.443  14.987  64.817  1.00  0.00     0.000 HD 
HETATM    4  H1  UNL     1     -14.074  13.328  64.932  1.00  0.00     0.000 HD 
HETATM    5  N   UNL     1     -11.409  14.559  66.281  1.00  0.00    -0.347 NA 
HETATM    6  C   UNL     1     -10.470  14.080  67.114  1.00  0.00    -0.270 A  
HETATM    7  C   UNL     1     -10.387  12.799  67.634  1.00  0.00    -0.221 A  
HETATM    8  N   UNL     1      -9.285  12.698  68.464  1.00  0.00    -0.126 NA 
HETATM    9  C   UNL     1     -11.371  11.885  67.207  1.00  0.00    -0.329 A  
HETATM   10  N   UNL     1     -12.326  12.350  66.350  1.00  0.00    -0.433 NA 
HETATM   11  N   UNL     1      -9.399  14.760  67.621  1.00  0.00    -0.193 NA 
HETATM   12  C   UNL     1      -8.719  13.891  68.433  1.00  0.00    -0.173 A  
ENDROOT
BRANCH   9  13
HETATM   13  N   UNL     1     -11.425  10.538  67.620  1.00  0.00    -0.591 NA 
HETATM   14  H   UNL     1     -12.288  10.128  67.978  1.00  0.00     0.000 HD 
BRANCH  13  15
HETATM   15  C   UNL     1     -10.196   9.747  67.516  1.00  0.00    -0.220 C  
HETATM   16  C   UNL     1      -9.854   8.723  68.566  1.00  0.00    -0.183 C  
HETATM   17  C   UNL     1     -10.191   8.286  67.171  1.00  0.00    -0.365 C  
ENDBRANCH  13  15
ENDBRANCH   9  13
BRANCH  11  18
HETATM   18  C   UNL     1      -9.064  16.136  67.278  1.00  0.00    -0.203 C  
HETATM   19  C   UNL     1      -7.636  16.293  66.716  1.00  0.00    -0.285 C  
HETATM   20  C   UNL     1      -6.830  17.123  67.735  1.00  0.00    -0.165 C  
HETATM   21  C   UNL     1      -9.089  17.095  68.429  1.00  0.00    -0.263 C  
HETATM   22  C   UNL     1      -7.892  17.642  68.662  1.00  0.00    -0.280 C  
BRANCH  20  23
HETATM   23  C   UNL     1      -5.769  16.291  68.461  1.00  0.00    -0.109 C  
HETATM   24  O   UNL     1      -5.416  15.141  67.698  1.00  0.00    -0.280 OA 
HETATM   25  H   UNL     1      -4.759  14.625  68.148  1.00  0.00     0.000 HD 
ENDBRANCH  20  23
ENDBRANCH  11  18
TORSDOF 4
ENDMDL
MODEL       83
REMARK 921   NORMALIZED FREE ENERGY PREDICTED BY IDOCK:   -4.75 KCAL/MOL
REMARK 922        TOTAL FREE ENERGY PREDICTED BY IDOCK:   -6.38 KCAL/MOL
REMARK 923 INTER-LIGAND FREE ENERGY PREDICTED BY IDOCK:   -6.42 KCAL/MOL
REMARK 924 INTRA-LIGAND FREE ENERGY PREDICTED BY IDOCK:    0.04 KCAL/MOL
REMARK 927      BINDING AFFINITY PREDICTED BY RF-SCORE:    0.00 PKD
ROOT
HETATM    1  N   UNL     1      -9.334   8.730  68.031  1.00  0.00    -0.142 NA 
HETATM    2  C   UNL     1      -9.139   9.218  66.756  1.00  0.00    -0.140 A  
HETATM    3  H2  UNL     1     -10.158   8.985  68.576  1.00  0.00     0.000 HD 
HETATM    4  H1  UNL     1      -8.622   8.104  68.407  1.00  0.00     0.000 HD 
HETATM    5  N   UNL     1     -10.072  10.037  66.263  1.00  0.00    -0.245 NA 
HETATM    6  C   UNL     1      -9.752  10.492  65.040  1.00  0.00    -0.292 A  
HETATM    7  C   UNL     1      -8.617  10.192  64.307  1.00  0.00    -0.193 A  
HETATM    8  N   UNL     1      -8.643  10.867  63.099  1.00  0.00    -0.132 NA 
HETATM    9  C   UNL     1      -7.719   9.274  64.889  1.00  0.00    -0.110 A  
HETATM   10  N   UNL     1      -8.034   8.792  66.126  1.00  0.00    -0.101 NA 
HETATM   11  N   UNL     1     -10.484  11.346  64.265  1.00  0.00    -0.316 NA 
HETATM   12  C   UNL     1      -9.775  11.548  63.110  1.00  0.00    -0.390 A  
ENDROOT
BRANCH   9  13
HETATM   13  N   UNL     1      -6.526   8.843  64.274  1.00  0.00    -0.071 NA 
HETATM   14  H   UNL     1      -5.634   9.297  64.471  1.00  0.00     0.000 HD 
BRANCH  13  15
HETATM   15  C   UNL     1      -6.613   7.718  63.340  1.00  0.00    -0.066 C  
HETATM   16  C   UNL     1      -7.287   6.435  63.749  1.00  0.00    -0.073 C  
HETATM   17  C   UNL     1      -7.897   7.298  62.684  1.00  0.00    -0.133 C  
ENDBRANCH  13  15
ENDBRANCH   9  13
BRANCH  11  18
HETATM   18  C   UNL     1     -11.797  11.865  64.629  1.00  0.00    -0.205 C  
HETATM   19  C   UNL     1     -12.219  13.091  63.794  1.00  0.00    -0.536 C  
HETATM   20  C   UNL     1     -12.286  14.297  64.751  1.00  0.00    -0.440 C  
HETATM   21  C   UNL     1     -11.910  12.353  66.041  1.00  0.00    -0.459 C  
HETATM   22  C   UNL     1     -12.194  13.657  66.108  1.00  0.00    -0.490 C  
BRANCH  20  23
HETATM   23  C   UNL     1     -11.165  15.309  64.500  1.00  0.00    -0.280 C  
HETATM   24  O   UNL     1     -11.645  16.422  63.751  1.00  0.00    -1.605 OA 
HETATM   25  H   UNL     1     -10.950  17.049  63.595  1.00  0.00     0.000 HD 
ENDBRANCH  20  23
ENDBRANCH  11  18
TORSDOF 4
ENDMDL
MODEL       84
REMARK 921   NORMALIZED FREE ENERGY PREDICTED BY IDOCK:   -4.72 KCAL/MOL
REMARK 922        TOTAL FREE ENERGY PREDICTED BY IDOCK:   -6.35 KCAL/MOL
REMARK 923 INTER-LIGAND FREE ENERGY PREDICTED BY IDOCK:   -5.83 KCAL/MOL
REMARK 924 INTRA-LIGAND FREE ENERGY PREDICTED BY IDOCK:   -0.52 KCAL/MOL
REMARK 927      BINDING AFFINITY PREDICTED BY RF-SCORE:    0.00 PKD
ROOT
HETATM    1  N   UNL     1     -10.832   5.773  66.531  1.00  0.00    -0.651 NA 
HETATM    2  C   UNL     1     -10.790   6.695  67.555  1.00  0.00    -0.342 A  
HETATM    3  H2  UNL     1     -10.609   6.036  65.570  1.00  0.00     0.000 HD 
HETATM    4  H1  UNL     1     -11.094   4.817  66.772  1.00  0.00     0.000 HD 
HETATM    5  N   UNL     1     -10.448   7.947  67.239  1.00  0.00    -0.304 NA 
HETATM    6  C   UNL     1     -10.493   8.768  68.302  1.00  0.00    -0.187 A  
HETATM    7  C   UNL     1     -10.837   8.436  69.601  1.00  0.00    -0.148 A  
HETATM    8  N   UNL     1     -10.778   9.559  70.406  1.00  0.00    -0.260 NA 
HETATM    9  C   UNL     1     -11.129   7.078  69.845  1.00  0.00    -0.264 A  
HETATM   10  N   UNL     1     -11.075   6.227  68.779  1.00  0.00    -0.361 NA 
HETATM   11  N   UNL     1     -10.207  10.104  68.319  1.00  0.00    -0.159 NA 
HETATM   12  C   UNL     1     -10.399  10.539  69.604  1.00  0.00    -0.193 A  
ENDROOT
BRANCH   9  13
HETATM   13  N   UNL     1     -11.478   6.564  71.110  1.00  0.00    -0.311 NA 
HETATM   14  H   UNL     1     -12.436   6.616  71.457  1.00  0.00     0.000 HD 
BRANCH  13  15
HETATM   15  C   UNL     1     -10.414   5.952  71.910  1.00  0.00    -0.220 C  
HETATM   16  C   UNL     1      -9.309   6.797  72.487  1.00  0.00    -0.151 C  
HETATM   17  C   UNL     1     -10.302   6.134  73.396  1.00  0.00    -0.253 C  
ENDBRANCH  13  15
ENDBRANCH   9  13
BRANCH  11  18
HETATM   18  C   UNL     1      -9.733  10.857  67.165  1.00  0.00    -0.174 C  
HETATM   19  C   UNL     1      -9.185  12.251  67.531  1.00  0.00    -0.181 C  
HETATM   20  C   UNL     1     -10.131  13.295  66.904  1.00  0.00    -0.250 C  
HETATM   21  C   UNL     1     -10.781  11.157  66.137  1.00  0.00    -0.285 C  
HETATM   22  C   UNL     1     -10.981  12.469  65.981  1.00  0.00    -0.318 C  
BRANCH  20  23
HETATM   23  C   UNL     1     -10.957  14.044  67.954  1.00  0.00    -0.247 C  
HETATM   24  O   UNL     1     -12.317  14.152  67.546  1.00  0.00    -0.571 OA 
HETATM   25  H   UNL     1     -12.829  14.617  68.196  1.00  0.00     0.000 HD 
ENDBRANCH  20  23
ENDBRANCH  11  18
TORSDOF 4
ENDMDL
MODEL       85
REMARK 921   NORMALIZED FREE ENERGY PREDICTED BY IDOCK:   -4.69 KCAL/MOL
REMARK 922        TOTAL FREE ENERGY PREDICTED BY IDOCK:   -6.31 KCAL/MOL
REMARK 923 INTER-LIGAND FREE ENERGY PREDICTED BY IDOCK:   -6.33 KCAL/MOL
REMARK 924 INTRA-LIGAND FREE ENERGY PREDICTED BY IDOCK:    0.02 KCAL/MOL
REMARK 927      BINDING AFFINITY PREDICTED BY RF-SCORE:    0.00 PKD
ROOT
HETATM    1  N   UNL     1      -9.053   9.468  68.204  1.00  0.00    -0.127 NA 
HETATM    2  C   UNL     1     -10.114   9.873  68.986  1.00  0.00    -0.189 A  
HETATM    3  H2  UNL     1      -8.643   8.539  68.306  1.00  0.00     0.000 HD 
HETATM    4  H1  UNL     1      -8.695  10.134  67.520  1.00  0.00     0.000 HD 
HETATM    5  N   UNL     1     -10.583   9.001  69.883  1.00  0.00    -0.223 NA 
HETATM    6  C   UNL     1     -11.578   9.520  70.623  1.00  0.00    -0.283 A  
HETATM    7  C   UNL     1     -12.114  10.793  70.528  1.00  0.00    -0.366 A  
HETATM    8  N   UNL     1     -13.112  10.955  71.471  1.00  0.00    -0.415 NA 
HETATM    9  C   UNL     1     -11.589  11.620  69.514  1.00  0.00    -0.331 A  
HETATM   10  N   UNL     1     -10.587  11.104  68.743  1.00  0.00    -0.193 NA 
HETATM   11  N   UNL     1     -12.267   8.897  71.624  1.00  0.00    -0.322 NA 
HETATM   12  C   UNL     1     -13.175   9.801  72.110  1.00  0.00    -0.436 A  
ENDROOT
BRANCH   9  13
HETATM   13  N   UNL     1     -12.032  12.935  69.264  1.00  0.00    -0.287 NA 
HETATM   14  H   UNL     1     -12.491  13.181  68.387  1.00  0.00     0.000 HD 
BRANCH  13  15
HETATM   15  C   UNL     1     -11.809  13.936  70.310  1.00  0.00    -0.290 C  
HETATM   16  C   UNL     1     -12.211  15.371  70.094  1.00  0.00    -0.407 C  
HETATM   17  C   UNL     1     -12.924  14.537  71.117  1.00  0.00    -0.414 C  
ENDBRANCH  13  15
ENDBRANCH   9  13
BRANCH  11  18
HETATM   18  C   UNL     1     -12.067   7.507  72.016  1.00  0.00    -0.291 C  
HETATM   19  C   UNL     1     -10.966   7.328  73.080  1.00  0.00    -0.384 C  
HETATM   20  C   UNL     1      -9.814   6.543  72.422  1.00  0.00    -0.169 C  
HETATM   21  C   UNL     1     -11.629   6.598  70.910  1.00  0.00    -0.416 C  
HETATM   22  C   UNL     1     -10.426   6.062  71.136  1.00  0.00    -0.284 C  
BRANCH  20  23
HETATM   23  C   UNL     1      -8.569   7.406  72.195  1.00  0.00    -0.113 C  
HETATM   24  O   UNL     1      -8.863   8.784  72.404  1.00  0.00    -0.391 OA 
HETATM   25  H   UNL     1      -8.091   9.319  72.264  1.00  0.00     0.000 HD 
ENDBRANCH  20  23
ENDBRANCH  11  18
TORSDOF 4
ENDMDL
MODEL       86
REMARK 921   NORMALIZED FREE ENERGY PREDICTED BY IDOCK:   -4.65 KCAL/MOL
REMARK 922        TOTAL FREE ENERGY PREDICTED BY IDOCK:   -6.26 KCAL/MOL
REMARK 923 INTER-LIGAND FREE ENERGY PREDICTED BY IDOCK:   -6.13 KCAL/MOL
REMARK 924 INTRA-LIGAND FREE ENERGY PREDICTED BY IDOCK:   -0.13 KCAL/MOL
REMARK 927      BINDING AFFINITY PREDICTED BY RF-SCORE:    0.00 PKD
ROOT
HETATM    1  N   UNL     1     -13.712  11.254  72.461  1.00  0.00    -0.196 NA 
HETATM    2  C   UNL     1     -12.852  11.310  71.385  1.00  0.00    -0.410 A  
HETATM    3  H2  UNL     1     -14.105  12.101  72.871  1.00  0.00     0.000 HD 
HETATM    4  H1  UNL     1     -13.938  10.331  72.831  1.00  0.00     0.000 HD 
HETATM    5  N   UNL     1     -12.555  12.520  70.901  1.00  0.00    -0.304 NA 
HETATM    6  C   UNL     1     -11.669  12.457  69.891  1.00  0.00    -0.266 A  
HETATM    7  C   UNL     1     -11.091  11.319  69.355  1.00  0.00    -0.257 A  
HETATM    8  N   UNL     1     -10.220  11.668  68.338  1.00  0.00    -0.202 NA 
HETATM    9  C   UNL     1     -11.511  10.088  69.898  1.00  0.00    -0.215 A  
HETATM   10  N   UNL     1     -12.420  10.131  70.915  1.00  0.00    -0.338 NA 
HETATM   11  N   UNL     1     -11.156  13.507  69.184  1.00  0.00    -0.249 NA 
HETATM   12  C   UNL     1     -10.284  12.985  68.266  1.00  0.00    -0.246 A  
ENDROOT
BRANCH   9  13
HETATM   13  N   UNL     1     -11.041   8.834  69.457  1.00  0.00    -0.434 NA 
HETATM   14  H   UNL     1     -10.474   8.748  68.613  1.00  0.00     0.000 HD 
BRANCH  13  15
HETATM   15  C   UNL     1     -11.397   7.658  70.254  1.00  0.00    -0.181 C  
HETATM   16  C   UNL     1     -11.000   6.277  69.801  1.00  0.00    -0.444 C  
HETATM   17  C   UNL     1     -10.390   6.867  71.039  1.00  0.00    -0.224 C  
ENDBRANCH  13  15
ENDBRANCH   9  13
BRANCH  11  18
HETATM   18  C   UNL     1     -11.548  14.898  69.379  1.00  0.00    -0.309 C  
HETATM   19  C   UNL     1     -10.807  15.581  70.546  1.00  0.00    -0.353 C  
HETATM   20  C   UNL     1     -11.853  15.898  71.633  1.00  0.00    -0.565 C  
HETATM   21  C   UNL     1     -12.992  15.102  69.721  1.00  0.00     0.177 C  
HETATM   22  C   UNL     1     -13.157  15.659  70.925  1.00  0.00    -0.425 C  
BRANCH  20  23
HETATM   23  C   UNL     1     -11.690  15.022  72.878  1.00  0.00    -0.233 C  
HETATM   24  O   UNL     1     -12.898  14.325  73.170  1.00  0.00    -0.460 OA 
HETATM   25  H   UNL     1     -12.797  13.782  73.942  1.00  0.00     0.000 HD 
ENDBRANCH  20  23
ENDBRANCH  11  18
TORSDOF 4
ENDMDL
MODEL       87
REMARK 921   NORMALIZED FREE ENERGY PREDICTED BY IDOCK:   -4.62 KCAL/MOL
REMARK 922        TOTAL FREE ENERGY PREDICTED BY IDOCK:   -6.22 KCAL/MOL
REMARK 923 INTER-LIGAND FREE ENERGY PREDICTED BY IDOCK:   -5.70 KCAL/MOL
REMARK 924 INTRA-LIGAND FREE ENERGY PREDICTED BY IDOCK:   -0.51 KCAL/MOL
REMARK 927      BINDING AFFINITY PREDICTED BY RF-SCORE:    0.00 PKD
ROOT
HETATM    1  N   UNL     1     -12.202  12.263  66.230  1.00  0.00    -0.557 NA 
HETATM    2  C   UNL     1     -11.161  11.864  67.042  1.00  0.00    -0.323 A  
HETATM    3  H2  UNL     1     -13.137  11.869  66.333  1.00  0.00     0.000 HD 
HETATM    4  H1  UNL     1     -11.998  12.969  65.523  1.00  0.00     0.000 HD 
HETATM    5  N   UNL     1     -11.428  10.939  67.969  1.00  0.00    -0.458 NA 
HETATM    6  C   UNL     1     -10.332  10.588  68.663  1.00  0.00    -0.185 A  
HETATM    7  C   UNL     1      -9.048  11.080  68.504  1.00  0.00    -0.173 A  
HETATM    8  N   UNL     1      -8.192  10.461  69.397  1.00  0.00    -0.163 NA 
HETATM    9  C   UNL     1      -8.880  12.093  67.538  1.00  0.00    -0.175 A  
HETATM   10  N   UNL     1      -9.985  12.472  66.832  1.00  0.00    -0.220 NA 
HETATM   11  N   UNL     1     -10.259   9.670  69.672  1.00  0.00    -0.206 NA 
HETATM   12  C   UNL     1      -8.952   9.622  70.078  1.00  0.00    -0.237 A  
ENDROOT
BRANCH   9  13
HETATM   13  N   UNL     1      -7.647  12.719  67.261  1.00  0.00    -0.291 NA 
HETATM   14  H   UNL     1      -6.992  12.322  66.588  1.00  0.00     0.000 HD 
BRANCH  13  15
HETATM   15  C   UNL     1      -7.341  13.960  67.976  1.00  0.00    -0.141 C  
HETATM   16  C   UNL     1      -6.081  14.727  67.673  1.00  0.00    -0.087 C  
HETATM   17  C   UNL     1      -7.418  15.314  67.332  1.00  0.00    -0.239 C  
ENDBRANCH  13  15
ENDBRANCH   9  13
BRANCH  11  18
HETATM   18  C   UNL     1     -11.407   8.951  70.212  1.00  0.00    -0.159 C  
HETATM   19  C   UNL     1     -11.635   9.210  71.715  1.00  0.00    -0.457 C  
HETATM   20  C   UNL     1     -11.381   7.881  72.454  1.00  0.00    -0.427 C  
HETATM   21  C   UNL     1     -11.310   7.459  70.130  1.00  0.00    -0.200 C  
HETATM   22  C   UNL     1     -11.316   6.880  71.335  1.00  0.00    -0.308 C  
BRANCH  20  23
HETATM   23  C   UNL     1     -10.099   7.910  73.292  1.00  0.00    -0.245 C  
HETATM   24  O   UNL     1     -10.181   6.989  74.375  1.00  0.00    -0.454 OA 
HETATM   25  H   UNL     1      -9.387   7.007  74.896  1.00  0.00     0.000 HD 
ENDBRANCH  20  23
ENDBRANCH  11  18
TORSDOF 4
ENDMDL
MODEL       88
REMARK 921   NORMALIZED FREE ENERGY PREDICTED BY IDOCK:   -4.58 KCAL/MOL
REMARK 922        TOTAL FREE ENERGY PREDICTED BY IDOCK:   -6.16 KCAL/MOL
REMARK 923 INTER-LIGAND FREE ENERGY PREDICTED BY IDOCK:   -6.37 KCAL/MOL
REMARK 924 INTRA-LIGAND FREE ENERGY PREDICTED BY IDOCK:    0.21 KCAL/MOL
REMARK 927      BINDING AFFINITY PREDICTED BY RF-SCORE:    0.00 PKD
ROOT
HETATM    1  N   UNL     1     -13.069  14.090  65.262  1.00  0.00    -0.765 NA 
HETATM    2  C   UNL     1     -11.988  13.584  65.953  1.00  0.00    -0.406 A  
HETATM    3  H2  UNL     1     -13.060  15.038  64.883  1.00  0.00     0.000 HD 
HETATM    4  H1  UNL     1     -13.877  13.480  65.145  1.00  0.00     0.000 HD 
HETATM    5  N   UNL     1     -10.929  14.384  66.106  1.00  0.00    -0.315 NA 
HETATM    6  C   UNL     1      -9.961  13.808  66.839  1.00  0.00    -0.264 A  
HETATM    7  C   UNL     1      -9.977  12.542  67.399  1.00  0.00    -0.207 A  
HETATM    8  N   UNL     1      -8.801  12.318  68.092  1.00  0.00    -0.184 NA 
HETATM    9  C   UNL     1     -11.116  11.754  67.134  1.00  0.00    -0.296 A  
HETATM   10  N   UNL     1     -12.104  12.318  66.380  1.00  0.00    -0.612 NA 
HETATM   11  N   UNL     1      -8.757  14.354  67.183  1.00  0.00    -0.216 NA 
HETATM   12  C   UNL     1      -8.096  13.425  67.942  1.00  0.00    -0.162 A  
ENDROOT
BRANCH   9  13
HETATM   13  N   UNL     1     -11.288  10.437  67.607  1.00  0.00    -0.538 NA 
HETATM   14  H   UNL     1     -11.841  10.243  68.443  1.00  0.00     0.000 HD 
BRANCH  13  15
HETATM   15  C   UNL     1     -10.645   9.357  66.856  1.00  0.00    -0.167 C  
HETATM   16  C   UNL     1      -9.220   8.965  67.148  1.00  0.00    -0.169 C  
HETATM   17  C   UNL     1     -10.339   8.014  67.455  1.00  0.00    -0.354 C  
ENDBRANCH  13  15
ENDBRANCH   9  13
BRANCH  11  18
HETATM   18  C   UNL     1      -8.295  15.665  66.743  1.00  0.00    -0.278 C  
HETATM   19  C   UNL     1      -8.178  16.686  67.893  1.00  0.00    -0.183 C  
HETATM   20  C   UNL     1      -9.231  17.784  67.641  1.00  0.00    -0.249 C  
HETATM   21  C   UNL     1      -9.194  16.352  65.761  1.00  0.00    -0.110 C  
HETATM   22  C   UNL     1      -9.682  17.503  66.236  1.00  0.00    -0.271 C  
BRANCH  20  23
HETATM   23  C   UNL     1     -10.382  17.735  68.650  1.00  0.00    -0.350 C  
HETATM   24  O   UNL     1     -11.361  16.777  68.258  1.00  0.00    -0.274 OA 
HETATM   25  H   UNL     1     -12.074  16.747  68.883  1.00  0.00     0.000 HD 
ENDBRANCH  20  23
ENDBRANCH  11  18
TORSDOF 4
ENDMDL
MODEL       89
REMARK 921   NORMALIZED FREE ENERGY PREDICTED BY IDOCK:   -4.58 KCAL/MOL
REMARK 922        TOTAL FREE ENERGY PREDICTED BY IDOCK:   -6.16 KCAL/MOL
REMARK 923 INTER-LIGAND FREE ENERGY PREDICTED BY IDOCK:   -5.68 KCAL/MOL
REMARK 924 INTRA-LIGAND FREE ENERGY PREDICTED BY IDOCK:   -0.49 KCAL/MOL
REMARK 927      BINDING AFFINITY PREDICTED BY RF-SCORE:    0.00 PKD
ROOT
HETATM    1  N   UNL     1     -11.928   9.244  72.073  1.00  0.00    -0.352 NA 
HETATM    2  C   UNL     1     -11.004   9.592  71.110  1.00  0.00    -0.360 A  
HETATM    3  H2  UNL     1     -12.872   9.630  72.067  1.00  0.00     0.000 HD 
HETATM    4  H1  UNL     1     -11.628   8.585  72.791  1.00  0.00     0.000 HD 
HETATM    5  N   UNL     1     -11.397  10.456  70.168  1.00  0.00    -0.300 NA 
HETATM    6  C   UNL     1     -10.403  10.763  69.318  1.00  0.00    -0.205 A  
HETATM    7  C   UNL     1      -9.104  10.284  69.340  1.00  0.00    -0.187 A  
HETATM    8  N   UNL     1      -8.376  10.846  68.307  1.00  0.00    -0.123 NA 
HETATM    9  C   UNL     1      -8.804   9.335  70.339  1.00  0.00    -0.234 A  
HETATM   10  N   UNL     1      -9.805   9.001  71.204  1.00  0.00    -0.275 NA 
HETATM   11  N   UNL     1     -10.469  11.614  68.251  1.00  0.00    -0.196 NA 
HETATM   12  C   UNL     1      -9.226  11.638  67.678  1.00  0.00    -0.178 A  
ENDROOT
BRANCH   9  13
HETATM   13  N   UNL     1      -7.539   8.730  70.494  1.00  0.00    -0.075 NA 
HETATM   14  H   UNL     1      -6.753   8.987  69.896  1.00  0.00     0.000 HD 
BRANCH  13  15
HETATM   15  C   UNL     1      -7.395   7.719  71.543  1.00  0.00    -0.069 C  
HETATM   16  C   UNL     1      -6.032   7.215  71.938  1.00  0.00    -0.037 C  
HETATM   17  C   UNL     1      -6.843   8.027  72.905  1.00  0.00    -0.104 C  
ENDBRANCH  13  15
ENDBRANCH   9  13
BRANCH  11  18
HETATM   18  C   UNL     1     -11.684  12.296  67.820  1.00  0.00    -0.337 C  
HETATM   19  C   UNL     1     -11.792  12.434  66.287  1.00  0.00    -0.431 C  
HETATM   20  C   UNL     1     -11.706  13.937  65.955  1.00  0.00    -0.372 C  
HETATM   21  C   UNL     1     -11.819  13.707  68.304  1.00  0.00    -0.404 C  
HETATM   22  C   UNL     1     -11.852  14.589  67.300  1.00  0.00    -0.419 C  
BRANCH  20  23
HETATM   23  C   UNL     1     -10.393  14.310  65.259  1.00  0.00    -0.395 C  
HETATM   24  O   UNL     1     -10.482  15.603  64.669  1.00  0.00    -0.624 OA 
HETATM   25  H   UNL     1      -9.669  15.835  64.238  1.00  0.00     0.000 HD 
ENDBRANCH  20  23
ENDBRANCH  11  18
TORSDOF 4
ENDMDL
MODEL       90
REMARK 921   NORMALIZED FREE ENERGY PREDICTED BY IDOCK:   -4.57 KCAL/MOL
REMARK 922        TOTAL FREE ENERGY PREDICTED BY IDOCK:   -6.16 KCAL/MOL
REMARK 923 INTER-LIGAND FREE ENERGY PREDICTED BY IDOCK:   -5.84 KCAL/MOL
REMARK 924 INTRA-LIGAND FREE ENERGY PREDICTED BY IDOCK:   -0.32 KCAL/MOL
REMARK 927      BINDING AFFINITY PREDICTED BY RF-SCORE:    0.00 PKD
ROOT
HETATM    1  N   UNL     1      -7.325   8.504  69.112  1.00  0.00    -0.077 NA 
HETATM    2  C   UNL     1      -8.491   9.018  69.638  1.00  0.00    -0.128 A  
HETATM    3  H2  UNL     1      -6.937   8.857  68.237  1.00  0.00     0.000 HD 
HETATM    4  H1  UNL     1      -6.866   7.757  69.633  1.00  0.00     0.000 HD 
HETATM    5  N   UNL     1      -9.093   9.996  68.956  1.00  0.00    -0.160 NA 
HETATM    6  C   UNL     1     -10.244  10.382  69.531  1.00  0.00    -0.231 A  
HETATM    7  C   UNL     1     -10.807   9.881  70.692  1.00  0.00    -0.330 A  
HETATM    8  N   UNL     1     -12.004  10.525  70.952  1.00  0.00    -0.357 NA 
HETATM    9  C   UNL     1     -10.069   8.888  71.370  1.00  0.00    -0.309 A  
HETATM   10  N   UNL     1      -8.890   8.494  70.807  1.00  0.00    -0.148 NA 
HETATM   11  N   UNL     1     -11.099  11.350  69.088  1.00  0.00    -0.242 NA 
HETATM   12  C   UNL     1     -12.147  11.396  69.969  1.00  0.00    -0.340 A  
ENDROOT
BRANCH   9  13
HETATM   13  N   UNL     1     -10.484   8.285  72.574  1.00  0.00    -0.333 NA 
HETATM   14  H   UNL     1     -10.367   8.758  73.471  1.00  0.00     0.000 HD 
BRANCH  13  15
HETATM   15  C   UNL     1     -11.089   6.954  72.493  1.00  0.00    -0.266 C  
HETATM   16  C   UNL     1     -12.169   6.665  71.484  1.00  0.00    -0.391 C  
HETATM   17  C   UNL     1     -10.827   6.005  71.359  1.00  0.00    -0.328 C  
ENDBRANCH  13  15
ENDBRANCH   9  13
BRANCH  11  18
HETATM   18  C   UNL     1     -10.857  12.186  67.918  1.00  0.00    -0.217 C  
HETATM   19  C   UNL     1      -9.676  13.160  68.101  1.00  0.00    -0.228 C  
HETATM   20  C   UNL     1     -10.253  14.589  68.093  1.00  0.00    -0.230 C  
HETATM   21  C   UNL     1     -11.993  13.088  67.543  1.00  0.00    -0.360 C  
HETATM   22  C   UNL     1     -11.663  14.381  67.617  1.00  0.00    -0.421 C  
BRANCH  20  23
HETATM   23  C   UNL     1     -10.189  15.255  69.471  1.00  0.00    -0.260 C  
HETATM   24  O   UNL     1     -10.943  14.516  70.427  1.00  0.00    -0.480 OA 
HETATM   25  H   UNL     1     -10.903  14.929  71.281  1.00  0.00     0.000 HD 
ENDBRANCH  20  23
ENDBRANCH  11  18
TORSDOF 4
ENDMDL
MODEL       91
REMARK 921   NORMALIZED FREE ENERGY PREDICTED BY IDOCK:   -4.57 KCAL/MOL
REMARK 922        TOTAL FREE ENERGY PREDICTED BY IDOCK:   -6.15 KCAL/MOL
REMARK 923 INTER-LIGAND FREE ENERGY PREDICTED BY IDOCK:   -6.24 KCAL/MOL
REMARK 924 INTRA-LIGAND FREE ENERGY PREDICTED BY IDOCK:    0.08 KCAL/MOL
REMARK 927      BINDING AFFINITY PREDICTED BY RF-SCORE:    0.00 PKD
ROOT
HETATM    1  N   UNL     1      -9.182   8.654  67.954  1.00  0.00    -0.139 NA 
HETATM    2  C   UNL     1     -10.187   9.230  68.703  1.00  0.00    -0.199 A  
HETATM    3  H2  UNL     1      -8.706   7.807  68.265  1.00  0.00     0.000 HD 
HETATM    4  H1  UNL     1      -8.934   9.110  67.076  1.00  0.00     0.000 HD 
HETATM    5  N   UNL     1     -10.512   8.633  69.853  1.00  0.00    -0.214 NA 
HETATM    6  C   UNL     1     -11.462   9.308  70.523  1.00  0.00    -0.248 A  
HETATM    7  C   UNL     1     -12.084  10.482  70.136  1.00  0.00    -0.300 A  
HETATM    8  N   UNL     1     -12.996  10.873  71.100  1.00  0.00    -0.378 NA 
HETATM    9  C   UNL     1     -11.711  11.004  68.880  1.00  0.00    -0.330 A  
HETATM   10  N   UNL     1     -10.757  10.324  68.179  1.00  0.00    -0.227 NA 
HETATM   11  N   UNL     1     -12.011   8.972  71.728  1.00  0.00    -0.343 NA 
HETATM   12  C   UNL     1     -12.923   9.946  72.038  1.00  0.00    -0.423 A  
ENDROOT
BRANCH   9  13
HETATM   13  N   UNL     1     -12.258  12.178  68.323  1.00  0.00    -0.273 NA 
HETATM   14  H   UNL     1     -13.156  12.546  68.640  1.00  0.00     0.000 HD 
BRANCH  13  15
HETATM   15  C   UNL     1     -11.491  12.852  67.273  1.00  0.00    -0.336 C  
HETATM   16  C   UNL     1     -12.183  13.410  66.058  1.00  0.00    -0.491 C  
HETATM   17  C   UNL     1     -11.542  14.336  67.048  1.00  0.00    -0.406 C  
ENDBRANCH  13  15
ENDBRANCH   9  13
BRANCH  11  18
HETATM   18  C   UNL     1     -11.688   7.759  72.468  1.00  0.00    -0.339 C  
HETATM   19  C   UNL     1     -10.336   7.839  73.206  1.00  0.00    -0.364 C  
HETATM   20  C   UNL     1      -9.392   6.814  72.548  1.00  0.00    -0.151 C  
HETATM   21  C   UNL     1     -11.549   6.527  71.627  1.00  0.00    -0.357 C  
HETATM   22  C   UNL     1     -10.320   6.006  71.686  1.00  0.00    -0.260 C  
BRANCH  20  23
HETATM   23  C   UNL     1      -8.270   7.479  71.745  1.00  0.00    -0.106 C  
HETATM   24  O   UNL     1      -8.287   8.892  71.926  1.00  0.00    -0.349 OA 
HETATM   25  H   UNL     1      -7.591   9.304  71.428  1.00  0.00     0.000 HD 
ENDBRANCH  20  23
ENDBRANCH  11  18
TORSDOF 4
ENDMDL
MODEL       92
REMARK 921   NORMALIZED FREE ENERGY PREDICTED BY IDOCK:   -4.57 KCAL/MOL
REMARK 922        TOTAL FREE ENERGY PREDICTED BY IDOCK:   -6.15 KCAL/MOL
REMARK 923 INTER-LIGAND FREE ENERGY PREDICTED BY IDOCK:   -5.85 KCAL/MOL
REMARK 924 INTRA-LIGAND FREE ENERGY PREDICTED BY IDOCK:   -0.30 KCAL/MOL
REMARK 927      BINDING AFFINITY PREDICTED BY RF-SCORE:    0.00 PKD
ROOT
HETATM    1  N   UNL     1      -6.526  14.209  68.649  1.00  0.00    -0.084 NA 
HETATM    2  C   UNL     1      -7.683  14.486  67.952  1.00  0.00    -0.140 A  
HETATM    3  H2  UNL     1      -5.833  14.934  68.837  1.00  0.00     0.000 HD 
HETATM    4  H1  UNL     1      -6.391  13.250  68.968  1.00  0.00     0.000 HD 
HETATM    5  N   UNL     1      -7.860  15.743  67.533  1.00  0.00    -0.145 NA 
HETATM    6  C   UNL     1      -8.990  15.885  66.821  1.00  0.00    -0.251 A  
HETATM    7  C   UNL     1      -9.917  14.902  66.517  1.00  0.00    -0.265 A  
HETATM    8  N   UNL     1     -10.939  15.436  65.754  1.00  0.00    -0.327 NA 
HETATM    9  C   UNL     1      -9.669  13.620  67.052  1.00  0.00    -0.251 A  
HETATM   10  N   UNL     1      -8.531  13.461  67.789  1.00  0.00    -0.167 NA 
HETATM   11  N   UNL     1      -9.461  17.032  66.249  1.00  0.00    -0.345 NA 
HETATM   12  C   UNL     1     -10.631  16.713  65.611  1.00  0.00    -0.270 A  
ENDROOT
BRANCH   9  13
HETATM   13  N   UNL     1     -10.517  12.511  66.859  1.00  0.00    -0.228 NA 
HETATM   14  H   UNL     1     -10.309  11.802  66.155  1.00  0.00     0.000 HD 
BRANCH  13  15
HETATM   15  C   UNL     1     -11.708  12.413  67.706  1.00  0.00    -0.350 C  
HETATM   16  C   UNL     1     -11.761  11.422  68.839  1.00  0.00    -0.409 C  
HETATM   17  C   UNL     1     -11.741  12.894  69.128  1.00  0.00    -0.376 C  
ENDBRANCH  13  15
ENDBRANCH   9  13
BRANCH  11  18
HETATM   18  C   UNL     1      -8.821  18.336  66.377  1.00  0.00    -0.240 C  
HETATM   19  C   UNL     1      -8.366  18.650  67.817  1.00  0.00    -0.285 C  
HETATM   20  C   UNL     1      -9.216  19.834  68.319  1.00  0.00    -0.388 C  
HETATM   21  C   UNL     1      -9.694  19.502  66.029  1.00  0.00    -0.378 C  
HETATM   22  C   UNL     1      -9.891  20.320  67.068  1.00  0.00    -0.607 C  
BRANCH  20  23
HETATM   23  C   UNL     1     -10.215  19.420  69.404  1.00  0.00     0.053 C  
HETATM   24  O   UNL     1     -10.373  18.005  69.434  1.00  0.00    -0.397 OA 
HETATM   25  H   UNL     1     -10.992  17.748  70.107  1.00  0.00     0.000 HD 
ENDBRANCH  20  23
ENDBRANCH  11  18
TORSDOF 4
ENDMDL
MODEL       93
REMARK 921   NORMALIZED FREE ENERGY PREDICTED BY IDOCK:   -4.56 KCAL/MOL
REMARK 922        TOTAL FREE ENERGY PREDICTED BY IDOCK:   -6.15 KCAL/MOL
REMARK 923 INTER-LIGAND FREE ENERGY PREDICTED BY IDOCK:   -6.04 KCAL/MOL
REMARK 924 INTRA-LIGAND FREE ENERGY PREDICTED BY IDOCK:   -0.10 KCAL/MOL
REMARK 927      BINDING AFFINITY PREDICTED BY RF-SCORE:    0.00 PKD
ROOT
HETATM    1  N   UNL     1      -7.872  13.553  69.124  1.00  0.00    -0.327 NA 
HETATM    2  C   UNL     1      -8.723  14.500  68.594  1.00  0.00    -0.172 A  
HETATM    3  H2  UNL     1      -6.963  13.812  69.507  1.00  0.00     0.000 HD 
HETATM    4  H1  UNL     1      -8.190  12.584  69.119  1.00  0.00     0.000 HD 
HETATM    5  N   UNL     1      -8.307  15.770  68.601  1.00  0.00    -0.172 NA 
HETATM    6  C   UNL     1      -9.190  16.595  68.013  1.00  0.00    -0.223 A  
HETATM    7  C   UNL     1     -10.407  16.253  67.449  1.00  0.00    -0.285 A  
HETATM    8  N   UNL     1     -11.020  17.380  66.932  1.00  0.00     0.019 NA 
HETATM    9  C   UNL     1     -10.781  14.897  67.541  1.00  0.00    -0.276 A  
HETATM   10  N   UNL     1      -9.903  14.046  68.147  1.00  0.00    -0.228 NA 
HETATM   11  N   UNL     1      -9.068  17.946  67.851  1.00  0.00    -0.255 NA 
HETATM   12  C   UNL     1     -10.188  18.374  67.189  1.00  0.00    -0.374 A  
ENDROOT
BRANCH   9  13
HETATM   13  N   UNL     1     -11.993  14.381  67.039  1.00  0.00    -0.447 NA 
HETATM   14  H   UNL     1     -12.800  14.239  67.647  1.00  0.00     0.000 HD 
BRANCH  13  15
HETATM   15  C   UNL     1     -12.052  14.055  65.612  1.00  0.00    -0.417 C  
HETATM   16  C   UNL     1     -10.955  13.251  64.965  1.00  0.00    -0.328 C  
HETATM   17  C   UNL     1     -12.332  12.671  65.100  1.00  0.00    -0.547 C  
ENDBRANCH  13  15
ENDBRANCH   9  13
BRANCH  11  18
HETATM   18  C   UNL     1      -7.955  18.737  68.362  1.00  0.00    -0.334 C  
HETATM   19  C   UNL     1      -7.864  20.140  67.727  1.00  0.00    -0.309 C  
HETATM   20  C   UNL     1      -6.563  20.187  66.901  1.00  0.00    -0.251 C  
HETATM   21  C   UNL     1      -6.599  18.154  68.105  1.00  0.00    -0.201 C  
HETATM   22  C   UNL     1      -5.842  18.943  67.336  1.00  0.00    -0.166 C  
BRANCH  20  23
HETATM   23  C   UNL     1      -6.827  20.218  65.393  1.00  0.00    -0.288 C  
HETATM   24  O   UNL     1      -6.845  18.899  64.854  1.00  0.00    -0.460 OA 
HETATM   25  H   UNL     1      -7.008  18.918  63.919  1.00  0.00     0.000 HD 
ENDBRANCH  20  23
ENDBRANCH  11  18
TORSDOF 4
ENDMDL
MODEL       94
REMARK 921   NORMALIZED FREE ENERGY PREDICTED BY IDOCK:   -4.56 KCAL/MOL
REMARK 922        TOTAL FREE ENERGY PREDICTED BY IDOCK:   -6.14 KCAL/MOL
REMARK 923 INTER-LIGAND FREE ENERGY PREDICTED BY IDOCK:   -5.62 KCAL/MOL
REMARK 924 INTRA-LIGAND FREE ENERGY PREDICTED BY IDOCK:   -0.52 KCAL/MOL
REMARK 927      BINDING AFFINITY PREDICTED BY RF-SCORE:    0.00 PKD
ROOT
HETATM    1  N   UNL     1     -10.377   8.716  72.354  1.00  0.00    -0.301 NA 
HETATM    2  C   UNL     1     -10.456   8.484  70.997  1.00  0.00    -0.212 A  
HETATM    3  H2  UNL     1     -10.286   9.661  72.726  1.00  0.00     0.000 HD 
HETATM    4  H1  UNL     1     -10.413   7.904  72.970  1.00  0.00     0.000 HD 
HETATM    5  N   UNL     1     -10.409   9.548  70.190  1.00  0.00    -0.236 NA 
HETATM    6  C   UNL     1     -10.439   9.201  68.892  1.00  0.00    -0.218 A  
HETATM    7  C   UNL     1     -10.516   7.921  68.370  1.00  0.00    -0.166 A  
HETATM    8  N   UNL     1     -10.511   7.974  66.988  1.00  0.00    -0.340 NA 
HETATM    9  C   UNL     1     -10.618   6.869  69.303  1.00  0.00    -0.226 A  
HETATM   10  N   UNL     1     -10.602   7.204  70.626  1.00  0.00    -0.222 NA 
HETATM   11  N   UNL     1     -10.402  10.042  67.816  1.00  0.00    -0.200 NA 
HETATM   12  C   UNL     1     -10.440   9.260  66.693  1.00  0.00    -0.167 A  
ENDROOT
BRANCH   9  13
HETATM   13  N   UNL     1     -10.725   5.509  68.946  1.00  0.00    -0.192 NA 
HETATM   14  H   UNL     1     -11.625   5.094  68.705  1.00  0.00     0.000 HD 
BRANCH  13  15
HETATM   15  C   UNL     1      -9.496   4.713  68.934  1.00  0.00    -0.153 C  
HETATM   16  C   UNL     1      -9.187   3.764  70.062  1.00  0.00    -0.220 C  
HETATM   17  C   UNL     1      -9.484   3.231  68.691  1.00  0.00    -0.200 C  
ENDBRANCH  13  15
ENDBRANCH   9  13
BRANCH  11  18
HETATM   18  C   UNL     1     -10.385  11.497  67.912  1.00  0.00    -0.183 C  
HETATM   19  C   UNL     1     -11.649  12.160  67.328  1.00  0.00    -0.404 C  
HETATM   20  C   UNL     1     -11.213  12.967  66.090  1.00  0.00    -0.320 C  
HETATM   21  C   UNL     1      -9.270  12.163  67.166  1.00  0.00    -0.193 C  
HETATM   22  C   UNL     1      -9.715  12.970  66.198  1.00  0.00    -0.255 C  
BRANCH  20  23
HETATM   23  C   UNL     1     -11.707  12.345  64.780  1.00  0.00    -0.368 C  
HETATM   24  O   UNL     1     -13.115  12.509  64.641  1.00  0.00    -0.845 OA 
HETATM   25  H   UNL     1     -13.422  12.124  63.829  1.00  0.00     0.000 HD 
ENDBRANCH  20  23
ENDBRANCH  11  18
TORSDOF 4
ENDMDL
MODEL       95
REMARK 921   NORMALIZED FREE ENERGY PREDICTED BY IDOCK:   -4.55 KCAL/MOL
REMARK 922        TOTAL FREE ENERGY PREDICTED BY IDOCK:   -6.13 KCAL/MOL
REMARK 923 INTER-LIGAND FREE ENERGY PREDICTED BY IDOCK:   -5.58 KCAL/MOL
REMARK 924 INTRA-LIGAND FREE ENERGY PREDICTED BY IDOCK:   -0.55 KCAL/MOL
REMARK 927      BINDING AFFINITY PREDICTED BY RF-SCORE:    0.00 PKD
ROOT
HETATM    1  N   UNL     1      -8.422   7.688  71.711  1.00  0.00    -0.106 NA 
HETATM    2  C   UNL     1      -9.273   8.500  70.991  1.00  0.00    -0.182 A  
HETATM    3  H2  UNL     1      -7.586   7.286  71.286  1.00  0.00     0.000 HD 
HETATM    4  H1  UNL     1      -8.663   7.506  72.685  1.00  0.00     0.000 HD 
HETATM    5  N   UNL     1      -8.958   8.738  69.714  1.00  0.00    -0.143 NA 
HETATM    6  C   UNL     1      -9.883   9.494  69.098  1.00  0.00    -0.176 A  
HETATM    7  C   UNL     1     -11.045  10.008  69.647  1.00  0.00    -0.259 A  
HETATM    8  N   UNL     1     -11.742  10.723  68.691  1.00  0.00    -0.395 NA 
HETATM    9  C   UNL     1     -11.260   9.747  71.016  1.00  0.00    -0.381 A  
HETATM   10  N   UNL     1     -10.324   8.992  71.662  1.00  0.00    -0.337 NA 
HETATM   11  N   UNL     1      -9.866   9.913  67.798  1.00  0.00    -0.150 NA 
HETATM   12  C   UNL     1     -11.007  10.642  67.596  1.00  0.00    -0.310 A  
ENDROOT
BRANCH   9  13
HETATM   13  N   UNL     1     -12.378  10.211  71.739  1.00  0.00    -0.365 NA 
HETATM   14  H   UNL     1     -12.300  10.993  72.390  1.00  0.00     0.000 HD 
BRANCH  13  15
HETATM   15  C   UNL     1     -13.656   9.530  71.521  1.00  0.00    -0.323 C  
HETATM   16  C   UNL     1     -13.736   8.026  71.548  1.00  0.00    -0.365 C  
HETATM   17  C   UNL     1     -14.409   8.834  72.618  1.00  0.00    -0.229 C  
ENDBRANCH  13  15
ENDBRANCH   9  13
BRANCH  11  18
HETATM   18  C   UNL     1      -8.778   9.648  66.864  1.00  0.00    -0.131 C  
HETATM   19  C   UNL     1      -8.495  10.826  65.910  1.00  0.00    -0.166 C  
HETATM   20  C   UNL     1      -8.854  10.359  64.486  1.00  0.00    -0.225 C  
HETATM   21  C   UNL     1      -9.014   8.499  65.933  1.00  0.00    -0.235 C  
HETATM   22  C   UNL     1      -9.034   8.877  64.651  1.00  0.00    -0.042 C  
BRANCH  20  23
HETATM   23  C   UNL     1     -10.109  11.048  63.941  1.00  0.00    -0.356 C  
HETATM   24  O   UNL     1     -10.221  10.858  62.533  1.00  0.00    -0.704 OA 
HETATM   25  H   UNL     1     -10.998  11.285  62.195  1.00  0.00     0.000 HD 
ENDBRANCH  20  23
ENDBRANCH  11  18
TORSDOF 4
ENDMDL
MODEL       96
REMARK 921   NORMALIZED FREE ENERGY PREDICTED BY IDOCK:   -4.51 KCAL/MOL
REMARK 922        TOTAL FREE ENERGY PREDICTED BY IDOCK:   -6.08 KCAL/MOL
REMARK 923 INTER-LIGAND FREE ENERGY PREDICTED BY IDOCK:   -5.39 KCAL/MOL
REMARK 924 INTRA-LIGAND FREE ENERGY PREDICTED BY IDOCK:   -0.69 KCAL/MOL
REMARK 927      BINDING AFFINITY PREDICTED BY RF-SCORE:    0.00 PKD
ROOT
HETATM    1  N   UNL     1      -7.679   8.592  73.280  1.00  0.00    -0.391 NA 
HETATM    2  C   UNL     1      -8.680   8.047  72.505  1.00  0.00    -0.173 A  
HETATM    3  H2  UNL     1      -6.696   8.389  73.098  1.00  0.00     0.000 HD 
HETATM    4  H1  UNL     1      -7.961   9.208  74.044  1.00  0.00     0.000 HD 
HETATM    5  N   UNL     1      -8.311   7.241  71.505  1.00  0.00    -0.109 NA 
HETATM    6  C   UNL     1      -9.367   6.727  70.853  1.00  0.00    -0.157 A  
HETATM    7  C   UNL     1     -10.706   6.957  71.117  1.00  0.00    -0.225 A  
HETATM    8  N   UNL     1     -11.491   6.236  70.236  1.00  0.00    -0.388 NA 
HETATM    9  C   UNL     1     -10.993   7.866  72.156  1.00  0.00    -0.281 A  
HETATM   10  N   UNL     1      -9.932   8.409  72.821  1.00  0.00    -0.266 NA 
HETATM   11  N   UNL     1      -9.337   5.868  69.791  1.00  0.00    -0.146 NA 
HETATM   12  C   UNL     1     -10.637   5.595  69.458  1.00  0.00    -0.314 A  
ENDROOT
BRANCH   9  13
HETATM   13  N   UNL     1     -12.299   8.231  72.544  1.00  0.00    -0.557 NA 
HETATM   14  H   UNL     1     -12.708   7.887  73.413  1.00  0.00     0.000 HD 
BRANCH  13  15
HETATM   15  C   UNL     1     -13.046   9.121  71.653  1.00  0.00    -0.369 C  
HETATM   16  C   UNL     1     -13.134  10.596  71.943  1.00  0.00    -0.563 C  
HETATM   17  C   UNL     1     -12.382  10.110  70.740  1.00  0.00    -0.422 C  
ENDBRANCH  13  15
ENDBRANCH   9  13
BRANCH  11  18
HETATM   18  C   UNL     1      -8.115   5.411  69.140  1.00  0.00    -0.094 C  
HETATM   19  C   UNL     1      -7.794   6.177  67.841  1.00  0.00    -0.106 C  
HETATM   20  C   UNL     1      -7.920   5.177  66.674  1.00  0.00    -0.104 C  
HETATM   21  C   UNL     1      -8.136   3.979  68.699  1.00  0.00    -0.078 C  
HETATM   22  C   UNL     1      -8.010   3.851  67.375  1.00  0.00    -0.091 C  
BRANCH  20  23
HETATM   23  C   UNL     1      -9.138   5.459  65.788  1.00  0.00    -0.154 C  
HETATM   24  O   UNL     1      -9.670   6.753  66.055  1.00  0.00    -0.398 OA 
HETATM   25  H   UNL     1     -10.424   6.928  65.506  1.00  0.00     0.000 HD 
ENDBRANCH  20  23
ENDBRANCH  11  18
TORSDOF 4
ENDMDL
MODEL       97
REMARK 921   NORMALIZED FREE ENERGY PREDICTED BY IDOCK:   -4.48 KCAL/MOL
REMARK 922        TOTAL FREE ENERGY PREDICTED BY IDOCK:   -6.04 KCAL/MOL
REMARK 923 INTER-LIGAND FREE ENERGY PREDICTED BY IDOCK:   -5.91 KCAL/MOL
REMARK 924 INTRA-LIGAND FREE ENERGY PREDICTED BY IDOCK:   -0.13 KCAL/MOL
REMARK 927      BINDING AFFINITY PREDICTED BY RF-SCORE:    0.00 PKD
ROOT
HETATM    1  N   UNL     1      -9.747   7.861  66.093  1.00  0.00    -0.444 NA 
HETATM    2  C   UNL     1     -10.244   8.935  66.800  1.00  0.00    -0.278 A  
HETATM    3  H2  UNL     1      -9.616   6.950  66.534  1.00  0.00     0.000 HD 
HETATM    4  H1  UNL     1      -9.515   8.014  65.112  1.00  0.00     0.000 HD 
HETATM    5  N   UNL     1     -10.547   8.735  68.086  1.00  0.00    -0.188 NA 
HETATM    6  C   UNL     1     -10.971   9.860  68.687  1.00  0.00    -0.179 A  
HETATM    7  C   UNL     1     -11.110  11.113  68.115  1.00  0.00    -0.264 A  
HETATM    8  N   UNL     1     -11.559  12.016  69.061  1.00  0.00    -0.288 NA 
HETATM    9  C   UNL     1     -10.818  11.209  66.739  1.00  0.00    -0.268 A  
HETATM   10  N   UNL     1     -10.399  10.073  66.108  1.00  0.00    -0.196 NA 
HETATM   11  N   UNL     1     -11.353   9.999  69.991  1.00  0.00    -0.266 NA 
HETATM   12  C   UNL     1     -11.691  11.314  70.172  1.00  0.00    -0.343 A  
ENDROOT
BRANCH   9  13
HETATM   13  N   UNL     1     -10.926  12.401  65.994  1.00  0.00    -0.278 NA 
HETATM   14  H   UNL     1     -10.142  13.051  65.919  1.00  0.00     0.000 HD 
BRANCH  13  15
HETATM   15  C   UNL     1     -12.203  12.674  65.332  1.00  0.00    -0.459 C  
HETATM   16  C   UNL     1     -12.274  13.627  64.168  1.00  0.00    -0.450 C  
HETATM   17  C   UNL     1     -12.538  12.165  63.959  1.00  0.00    -0.507 C  
ENDBRANCH  13  15
ENDBRANCH   9  13
BRANCH  11  18
HETATM   18  C   UNL     1     -11.422   8.902  70.948  1.00  0.00    -0.288 C  
HETATM   19  C   UNL     1     -10.078   8.622  71.651  1.00  0.00    -0.365 C  
HETATM   20  C   UNL     1      -9.603   7.227  71.196  1.00  0.00    -0.160 C  
HETATM   21  C   UNL     1     -11.785   7.574  70.357  1.00  0.00    -0.116 C  
HETATM   22  C   UNL     1     -10.816   6.666  70.508  1.00  0.00    -0.310 C  
BRANCH  20  23
HETATM   23  C   UNL     1      -8.381   7.294  70.275  1.00  0.00    -0.135 C  
HETATM   24  O   UNL     1      -8.648   6.653  69.031  1.00  0.00    -0.128 OA 
HETATM   25  H   UNL     1      -7.891   6.694  68.460  1.00  0.00     0.000 HD 
ENDBRANCH  20  23
ENDBRANCH  11  18
TORSDOF 4
ENDMDL
MODEL       98
REMARK 921   NORMALIZED FREE ENERGY PREDICTED BY IDOCK:   -4.46 KCAL/MOL
REMARK 922        TOTAL FREE ENERGY PREDICTED BY IDOCK:   -6.03 KCAL/MOL
REMARK 923 INTER-LIGAND FREE ENERGY PREDICTED BY IDOCK:   -6.05 KCAL/MOL
REMARK 924 INTRA-LIGAND FREE ENERGY PREDICTED BY IDOCK:    0.03 KCAL/MOL
REMARK 927      BINDING AFFINITY PREDICTED BY RF-SCORE:    0.00 PKD
ROOT
HETATM    1  N   UNL     1     -13.709   9.591  70.904  1.00  0.00    -0.534 NA 
HETATM    2  C   UNL     1     -12.342   9.424  70.970  1.00  0.00    -0.258 A  
HETATM    3  H2  UNL     1     -14.143  10.136  70.159  1.00  0.00     0.000 HD 
HETATM    4  H1  UNL     1     -14.270   9.147  71.631  1.00  0.00     0.000 HD 
HETATM    5  N   UNL     1     -11.608  10.006  70.017  1.00  0.00    -0.239 NA 
HETATM    6  C   UNL     1     -10.290   9.822  70.210  1.00  0.00    -0.291 A  
HETATM    7  C   UNL     1      -9.686   9.124  71.242  1.00  0.00    -0.281 A  
HETATM    8  N   UNL     1      -8.311   9.173  71.101  1.00  0.00    -0.304 NA 
HETATM    9  C   UNL     1     -10.548   8.500  72.166  1.00  0.00    -0.349 A  
HETATM   10  N   UNL     1     -11.890   8.664  71.978  1.00  0.00    -0.347 NA 
HETATM   11  N   UNL     1      -9.273  10.288  69.426  1.00  0.00    -0.203 NA 
HETATM   12  C   UNL     1      -8.101   9.879  70.005  1.00  0.00    -0.177 A  
ENDROOT
BRANCH   9  13
HETATM   13  N   UNL     1     -10.103   7.734  73.263  1.00  0.00    -0.323 NA 
HETATM   14  H   UNL     1      -9.951   8.159  74.178  1.00  0.00     0.000 HD 
BRANCH  13  15
HETATM   15  C   UNL     1      -9.866   6.306  73.042  1.00  0.00    -0.168 C  
HETATM   16  C   UNL     1     -10.849   5.281  73.544  1.00  0.00    -0.358 C  
HETATM   17  C   UNL     1     -10.665   5.486  72.070  1.00  0.00    -0.293 C  
ENDBRANCH  13  15
ENDBRANCH   9  13
BRANCH  11  18
HETATM   18  C   UNL     1      -9.467  11.027  68.185  1.00  0.00    -0.172 C  
HETATM   19  C   UNL     1      -9.753  12.526  68.407  1.00  0.00    -0.189 C  
HETATM   20  C   UNL     1     -11.196  12.793  67.934  1.00  0.00    -0.315 C  
HETATM   21  C   UNL     1     -10.630  10.572  67.357  1.00  0.00    -0.313 C  
HETATM   22  C   UNL     1     -11.551  11.529  67.204  1.00  0.00    -0.249 C  
BRANCH  20  23
HETATM   23  C   UNL     1     -12.149  13.090  69.096  1.00  0.00    -0.187 C  
HETATM   24  O   UNL     1     -11.466  13.012  70.344  1.00  0.00    -0.504 OA 
HETATM   25  H   UNL     1     -12.056  13.197  71.064  1.00  0.00     0.000 HD 
ENDBRANCH  20  23
ENDBRANCH  11  18
TORSDOF 4
ENDMDL
MODEL       99
REMARK 921   NORMALIZED FREE ENERGY PREDICTED BY IDOCK:   -4.43 KCAL/MOL
REMARK 922        TOTAL FREE ENERGY PREDICTED BY IDOCK:   -5.99 KCAL/MOL
REMARK 923 INTER-LIGAND FREE ENERGY PREDICTED BY IDOCK:   -5.37 KCAL/MOL
REMARK 924 INTRA-LIGAND FREE ENERGY PREDICTED BY IDOCK:   -0.61 KCAL/MOL
REMARK 927      BINDING AFFINITY PREDICTED BY RF-SCORE:    0.00 PKD
ROOT
HETATM    1  N   UNL     1      -7.360  15.938  67.475  1.00  0.00    -0.153 NA 
HETATM    2  C   UNL     1      -8.260  14.940  67.785  1.00  0.00    -0.156 A  
HETATM    3  H2  UNL     1      -7.520  16.904  67.759  1.00  0.00     0.000 HD 
HETATM    4  H1  UNL     1      -6.528  15.670  66.950  1.00  0.00     0.000 HD 
HETATM    5  N   UNL     1      -9.351  15.292  68.473  1.00  0.00    -0.193 NA 
HETATM    6  C   UNL     1     -10.181  14.253  68.671  1.00  0.00    -0.246 A  
HETATM    7  C   UNL     1     -10.000  12.946  68.252  1.00  0.00    -0.234 A  
HETATM    8  N   UNL     1     -11.081  12.174  68.636  1.00  0.00    -0.235 NA 
HETATM    9  C   UNL     1      -8.791  12.664  67.582  1.00  0.00    -0.184 A  
HETATM   10  N   UNL     1      -7.930  13.704  67.384  1.00  0.00    -0.177 NA 
HETATM   11  N   UNL     1     -11.377  14.274  69.330  1.00  0.00    -0.270 NA 
HETATM   12  C   UNL     1     -11.886  13.003  69.277  1.00  0.00    -0.316 A  
ENDROOT
BRANCH   9  13
HETATM   13  N   UNL     1      -8.436  11.386  67.107  1.00  0.00    -0.147 NA 
HETATM   14  H   UNL     1      -7.935  10.721  67.697  1.00  0.00     0.000 HD 
BRANCH  13  15
HETATM   15  C   UNL     1      -8.813  11.044  65.733  1.00  0.00    -0.191 C  
HETATM   16  C   UNL     1      -9.343   9.674  65.403  1.00  0.00    -0.320 C  
HETATM   17  C   UNL     1     -10.239  10.872  65.296  1.00  0.00    -0.351 C  
ENDBRANCH  13  15
ENDBRANCH   9  13
BRANCH  11  18
HETATM   18  C   UNL     1     -11.929  15.448  69.994  1.00  0.00    -0.356 C  
HETATM   19  C   UNL     1     -11.444  15.607  71.450  1.00  0.00    -0.488 C  
HETATM   20  C   UNL     1     -12.669  15.418  72.365  1.00  0.00    -0.467 C  
HETATM   21  C   UNL     1     -13.421  15.454  70.126  1.00  0.00     0.407 C  
HETATM   22  C   UNL     1     -13.820  15.459  71.401  1.00  0.00    -0.577 C  
BRANCH  20  23
HETATM   23  C   UNL     1     -12.612  14.111  73.161  1.00  0.00    -0.050 C  
HETATM   24  O   UNL     1     -13.708  13.265  72.825  1.00  0.00    -0.669 OA 
HETATM   25  H   UNL     1     -13.673  12.454  73.317  1.00  0.00     0.000 HD 
ENDBRANCH  20  23
ENDBRANCH  11  18
TORSDOF 4
ENDMDL
MODEL      100
REMARK 921   NORMALIZED FREE ENERGY PREDICTED BY IDOCK:   -4.41 KCAL/MOL
REMARK 922        TOTAL FREE ENERGY PREDICTED BY IDOCK:   -5.96 KCAL/MOL
REMARK 923 INTER-LIGAND FREE ENERGY PREDICTED BY IDOCK:   -5.35 KCAL/MOL
REMARK 924 INTRA-LIGAND FREE ENERGY PREDICTED BY IDOCK:   -0.62 KCAL/MOL
REMARK 927      BINDING AFFINITY PREDICTED BY RF-SCORE:    0.00 PKD
ROOT
HETATM    1  N   UNL     1     -11.422  11.917  66.309  1.00  0.00    -0.420 NA 
HETATM    2  C   UNL     1     -10.779  10.773  66.732  1.00  0.00    -0.231 A  
HETATM    3  H2  UNL     1     -11.912  12.525  66.966  1.00  0.00     0.000 HD 
HETATM    4  H1  UNL     1     -11.388  12.132  65.313  1.00  0.00     0.000 HD 
HETATM    5  N   UNL     1     -10.824  10.492  68.038  1.00  0.00    -0.241 NA 
HETATM    6  C   UNL     1     -10.214   9.330  68.327  1.00  0.00    -0.201 A  
HETATM    7  C   UNL     1      -9.585   8.472  67.440  1.00  0.00    -0.160 A  
HETATM    8  N   UNL     1      -9.089   7.374  68.119  1.00  0.00    -0.132 NA 
HETATM    9  C   UNL     1      -9.543   8.885  66.093  1.00  0.00    -0.265 A  
HETATM   10  N   UNL     1     -10.147  10.069  65.783  1.00  0.00    -0.271 NA 
HETATM   11  N   UNL     1     -10.086   8.755  69.559  1.00  0.00    -0.196 NA 
HETATM   12  C   UNL     1      -9.409   7.577  69.384  1.00  0.00    -0.152 A  
ENDROOT
BRANCH   9  13
HETATM   13  N   UNL     1      -8.926   8.144  65.063  1.00  0.00    -0.386 NA 
HETATM   14  H   UNL     1      -9.314   7.255  64.746  1.00  0.00     0.000 HD 
BRANCH  13  15
HETATM   15  C   UNL     1      -7.709   8.697  64.465  1.00  0.00    -0.124 C  
HETATM   16  C   UNL     1      -6.540   9.087  65.332  1.00  0.00    -0.068 C  
HETATM   17  C   UNL     1      -6.419   7.933  64.381  1.00  0.00    -0.056 C  
ENDBRANCH  13  15
ENDBRANCH   9  13
BRANCH  11  18
HETATM   18  C   UNL     1     -10.553   9.361  70.800  1.00  0.00    -0.303 C  
HETATM   19  C   UNL     1      -9.816   8.836  72.049  1.00  0.00    -0.376 C  
HETATM   20  C   UNL     1     -10.843   8.060  72.897  1.00  0.00    -0.399 C  
HETATM   21  C   UNL     1     -11.995   9.108  71.119  1.00  0.00    -0.374 C  
HETATM   22  C   UNL     1     -12.153   8.426  72.258  1.00  0.00    -0.456 C  
BRANCH  20  23
HETATM   23  C   UNL     1     -10.588   6.550  72.893  1.00  0.00    -0.241 C  
HETATM   24  O   UNL     1     -11.545   5.876  72.081  1.00  0.00    -0.296 OA 
HETATM   25  H   UNL     1     -11.387   4.940  72.078  1.00  0.00     0.000 HD 
ENDBRANCH  20  23
ENDBRANCH  11  18
TORSDOF 4
ENDMDL
MODEL      101
REMARK 921   NORMALIZED FREE ENERGY PREDICTED BY IDOCK:   -4.39 KCAL/MOL
REMARK 922        TOTAL FREE ENERGY PREDICTED BY IDOCK:   -5.93 KCAL/MOL
REMARK 923 INTER-LIGAND FREE ENERGY PREDICTED BY IDOCK:   -5.48 KCAL/MOL
REMARK 924 INTRA-LIGAND FREE ENERGY PREDICTED BY IDOCK:   -0.46 KCAL/MOL
REMARK 927      BINDING AFFINITY PREDICTED BY RF-SCORE:    0.00 PKD
ROOT
HETATM    1  N   UNL     1      -9.572   4.045  72.074  1.00  0.00    -0.135 NA 
HETATM    2  C   UNL     1     -10.061   4.767  71.005  1.00  0.00    -0.199 A  
HETATM    3  H2  UNL     1      -8.850   3.335  71.949  1.00  0.00     0.000 HD 
HETATM    4  H1  UNL     1      -9.962   4.249  72.994  1.00  0.00     0.000 HD 
HETATM    5  N   UNL     1      -9.550   4.499  69.800  1.00  0.00    -0.181 NA 
HETATM    6  C   UNL     1     -10.137   5.221  68.830  1.00  0.00    -0.177 A  
HETATM    7  C   UNL     1     -11.149   6.153  68.977  1.00  0.00    -0.367 A  
HETATM    8  N   UNL     1     -11.494   6.673  67.742  1.00  0.00     0.037 NA 
HETATM    9  C   UNL     1     -11.582   6.406  70.295  1.00  0.00    -0.383 A  
HETATM   10  N   UNL     1     -10.988   5.691  71.295  1.00  0.00    -0.222 NA 
HETATM   11  N   UNL     1      -9.853   5.183  67.494  1.00  0.00    -0.152 NA 
HETATM   12  C   UNL     1     -10.699   6.067  66.879  1.00  0.00    -0.334 A  
ENDROOT
BRANCH   9  13
HETATM   13  N   UNL     1     -12.587   7.337  70.627  1.00  0.00    -0.600 NA 
HETATM   14  H   UNL     1     -13.484   7.343  70.141  1.00  0.00     0.000 HD 
BRANCH  13  15
HETATM   15  C   UNL     1     -12.297   8.294  71.697  1.00  0.00    -0.315 C  
HETATM   16  C   UNL     1     -11.317   9.416  71.475  1.00  0.00    -0.464 C  
HETATM   17  C   UNL     1     -12.773   9.718  71.670  1.00  0.00    -0.517 C  
ENDBRANCH  13  15
ENDBRANCH   9  13
BRANCH  11  18
HETATM   18  C   UNL     1      -8.794   4.374  66.902  1.00  0.00    -0.114 C  
HETATM   19  C   UNL     1      -8.540   4.699  65.416  1.00  0.00    -0.130 C  
HETATM   20  C   UNL     1      -8.943   3.455  64.599  1.00  0.00    -0.127 C  
HETATM   21  C   UNL     1      -9.060   2.900  66.893  1.00  0.00    -0.181 C  
HETATM   22  C   UNL     1      -9.120   2.401  65.654  1.00  0.00    -0.096 C  
BRANCH  20  23
HETATM   23  C   UNL     1     -10.213   3.681  63.774  1.00  0.00    -0.225 C  
HETATM   24  O   UNL     1     -11.192   2.689  64.068  1.00  0.00    -0.598 OA 
HETATM   25  H   UNL     1     -11.980   2.829  63.557  1.00  0.00     0.000 HD 
ENDBRANCH  20  23
ENDBRANCH  11  18
TORSDOF 4
ENDMDL
MODEL      102
REMARK 921   NORMALIZED FREE ENERGY PREDICTED BY IDOCK:   -4.38 KCAL/MOL
REMARK 922        TOTAL FREE ENERGY PREDICTED BY IDOCK:   -5.92 KCAL/MOL
REMARK 923 INTER-LIGAND FREE ENERGY PREDICTED BY IDOCK:   -5.62 KCAL/MOL
REMARK 924 INTRA-LIGAND FREE ENERGY PREDICTED BY IDOCK:   -0.31 KCAL/MOL
REMARK 927      BINDING AFFINITY PREDICTED BY RF-SCORE:    0.00 PKD
ROOT
HETATM    1  N   UNL     1      -8.569   8.534  74.104  1.00  0.00    -0.342 NA 
HETATM    2  C   UNL     1      -9.395   7.877  73.217  1.00  0.00    -0.286 A  
HETATM    3  H2  UNL     1      -7.970   9.303  73.802  1.00  0.00     0.000 HD 
HETATM    4  H1  UNL     1      -8.582   8.221  75.075  1.00  0.00     0.000 HD 
HETATM    5  N   UNL     1      -9.379   8.287  71.945  1.00  0.00    -0.192 NA 
HETATM    6  C   UNL     1     -10.179   7.543  71.163  1.00  0.00    -0.193 A  
HETATM    7  C   UNL     1     -10.962   6.468  71.549  1.00  0.00    -0.255 A  
HETATM    8  N   UNL     1     -11.631   5.955  70.453  1.00  0.00    -0.053 NA 
HETATM    9  C   UNL     1     -10.953   6.148  72.922  1.00  0.00    -0.262 A  
HETATM   10  N   UNL     1     -10.156   6.902  73.734  1.00  0.00    -0.305 NA 
HETATM   11  N   UNL     1     -10.385   7.694  69.821  1.00  0.00    -0.218 NA 
HETATM   12  C   UNL     1     -11.260   6.713  69.436  1.00  0.00    -0.299 A  
ENDROOT
BRANCH   9  13
HETATM   13  N   UNL     1     -11.706   5.099  73.489  1.00  0.00    -0.394 NA 
HETATM   14  H   UNL     1     -12.717   5.174  73.601  1.00  0.00     0.000 HD 
BRANCH  13  15
HETATM   15  C   UNL     1     -10.983   3.897  73.912  1.00  0.00    -0.205 C  
HETATM   16  C   UNL     1     -11.458   2.531  73.490  1.00  0.00    -0.260 C  
HETATM   17  C   UNL     1     -10.156   3.068  72.972  1.00  0.00    -0.214 C  
ENDBRANCH  13  15
ENDBRANCH   9  13
BRANCH  11  18
HETATM   18  C   UNL     1      -9.799   8.758  69.015  1.00  0.00    -0.181 C  
HETATM   19  C   UNL     1      -9.855  10.140  69.699  1.00  0.00    -0.254 C  
HETATM   20  C   UNL     1     -10.800  11.027  68.865  1.00  0.00    -0.262 C  
HETATM   21  C   UNL     1     -10.475   8.997  67.700  1.00  0.00    -0.324 C  
HETATM   22  C   UNL     1     -10.997  10.224  67.610  1.00  0.00    -0.356 C  
BRANCH  20  23
HETATM   23  C   UNL     1     -12.118  11.323  69.587  1.00  0.00    -0.322 C  
HETATM   24  O   UNL     1     -12.535  10.201  70.359  1.00  0.00    -0.440 OA 
HETATM   25  H   UNL     1     -13.352  10.385  70.807  1.00  0.00     0.000 HD 
ENDBRANCH  20  23
ENDBRANCH  11  18
TORSDOF 4
ENDMDL
MODEL      103
REMARK 921   NORMALIZED FREE ENERGY PREDICTED BY IDOCK:   -4.37 KCAL/MOL
REMARK 922        TOTAL FREE ENERGY PREDICTED BY IDOCK:   -5.91 KCAL/MOL
REMARK 923 INTER-LIGAND FREE ENERGY PREDICTED BY IDOCK:   -5.39 KCAL/MOL
REMARK 924 INTRA-LIGAND FREE ENERGY PREDICTED BY IDOCK:   -0.51 KCAL/MOL
REMARK 927      BINDING AFFINITY PREDICTED BY RF-SCORE:    0.00 PKD
ROOT
HETATM    1  N   UNL     1     -12.873  10.602  69.459  1.00  0.00    -0.560 NA 
HETATM    2  C   UNL     1     -11.742  11.081  68.831  1.00  0.00    -0.330 A  
HETATM    3  H2  UNL     1     -13.625  11.228  69.748  1.00  0.00     0.000 HD 
HETATM    4  H1  UNL     1     -12.927   9.597  69.622  1.00  0.00     0.000 HD 
HETATM    5  N   UNL     1     -11.672  12.398  68.617  1.00  0.00    -0.312 NA 
HETATM    6  C   UNL     1     -10.508  12.758  68.051  1.00  0.00    -0.226 A  
HETATM    7  C   UNL     1      -9.459  11.927  67.695  1.00  0.00    -0.182 A  
HETATM    8  N   UNL     1      -8.429  12.674  67.152  1.00  0.00    -0.190 NA 
HETATM    9  C   UNL     1      -9.652  10.547  67.910  1.00  0.00    -0.150 A  
HETATM   10  N   UNL     1     -10.835  10.162  68.472  1.00  0.00    -0.229 NA 
HETATM   11  N   UNL     1     -10.118  14.021  67.707  1.00  0.00    -0.236 NA 
HETATM   12  C   UNL     1      -8.859  13.923  67.177  1.00  0.00    -0.226 A  
ENDROOT
BRANCH   9  13
HETATM   13  N   UNL     1      -8.698   9.560  67.587  1.00  0.00    -0.122 NA 
HETATM   14  H   UNL     1      -7.749   9.600  67.959  1.00  0.00     0.000 HD 
BRANCH  13  15
HETATM   15  C   UNL     1      -9.119   8.475  66.698  1.00  0.00    -0.165 C  
HETATM   16  C   UNL     1      -8.913   8.581  65.210  1.00  0.00    -0.102 C  
HETATM   17  C   UNL     1      -8.148   7.564  66.004  1.00  0.00    -0.123 C  
ENDBRANCH  13  15
ENDBRANCH   9  13
BRANCH  11  18
HETATM   18  C   UNL     1     -10.955  15.206  67.850  1.00  0.00    -0.302 C  
HETATM   19  C   UNL     1     -10.643  16.301  66.810  1.00  0.00    -0.257 C  
HETATM   20  C   UNL     1     -10.070  17.510  67.575  1.00  0.00    -0.326 C  
HETATM   21  C   UNL     1     -10.814  15.922  69.158  1.00  0.00    -0.268 C  
HETATM   22  C   UNL     1     -10.357  17.169  69.009  1.00  0.00    -0.331 C  
BRANCH  20  23
HETATM   23  C   UNL     1      -8.577  17.721  67.307  1.00  0.00    -0.233 C  
HETATM   24  O   UNL     1      -8.336  17.935  65.919  1.00  0.00    -0.521 OA 
HETATM   25  H   UNL     1      -7.411  18.065  65.753  1.00  0.00     0.000 HD 
ENDBRANCH  20  23
ENDBRANCH  11  18
TORSDOF 4
ENDMDL
MODEL      104
REMARK 921   NORMALIZED FREE ENERGY PREDICTED BY IDOCK:   -4.33 KCAL/MOL
REMARK 922        TOTAL FREE ENERGY PREDICTED BY IDOCK:   -5.85 KCAL/MOL
REMARK 923 INTER-LIGAND FREE ENERGY PREDICTED BY IDOCK:   -6.20 KCAL/MOL
REMARK 924 INTRA-LIGAND FREE ENERGY PREDICTED BY IDOCK:    0.35 KCAL/MOL
REMARK 927      BINDING AFFINITY PREDICTED BY RF-SCORE:    0.00 PKD
ROOT
HETATM    1  N   UNL     1     -11.288   9.457  69.112  1.00  0.00    -0.439 NA 
HETATM    2  C   UNL     1     -11.424  10.633  68.404  1.00  0.00    -0.259 A  
HETATM    3  H2  UNL     1     -11.003   8.592  68.653  1.00  0.00     0.000 HD 
HETATM    4  H1  UNL     1     -11.484   9.488  70.112  1.00  0.00     0.000 HD 
HETATM    5  N   UNL     1     -11.168  10.593  67.094  1.00  0.00    -0.319 NA 
HETATM    6  C   UNL     1     -11.384  11.778  66.499  1.00  0.00    -0.305 A  
HETATM    7  C   UNL     1     -11.816  12.949  67.099  1.00  0.00    -0.362 A  
HETATM    8  N   UNL     1     -11.932  13.949  66.151  1.00  0.00    -0.400 NA 
HETATM    9  C   UNL     1     -12.006  12.904  68.496  1.00  0.00    -0.234 A  
HETATM   10  N   UNL     1     -11.777  11.711  69.119  1.00  0.00    -0.298 NA 
HETATM   11  N   UNL     1     -11.223  12.074  65.175  1.00  0.00    -0.318 NA 
HETATM   12  C   UNL     1     -11.571  13.388  65.011  1.00  0.00    -0.317 A  
ENDROOT
BRANCH   9  13
HETATM   13  N   UNL     1     -12.421  14.007  69.268  1.00  0.00    -0.453 NA 
HETATM   14  H   UNL     1     -12.944  14.779  68.851  1.00  0.00     0.000 HD 
BRANCH  13  15
HETATM   15  C   UNL     1     -12.077  14.007  70.692  1.00  0.00    -0.354 C  
HETATM   16  C   UNL     1     -12.516  15.137  71.585  1.00  0.00    -0.418 C  
HETATM   17  C   UNL     1     -13.085  13.762  71.777  1.00  0.00    -0.463 C  
ENDBRANCH  13  15
ENDBRANCH   9  13
BRANCH  11  18
HETATM   18  C   UNL     1     -10.715  11.136  64.181  1.00  0.00    -0.345 C  
HETATM   19  C   UNL     1     -10.139   9.846  64.800  1.00  0.00     0.018 C  
HETATM   20  C   UNL     1      -8.625   9.836  64.514  1.00  0.00    -0.199 C  
HETATM   21  C   UNL     1      -9.582  11.654  63.349  1.00  0.00    -0.308 C  
HETATM   22  C   UNL     1      -8.463  10.943  63.512  1.00  0.00     0.056 C  
BRANCH  20  23
HETATM   23  C   UNL     1      -7.788  10.058  65.777  1.00  0.00    -0.128 C  
HETATM   24  O   UNL     1      -7.235  11.370  65.795  1.00  0.00    -0.355 OA 
HETATM   25  H   UNL     1      -6.716  11.508  66.578  1.00  0.00     0.000 HD 
ENDBRANCH  20  23
ENDBRANCH  11  18
TORSDOF 4
ENDMDL
MODEL      105
REMARK 921   NORMALIZED FREE ENERGY PREDICTED BY IDOCK:   -4.31 KCAL/MOL
REMARK 922        TOTAL FREE ENERGY PREDICTED BY IDOCK:   -5.84 KCAL/MOL
REMARK 923 INTER-LIGAND FREE ENERGY PREDICTED BY IDOCK:   -5.29 KCAL/MOL
REMARK 924 INTRA-LIGAND FREE ENERGY PREDICTED BY IDOCK:   -0.55 KCAL/MOL
REMARK 927      BINDING AFFINITY PREDICTED BY RF-SCORE:    0.00 PKD
ROOT
HETATM    1  N   UNL     1      -6.164   9.110  72.684  1.00  0.00    -0.296 NA 
HETATM    2  C   UNL     1      -7.472   8.801  72.375  1.00  0.00     0.125 A  
HETATM    3  H2  UNL     1      -5.534   9.508  71.987  1.00  0.00     0.000 HD 
HETATM    4  H1  UNL     1      -5.853   8.927  73.638  1.00  0.00     0.000 HD 
HETATM    5  N   UNL     1      -7.880   9.041  71.125  1.00  0.00    -0.227 NA 
HETATM    6  C   UNL     1      -9.150   8.652  70.923  1.00  0.00    -0.187 A  
HETATM    7  C   UNL     1     -10.003   8.070  71.845  1.00  0.00    -0.195 A  
HETATM    8  N   UNL     1     -11.224   7.801  71.253  1.00  0.00    -0.251 NA 
HETATM    9  C   UNL     1      -9.498   7.908  73.152  1.00  0.00    -0.278 A  
HETATM   10  N   UNL     1      -8.213   8.310  73.379  1.00  0.00    -0.302 NA 
HETATM   11  N   UNL     1      -9.864   8.752  69.763  1.00  0.00    -0.183 NA 
HETATM   12  C   UNL     1     -11.103   8.221  70.007  1.00  0.00    -0.147 A  
ENDROOT
BRANCH   9  13
HETATM   13  N   UNL     1     -10.236   7.353  74.217  1.00  0.00    -0.376 NA 
HETATM   14  H   UNL     1     -10.824   7.936  74.813  1.00  0.00     0.000 HD 
BRANCH  13  15
HETATM   15  C   UNL     1     -10.128   5.909  74.436  1.00  0.00    -0.292 C  
HETATM   16  C   UNL     1     -11.021   4.953  73.689  1.00  0.00    -0.387 C  
HETATM   17  C   UNL     1      -9.545   4.969  73.421  1.00  0.00    -0.147 C  
ENDBRANCH  13  15
ENDBRANCH   9  13
BRANCH  11  18
HETATM   18  C   UNL     1      -9.364   9.372  68.542  1.00  0.00    -0.138 C  
HETATM   19  C   UNL     1      -9.389  10.913  68.588  1.00  0.00    -0.188 C  
HETATM   20  C   UNL     1     -10.414  11.386  67.538  1.00  0.00    -0.233 C  
HETATM   21  C   UNL     1     -10.147   9.050  67.307  1.00  0.00    -0.297 C  
HETATM   22  C   UNL     1     -10.696  10.136  66.754  1.00  0.00    -0.191 C  
BRANCH  20  23
HETATM   23  C   UNL     1     -11.675  11.980  68.173  1.00  0.00    -0.333 C  
HETATM   24  O   UNL     1     -12.534  10.950  68.653  1.00  0.00    -0.772 OA 
HETATM   25  H   UNL     1     -13.315  11.318  69.047  1.00  0.00     0.000 HD 
ENDBRANCH  20  23
ENDBRANCH  11  18
TORSDOF 4
ENDMDL
MODEL      106
REMARK 921   NORMALIZED FREE ENERGY PREDICTED BY IDOCK:   -4.29 KCAL/MOL
REMARK 922        TOTAL FREE ENERGY PREDICTED BY IDOCK:   -5.81 KCAL/MOL
REMARK 923 INTER-LIGAND FREE ENERGY PREDICTED BY IDOCK:   -5.80 KCAL/MOL
REMARK 924 INTRA-LIGAND FREE ENERGY PREDICTED BY IDOCK:   -0.00 KCAL/MOL
REMARK 927      BINDING AFFINITY PREDICTED BY RF-SCORE:    0.00 PKD
ROOT
HETATM    1  N   UNL     1      -9.632  10.827  69.155  1.00  0.00    -0.339 NA 
HETATM    2  C   UNL     1      -9.984  11.409  67.955  1.00  0.00    -0.177 A  
HETATM    3  H2  UNL     1      -9.571  11.376  70.013  1.00  0.00     0.000 HD 
HETATM    4  H1  UNL     1      -9.437   9.826  69.150  1.00  0.00     0.000 HD 
HETATM    5  N   UNL     1     -10.240  12.720  67.961  1.00  0.00    -0.222 NA 
HETATM    6  C   UNL     1     -10.517  13.188  66.732  1.00  0.00    -0.261 A  
HETATM    7  C   UNL     1     -10.560  12.465  65.552  1.00  0.00    -0.275 A  
HETATM    8  N   UNL     1     -10.867  13.304  64.497  1.00  0.00    -0.373 NA 
HETATM    9  C   UNL     1     -10.329  11.078  65.658  1.00  0.00    -0.251 A  
HETATM   10  N   UNL     1     -10.059  10.583  66.901  1.00  0.00    -0.208 NA 
HETATM   11  N   UNL     1     -10.817  14.477  66.393  1.00  0.00    -0.312 NA 
HETATM   12  C   UNL     1     -11.013  14.501  65.038  1.00  0.00    -0.398 A  
ENDROOT
BRANCH   9  13
HETATM   13  N   UNL     1     -10.355  10.192  64.562  1.00  0.00    -0.323 NA 
HETATM   14  H   UNL     1     -11.200   9.674  64.320  1.00  0.00     0.000 HD 
BRANCH  13  15
HETATM   15  C   UNL     1      -9.123  10.039  63.784  1.00  0.00    -0.267 C  
HETATM   16  C   UNL     1      -9.180   9.650  62.331  1.00  0.00    -0.248 C  
HETATM   17  C   UNL     1      -8.699  11.016  62.725  1.00  0.00    -0.261 C  
ENDBRANCH  13  15
ENDBRANCH   9  13
BRANCH  11  18
HETATM   18  C   UNL     1     -10.947  15.568  67.351  1.00  0.00    -0.306 C  
HETATM   19  C   UNL     1      -9.683  16.447  67.447  1.00  0.00    -0.238 C  
HETATM   20  C   UNL     1      -9.095  16.252  68.859  1.00  0.00    -0.250 C  
HETATM   21  C   UNL     1     -11.177  15.138  68.767  1.00  0.00    -0.293 C  
HETATM   22  C   UNL     1     -10.191  15.524  69.583  1.00  0.00    -0.289 C  
BRANCH  20  23
HETATM   23  C   UNL     1      -7.778  15.470  68.844  1.00  0.00    -0.175 C  
HETATM   24  O   UNL     1      -7.981  14.128  69.274  1.00  0.00    -0.339 OA 
HETATM   25  H   UNL     1      -7.164  13.643  69.264  1.00  0.00     0.000 HD 
ENDBRANCH  20  23
ENDBRANCH  11  18
TORSDOF 4
ENDMDL
MODEL      107
REMARK 921   NORMALIZED FREE ENERGY PREDICTED BY IDOCK:   -4.28 KCAL/MOL
REMARK 922        TOTAL FREE ENERGY PREDICTED BY IDOCK:   -5.79 KCAL/MOL
REMARK 923 INTER-LIGAND FREE ENERGY PREDICTED BY IDOCK:   -5.13 KCAL/MOL
REMARK 924 INTRA-LIGAND FREE ENERGY PREDICTED BY IDOCK:   -0.66 KCAL/MOL
REMARK 927      BINDING AFFINITY PREDICTED BY RF-SCORE:    0.00 PKD
ROOT
HETATM    1  N   UNL     1      -6.634  11.289  69.236  1.00  0.00    -0.088 NA 
HETATM    2  C   UNL     1      -7.810  11.851  68.786  1.00  0.00    -0.052 A  
HETATM    3  H2  UNL     1      -5.758  11.812  69.224  1.00  0.00     0.000 HD 
HETATM    4  H1  UNL     1      -6.675  10.331  69.582  1.00  0.00     0.000 HD 
HETATM    5  N   UNL     1      -7.756  13.106  68.333  1.00  0.00    -0.135 NA 
HETATM    6  C   UNL     1      -8.945  13.530  67.872  1.00  0.00    -0.200 A  
HETATM    7  C   UNL     1     -10.132  12.817  67.839  1.00  0.00    -0.231 A  
HETATM    8  N   UNL     1     -11.131  13.592  67.278  1.00  0.00    -0.280 NA 
HETATM    9  C   UNL     1     -10.099  11.520  68.391  1.00  0.00    -0.204 A  
HETATM   10  N   UNL     1      -8.903  11.078  68.877  1.00  0.00    -0.148 NA 
HETATM   11  N   UNL     1      -9.229  14.755  67.339  1.00  0.00    -0.190 NA 
HETATM   12  C   UNL     1     -10.554  14.744  66.989  1.00  0.00    -0.290 A  
ENDROOT
BRANCH   9  13
HETATM   13  N   UNL     1     -11.219  10.667  68.459  1.00  0.00    -0.267 NA 
HETATM   14  H   UNL     1     -11.275   9.821  67.890  1.00  0.00     0.000 HD 
BRANCH  13  15
HETATM   15  C   UNL     1     -12.300  11.037  69.375  1.00  0.00    -0.153 C  
HETATM   16  C   UNL     1     -12.384  10.424  70.748  1.00  0.00    -0.463 C  
HETATM   17  C   UNL     1     -12.083  11.886  70.594  1.00  0.00    -0.389 C  
ENDBRANCH  13  15
ENDBRANCH   9  13
BRANCH  11  18
HETATM   18  C   UNL     1      -8.271  15.850  67.241  1.00  0.00    -0.185 C  
HETATM   19  C   UNL     1      -8.297  16.792  68.462  1.00  0.00    -0.243 C  
HETATM   20  C   UNL     1      -8.805  18.163  67.973  1.00  0.00    -0.286 C  
HETATM   21  C   UNL     1      -8.492  16.777  66.085  1.00  0.00    -0.298 C  
HETATM   22  C   UNL     1      -8.758  18.026  66.478  1.00  0.00    -0.279 C  
BRANCH  20  23
HETATM   23  C   UNL     1     -10.208  18.489  68.492  1.00  0.00    -0.351 C  
HETATM   24  O   UNL     1     -10.649  17.499  69.417  1.00  0.00    -0.404 OA 
HETATM   25  H   UNL     1     -11.519  17.700  69.738  1.00  0.00     0.000 HD 
ENDBRANCH  20  23
ENDBRANCH  11  18
TORSDOF 4
ENDMDL
MODEL      108
REMARK 921   NORMALIZED FREE ENERGY PREDICTED BY IDOCK:   -4.27 KCAL/MOL
REMARK 922        TOTAL FREE ENERGY PREDICTED BY IDOCK:   -5.79 KCAL/MOL
REMARK 923 INTER-LIGAND FREE ENERGY PREDICTED BY IDOCK:   -5.27 KCAL/MOL
REMARK 924 INTRA-LIGAND FREE ENERGY PREDICTED BY IDOCK:   -0.52 KCAL/MOL
REMARK 927      BINDING AFFINITY PREDICTED BY RF-SCORE:    0.00 PKD
ROOT
HETATM    1  N   UNL     1      -7.909   8.580  63.475  1.00  0.00    -0.143 NA 
HETATM    2  C   UNL     1      -8.620   8.808  64.634  1.00  0.00    -0.113 A  
HETATM    3  H2  UNL     1      -7.869   9.278  62.731  1.00  0.00     0.000 HD 
HETATM    4  H1  UNL     1      -7.426   7.686  63.391  1.00  0.00     0.000 HD 
HETATM    5  N   UNL     1      -9.253   9.980  64.744  1.00  0.00    -0.228 NA 
HETATM    6  C   UNL     1      -9.955  10.071  65.887  1.00  0.00    -0.269 A  
HETATM    7  C   UNL     1     -10.057   9.115  66.884  1.00  0.00    -0.258 A  
HETATM    8  N   UNL     1     -10.882   9.575  67.895  1.00  0.00    -0.223 NA 
HETATM    9  C   UNL     1      -9.306   7.935  66.700  1.00  0.00    -0.193 A  
HETATM   10  N   UNL     1      -8.577   7.831  65.552  1.00  0.00    -0.135 NA 
HETATM   11  N   UNL     1     -10.713  11.128  66.302  1.00  0.00    -0.261 NA 
HETATM   12  C   UNL     1     -11.257  10.782  67.511  1.00  0.00    -0.274 A  
ENDROOT
BRANCH   9  13
HETATM   13  N   UNL     1      -9.278   6.870  67.624  1.00  0.00    -0.120 NA 
HETATM   14  H   UNL     1      -9.953   6.107  67.572  1.00  0.00     0.000 HD 
BRANCH  13  15
HETATM   15  C   UNL     1      -8.245   6.900  68.661  1.00  0.00    -0.121 C  
HETATM   16  C   UNL     1      -7.700   8.211  69.162  1.00  0.00    -0.098 C  
HETATM   17  C   UNL     1      -8.514   7.340  70.071  1.00  0.00    -0.139 C  
ENDBRANCH  13  15
ENDBRANCH   9  13
BRANCH  11  18
HETATM   18  C   UNL     1     -10.834  12.386  65.576  1.00  0.00    -0.281 C  
HETATM   19  C   UNL     1     -10.193  13.578  66.314  1.00  0.00    -0.299 C  
HETATM   20  C   UNL     1     -11.330  14.541  66.709  1.00  0.00    -0.358 C  
HETATM   21  C   UNL     1     -12.241  12.843  65.341  1.00  0.00    -0.528 C  
HETATM   22  C   UNL     1     -12.503  14.013  65.932  1.00  0.00    -0.513 C  
BRANCH  20  23
HETATM   23  C   UNL     1     -11.585  14.562  68.219  1.00  0.00    -0.329 C  
HETATM   24  O   UNL     1     -11.742  15.898  68.688  1.00  0.00    -0.387 OA 
HETATM   25  H   UNL     1     -11.900  15.911  69.624  1.00  0.00     0.000 HD 
ENDBRANCH  20  23
ENDBRANCH  11  18
TORSDOF 4
ENDMDL
MODEL      109
REMARK 921   NORMALIZED FREE ENERGY PREDICTED BY IDOCK:   -4.27 KCAL/MOL
REMARK 922        TOTAL FREE ENERGY PREDICTED BY IDOCK:   -5.78 KCAL/MOL
REMARK 923 INTER-LIGAND FREE ENERGY PREDICTED BY IDOCK:   -5.84 KCAL/MOL
REMARK 924 INTRA-LIGAND FREE ENERGY PREDICTED BY IDOCK:    0.06 KCAL/MOL
REMARK 927      BINDING AFFINITY PREDICTED BY RF-SCORE:    0.00 PKD
ROOT
HETATM    1  N   UNL     1     -11.417   9.897  69.403  1.00  0.00    -0.441 NA 
HETATM    2  C   UNL     1     -10.697  10.019  68.234  1.00  0.00    -0.240 A  
HETATM    3  H2  UNL     1     -12.342  10.315  69.504  1.00  0.00     0.000 HD 
HETATM    4  H1  UNL     1     -10.987   9.371  70.164  1.00  0.00     0.000 HD 
HETATM    5  N   UNL     1     -11.261  10.708  67.237  1.00  0.00    -0.356 NA 
HETATM    6  C   UNL     1     -10.450  10.808  66.169  1.00  0.00    -0.214 A  
HETATM    7  C   UNL     1      -9.175  10.286  66.036  1.00  0.00    -0.164 A  
HETATM    8  N   UNL     1      -8.660  10.614  64.795  1.00  0.00    -0.163 NA 
HETATM    9  C   UNL     1      -8.691   9.528  67.122  1.00  0.00    -0.132 A  
HETATM   10  N   UNL     1      -9.506   9.405  68.209  1.00  0.00    -0.137 NA 
HETATM   11  N   UNL     1     -10.719  11.447  64.992  1.00  0.00    -0.291 NA 
HETATM   12  C   UNL     1      -9.611  11.310  64.199  1.00  0.00    -0.225 A  
ENDROOT
BRANCH   9  13
HETATM   13  N   UNL     1      -7.424   8.909  67.145  1.00  0.00    -0.084 NA 
HETATM   14  H   UNL     1      -7.332   7.893  67.149  1.00  0.00     0.000 HD 
BRANCH  13  15
HETATM   15  C   UNL     1      -6.245   9.778  67.165  1.00  0.00    -0.064 C  
HETATM   16  C   UNL     1      -6.267  11.081  67.920  1.00  0.00    -0.053 C  
HETATM   17  C   UNL     1      -5.384   9.960  68.381  1.00  0.00    -0.036 C  
ENDBRANCH  13  15
ENDBRANCH   9  13
BRANCH  11  18
HETATM   18  C   UNL     1     -11.991  12.087  64.678  1.00  0.00    -0.249 C  
HETATM   19  C   UNL     1     -11.869  13.183  63.600  1.00  0.00    -0.549 C  
HETATM   20  C   UNL     1     -12.195  14.530  64.275  1.00  0.00    -0.441 C  
HETATM   21  C   UNL     1     -12.636  12.802  65.825  1.00  0.00    -0.075 C  
HETATM   22  C   UNL     1     -12.765  14.113  65.601  1.00  0.00    -0.469 C  
BRANCH  20  23
HETATM   23  C   UNL     1     -10.962  15.427  64.420  1.00  0.00    -0.031 C  
HETATM   24  O   UNL     1     -11.292  16.788  64.162  1.00  0.00    -1.425 OA 
HETATM   25  H   UNL     1     -10.528  17.345  64.252  1.00  0.00     0.000 HD 
ENDBRANCH  20  23
ENDBRANCH  11  18
TORSDOF 4
ENDMDL
MODEL      110
REMARK 921   NORMALIZED FREE ENERGY PREDICTED BY IDOCK:   -4.26 KCAL/MOL
REMARK 922        TOTAL FREE ENERGY PREDICTED BY IDOCK:   -5.78 KCAL/MOL
REMARK 923 INTER-LIGAND FREE ENERGY PREDICTED BY IDOCK:   -6.00 KCAL/MOL
REMARK 924 INTRA-LIGAND FREE ENERGY PREDICTED BY IDOCK:    0.22 KCAL/MOL
REMARK 927      BINDING AFFINITY PREDICTED BY RF-SCORE:    0.00 PKD
ROOT
HETATM    1  N   UNL     1     -12.662  12.013  71.492  1.00  0.00    -0.309 NA 
HETATM    2  C   UNL     1     -12.067  11.453  70.381  1.00  0.00    -0.384 A  
HETATM    3  H2  UNL     1     -13.058  12.953  71.465  1.00  0.00     0.000 HD 
HETATM    4  H1  UNL     1     -12.690  11.449  72.342  1.00  0.00     0.000 HD 
HETATM    5  N   UNL     1     -12.030  12.192  69.268  1.00  0.00    -0.289 NA 
HETATM    6  C   UNL     1     -11.382  11.569  68.269  1.00  0.00    -0.286 A  
HETATM    7  C   UNL     1     -10.799  10.314  68.304  1.00  0.00    -0.255 A  
HETATM    8  N   UNL     1     -10.216  10.030  67.082  1.00  0.00    -0.215 NA 
HETATM    9  C   UNL     1     -10.940   9.591  69.506  1.00  0.00    -0.195 A  
HETATM   10  N   UNL     1     -11.607  10.202  70.528  1.00  0.00    -0.304 NA 
HETATM   11  N   UNL     1     -11.164  12.048  67.008  1.00  0.00    -0.301 NA 
HETATM   12  C   UNL     1     -10.453  11.092  66.332  1.00  0.00    -0.260 A  
ENDROOT
BRANCH   9  13
HETATM   13  N   UNL     1     -10.427   8.293  69.707  1.00  0.00    -0.218 NA 
HETATM   14  H   UNL     1      -9.552   8.141  70.209  1.00  0.00     0.000 HD 
BRANCH  13  15
HETATM   15  C   UNL     1     -11.198   7.169  69.170  1.00  0.00     0.039 C  
HETATM   16  C   UNL     1     -10.856   6.580  67.827  1.00  0.00    -0.395 C  
HETATM   17  C   UNL     1     -10.650   5.774  69.075  1.00  0.00    -0.351 C  
ENDBRANCH  13  15
ENDBRANCH   9  13
BRANCH  11  18
HETATM   18  C   UNL     1     -11.670  13.324  66.516  1.00  0.00    -0.377 C  
HETATM   19  C   UNL     1     -10.691  14.040  65.564  1.00  0.00    -0.317 C  
HETATM   20  C   UNL     1     -10.226  15.330  66.269  1.00  0.00    -0.300 C  
HETATM   21  C   UNL     1     -11.932  14.348  67.577  1.00  0.00    -0.389 C  
HETATM   22  C   UNL     1     -11.170  15.437  67.434  1.00  0.00    -0.287 C  
BRANCH  20  23
HETATM   23  C   UNL     1      -8.759  15.266  66.704  1.00  0.00    -0.291 C  
HETATM   24  O   UNL     1      -8.052  16.424  66.273  1.00  0.00    -0.312 OA 
HETATM   25  H   UNL     1      -7.142  16.385  66.542  1.00  0.00     0.000 HD 
ENDBRANCH  20  23
ENDBRANCH  11  18
TORSDOF 4
ENDMDL
MODEL      111
REMARK 921   NORMALIZED FREE ENERGY PREDICTED BY IDOCK:   -4.25 KCAL/MOL
REMARK 922        TOTAL FREE ENERGY PREDICTED BY IDOCK:   -5.76 KCAL/MOL
REMARK 923 INTER-LIGAND FREE ENERGY PREDICTED BY IDOCK:   -5.38 KCAL/MOL
REMARK 924 INTRA-LIGAND FREE ENERGY PREDICTED BY IDOCK:   -0.38 KCAL/MOL
REMARK 927      BINDING AFFINITY PREDICTED BY RF-SCORE:    0.00 PKD
ROOT
HETATM    1  N   UNL     1     -11.676  10.055  71.354  1.00  0.00    -0.362 NA 
HETATM    2  C   UNL     1     -11.646  10.873  70.244  1.00  0.00    -0.334 A  
HETATM    3  H2  UNL     1     -11.304   9.106  71.324  1.00  0.00     0.000 HD 
HETATM    4  H1  UNL     1     -12.087  10.438  72.206  1.00  0.00     0.000 HD 
HETATM    5  N   UNL     1     -11.108  10.372  69.128  1.00  0.00    -0.234 NA 
HETATM    6  C   UNL     1     -11.181  11.234  68.100  1.00  0.00    -0.286 A  
HETATM    7  C   UNL     1     -11.724  12.507  68.112  1.00  0.00    -0.348 A  
HETATM    8  N   UNL     1     -11.623  13.075  66.855  1.00  0.00    -0.346 NA 
HETATM    9  C   UNL     1     -12.216  12.966  69.352  1.00  0.00    -0.091 A  
HETATM   10  N   UNL     1     -12.139  12.109  70.410  1.00  0.00    -0.352 NA 
HETATM   11  N   UNL     1     -10.731  11.031  66.826  1.00  0.00    -0.267 NA 
HETATM   12  C   UNL     1     -11.025  12.162  66.111  1.00  0.00    -0.298 A  
ENDROOT
BRANCH   9  13
HETATM   13  N   UNL     1     -12.783  14.242  69.548  1.00  0.00    -0.452 NA 
HETATM   14  H   UNL     1     -13.780  14.406  69.405  1.00  0.00     0.000 HD 
BRANCH  13  15
HETATM   15  C   UNL     1     -11.889  15.324  69.965  1.00  0.00    -0.334 C  
HETATM   16  C   UNL     1     -10.395  15.136  69.939  1.00  0.00    -0.207 C  
HETATM   17  C   UNL     1     -11.046  16.107  68.999  1.00  0.00    -0.336 C  
ENDBRANCH  13  15
ENDBRANCH   9  13
BRANCH  11  18
HETATM   18  C   UNL     1     -10.024   9.834  66.386  1.00  0.00    -0.247 C  
HETATM   19  C   UNL     1      -8.676   9.625  67.104  1.00  0.00    -0.137 C  
HETATM   20  C   UNL     1      -7.564   9.782  66.048  1.00  0.00    -0.102 C  
HETATM   21  C   UNL     1      -9.648   9.823  64.936  1.00  0.00    -0.316 C  
HETATM   22  C   UNL     1      -8.325   9.775  64.753  1.00  0.00    -0.159 C  
BRANCH  20  23
HETATM   23  C   UNL     1      -6.745  11.062  66.243  1.00  0.00    -0.103 C  
HETATM   24  O   UNL     1      -5.349  10.781  66.205  1.00  0.00    -0.072 OA 
HETATM   25  H   UNL     1      -4.841  11.574  66.325  1.00  0.00     0.000 HD 
ENDBRANCH  20  23
ENDBRANCH  11  18
TORSDOF 4
ENDMDL
MODEL      112
REMARK 921   NORMALIZED FREE ENERGY PREDICTED BY IDOCK:   -4.23 KCAL/MOL
REMARK 922        TOTAL FREE ENERGY PREDICTED BY IDOCK:   -5.73 KCAL/MOL
REMARK 923 INTER-LIGAND FREE ENERGY PREDICTED BY IDOCK:   -5.47 KCAL/MOL
REMARK 924 INTRA-LIGAND FREE ENERGY PREDICTED BY IDOCK:   -0.27 KCAL/MOL
REMARK 927      BINDING AFFINITY PREDICTED BY RF-SCORE:    0.00 PKD
ROOT
HETATM    1  N   UNL     1     -10.152   6.769  66.319  1.00  0.00    -0.431 NA 
HETATM    2  C   UNL     1     -10.439   7.789  67.202  1.00  0.00    -0.343 A  
HETATM    3  H2  UNL     1     -10.099   5.798  66.629  1.00  0.00     0.000 HD 
HETATM    4  H1  UNL     1      -9.996   7.024  65.344  1.00  0.00     0.000 HD 
HETATM    5  N   UNL     1     -10.644   7.455  68.479  1.00  0.00    -0.185 NA 
HETATM    6  C   UNL     1     -10.861   8.531  69.255  1.00  0.00    -0.056 A  
HETATM    7  C   UNL     1     -10.890   9.857  68.858  1.00  0.00    -0.210 A  
HETATM    8  N   UNL     1     -11.129  10.671  69.950  1.00  0.00    -0.289 NA 
HETATM    9  C   UNL     1     -10.718  10.102  67.480  1.00  0.00    -0.290 A  
HETATM   10  N   UNL     1     -10.510   9.020  66.674  1.00  0.00    -0.216 NA 
HETATM   11  N   UNL     1     -11.099   8.537  70.600  1.00  0.00    -0.251 NA 
HETATM   12  C   UNL     1     -11.246   9.846  70.976  1.00  0.00    -0.364 A  
ENDROOT
BRANCH   9  13
HETATM   13  N   UNL     1     -10.740  11.388  66.902  1.00  0.00    -0.252 NA 
HETATM   14  H   UNL     1     -11.612  11.908  66.801  1.00  0.00     0.000 HD 
BRANCH  13  15
HETATM   15  C   UNL     1      -9.465  11.950  66.451  1.00  0.00    -0.228 C  
HETATM   16  C   UNL     1      -9.016  13.307  66.927  1.00  0.00    -0.212 C  
HETATM   17  C   UNL     1      -8.265  12.077  67.345  1.00  0.00    -0.168 C  
ENDBRANCH  13  15
ENDBRANCH   9  13
BRANCH  11  18
HETATM   18  C   UNL     1     -11.219   7.337  71.418  1.00  0.00    -0.248 C  
HETATM   19  C   UNL     1     -11.107   7.617  72.931  1.00  0.00    -0.448 C  
HETATM   20  C   UNL     1      -9.814   6.942  73.428  1.00  0.00    -0.247 C  
HETATM   21  C   UNL     1     -10.161   6.304  71.180  1.00  0.00    -0.218 C  
HETATM   22  C   UNL     1      -9.417   6.076  72.267  1.00  0.00    -0.159 C  
BRANCH  20  23
HETATM   23  C   UNL     1      -8.730   7.955  73.806  1.00  0.00    -0.271 C  
HETATM   24  O   UNL     1      -8.499   8.871  72.740  1.00  0.00    -0.380 OA 
HETATM   25  H   UNL     1      -7.827   9.500  72.973  1.00  0.00     0.000 HD 
ENDBRANCH  20  23
ENDBRANCH  11  18
TORSDOF 4
ENDMDL
MODEL      113
REMARK 921   NORMALIZED FREE ENERGY PREDICTED BY IDOCK:   -4.22 KCAL/MOL
REMARK 922        TOTAL FREE ENERGY PREDICTED BY IDOCK:   -5.73 KCAL/MOL
REMARK 923 INTER-LIGAND FREE ENERGY PREDICTED BY IDOCK:   -5.35 KCAL/MOL
REMARK 924 INTRA-LIGAND FREE ENERGY PREDICTED BY IDOCK:   -0.37 KCAL/MOL
REMARK 927      BINDING AFFINITY PREDICTED BY RF-SCORE:    0.00 PKD
ROOT
HETATM    1  N   UNL     1      -6.739  11.250  70.127  1.00  0.00    -0.448 NA 
HETATM    2  C   UNL     1      -7.292  11.079  68.876  1.00  0.00    -0.111 A  
HETATM    3  H2  UNL     1      -7.096  11.955  70.773  1.00  0.00     0.000 HD 
HETATM    4  H1  UNL     1      -5.960  10.643  70.381  1.00  0.00     0.000 HD 
HETATM    5  N   UNL     1      -8.313  11.874  68.543  1.00  0.00    -0.146 NA 
HETATM    6  C   UNL     1      -8.736  11.656  67.286  1.00  0.00    -0.159 A  
HETATM    7  C   UNL     1      -8.233  10.735  66.382  1.00  0.00    -0.155 A  
HETATM    8  N   UNL     1      -8.924  10.823  65.187  1.00  0.00    -0.198 NA 
HETATM    9  C   UNL     1      -7.193   9.905  66.847  1.00  0.00    -0.090 A  
HETATM   10  N   UNL     1      -6.760  10.103  68.126  1.00  0.00    -0.062 NA 
HETATM   11  N   UNL     1      -9.752  12.299  66.639  1.00  0.00    -0.217 NA 
HETATM   12  C   UNL     1      -9.824  11.771  65.377  1.00  0.00    -0.233 A  
ENDROOT
BRANCH   9  13
HETATM   13  N   UNL     1      -6.580   8.902  66.068  1.00  0.00    -0.064 NA 
HETATM   14  H   UNL     1      -5.741   9.096  65.520  1.00  0.00     0.000 HD 
BRANCH  13  15
HETATM   15  C   UNL     1      -7.191   7.571  66.073  1.00  0.00    -0.070 C  
HETATM   16  C   UNL     1      -7.714   6.974  67.354  1.00  0.00    -0.110 C  
HETATM   17  C   UNL     1      -8.665   7.349  66.256  1.00  0.00    -0.163 C  
ENDBRANCH  13  15
ENDBRANCH   9  13
BRANCH  11  18
HETATM   18  C   UNL     1     -10.604  13.312  67.251  1.00  0.00    -0.247 C  
HETATM   19  C   UNL     1     -11.907  13.566  66.466  1.00  0.00    -0.441 C  
HETATM   20  C   UNL     1     -11.840  15.005  65.917  1.00  0.00    -0.021 C  
HETATM   21  C   UNL     1      -9.990  14.674  67.350  1.00  0.00    -0.231 C  
HETATM   22  C   UNL     1     -10.666  15.590  66.650  1.00  0.00    -0.306 C  
BRANCH  20  23
HETATM   23  C   UNL     1     -11.665  15.045  64.396  1.00  0.00    -0.312 C  
HETATM   24  O   UNL     1     -11.471  16.382  63.944  1.00  0.00    -1.569 OA 
HETATM   25  H   UNL     1     -11.363  16.407  63.001  1.00  0.00     0.000 HD 
ENDBRANCH  20  23
ENDBRANCH  11  18
TORSDOF 4
ENDMDL
MODEL      114
REMARK 921   NORMALIZED FREE ENERGY PREDICTED BY IDOCK:   -4.18 KCAL/MOL
REMARK 922        TOTAL FREE ENERGY PREDICTED BY IDOCK:   -5.68 KCAL/MOL
REMARK 923 INTER-LIGAND FREE ENERGY PREDICTED BY IDOCK:   -5.36 KCAL/MOL
REMARK 924 INTRA-LIGAND FREE ENERGY PREDICTED BY IDOCK:   -0.32 KCAL/MOL
REMARK 927      BINDING AFFINITY PREDICTED BY RF-SCORE:    0.00 PKD
ROOT
HETATM    1  N   UNL     1      -7.121  17.771  65.362  1.00  0.00    -0.254 NA 
HETATM    2  C   UNL     1      -8.315  17.386  65.933  1.00  0.00     0.029 A  
HETATM    3  H2  UNL     1      -6.494  17.091  64.932  1.00  0.00     0.000 HD 
HETATM    4  H1  UNL     1      -6.891  18.764  65.385  1.00  0.00     0.000 HD 
HETATM    5  N   UNL     1      -8.617  16.084  65.903  1.00  0.00    -0.206 NA 
HETATM    6  C   UNL     1      -9.773  15.818  66.534  1.00  0.00    -0.265 A  
HETATM    7  C   UNL     1     -10.612  16.724  67.161  1.00  0.00    -0.256 A  
HETATM    8  N   UNL     1     -11.697  16.062  67.707  1.00  0.00     0.014 NA 
HETATM    9  C   UNL     1     -10.234  18.080  67.091  1.00  0.00    -0.360 A  
HETATM   10  N   UNL     1      -9.069  18.371  66.442  1.00  0.00    -0.392 NA 
HETATM   11  N   UNL     1     -10.362  14.595  66.687  1.00  0.00    -0.269 NA 
HETATM   12  C   UNL     1     -11.512  14.789  67.405  1.00  0.00    -0.363 A  
ENDROOT
BRANCH   9  13
HETATM   13  N   UNL     1     -10.981  19.135  67.655  1.00  0.00    -0.367 NA 
HETATM   14  H   UNL     1     -11.997  19.170  67.567  1.00  0.00     0.000 HD 
BRANCH  13  15
HETATM   15  C   UNL     1     -10.245  20.178  68.374  1.00  0.00    -0.300 C  
HETATM   16  C   UNL     1     -10.397  20.332  69.864  1.00  0.00     0.416 C  
HETATM   17  C   UNL     1      -9.088  19.882  69.284  1.00  0.00     0.148 C  
ENDBRANCH  13  15
ENDBRANCH   9  13
BRANCH  11  18
HETATM   18  C   UNL     1      -9.842  13.357  66.119  1.00  0.00    -0.281 C  
HETATM   19  C   UNL     1     -10.045  13.256  64.593  1.00  0.00    -0.249 C  
HETATM   20  C   UNL     1     -11.032  12.101  64.337  1.00  0.00    -0.375 C  
HETATM   21  C   UNL     1     -10.487  12.108  66.636  1.00  0.00    -0.248 C  
HETATM   22  C   UNL     1     -11.110  11.420  65.674  1.00  0.00    -0.207 C  
BRANCH  20  23
HETATM   23  C   UNL     1     -12.397  12.593  63.845  1.00  0.00    -0.459 C  
HETATM   24  O   UNL     1     -12.288  13.885  63.257  1.00  0.00    -1.115 OA 
HETATM   25  H   UNL     1     -13.134  14.191  62.952  1.00  0.00     0.000 HD 
ENDBRANCH  20  23
ENDBRANCH  11  18
TORSDOF 4
ENDMDL
MODEL      115
REMARK 921   NORMALIZED FREE ENERGY PREDICTED BY IDOCK:   -4.17 KCAL/MOL
REMARK 922        TOTAL FREE ENERGY PREDICTED BY IDOCK:   -5.66 KCAL/MOL
REMARK 923 INTER-LIGAND FREE ENERGY PREDICTED BY IDOCK:   -5.13 KCAL/MOL
REMARK 924 INTRA-LIGAND FREE ENERGY PREDICTED BY IDOCK:   -0.53 KCAL/MOL
REMARK 927      BINDING AFFINITY PREDICTED BY RF-SCORE:    0.00 PKD
ROOT
HETATM    1  N   UNL     1     -13.067  10.888  71.192  1.00  0.00    -0.322 NA 
HETATM    2  C   UNL     1     -11.931  10.126  71.019  1.00  0.00    -0.378 A  
HETATM    3  H2  UNL     1     -13.412  11.503  70.454  1.00  0.00     0.000 HD 
HETATM    4  H1  UNL     1     -13.550  10.811  72.088  1.00  0.00     0.000 HD 
HETATM    5  N   UNL     1     -11.299  10.226  69.846  1.00  0.00    -0.271 NA 
HETATM    6  C   UNL     1     -10.180   9.484  69.809  1.00  0.00    -0.228 A  
HETATM    7  C   UNL     1      -9.675   8.681  70.817  1.00  0.00    -0.194 A  
HETATM    8  N   UNL     1      -8.496   8.088  70.403  1.00  0.00    -0.127 NA 
HETATM    9  C   UNL     1     -10.443   8.598  71.997  1.00  0.00    -0.352 A  
HETATM   10  N   UNL     1     -11.591   9.335  72.047  1.00  0.00    -0.321 NA 
HETATM   11  N   UNL     1      -9.307   9.367  68.765  1.00  0.00    -0.145 NA 
HETATM   12  C   UNL     1      -8.306   8.524  69.170  1.00  0.00    -0.120 A  
ENDROOT
BRANCH   9  13
HETATM   13  N   UNL     1     -10.089   7.813  73.113  1.00  0.00    -0.312 NA 
HETATM   14  H   UNL     1      -9.504   8.189  73.860  1.00  0.00     0.000 HD 
BRANCH  13  15
HETATM   15  C   UNL     1     -10.590   6.438  73.161  1.00  0.00    -0.255 C  
HETATM   16  C   UNL     1     -11.714   6.001  72.259  1.00  0.00    -0.338 C  
HETATM   17  C   UNL     1     -10.337   5.437  72.070  1.00  0.00    -0.268 C  
ENDBRANCH  13  15
ENDBRANCH   9  13
BRANCH  11  18
HETATM   18  C   UNL     1      -9.492  10.002  67.465  1.00  0.00    -0.148 C  
HETATM   19  C   UNL     1      -9.957   9.021  66.370  1.00  0.00    -0.370 C  
HETATM   20  C   UNL     1      -8.819   8.912  65.337  1.00  0.00    -0.234 C  
HETATM   21  C   UNL     1      -8.254  10.610  66.880  1.00  0.00    -0.123 C  
HETATM   22  C   UNL     1      -7.902  10.038  65.725  1.00  0.00    -0.128 C  
BRANCH  20  23
HETATM   23  C   UNL     1      -8.123   7.548  65.371  1.00  0.00    -0.133 C  
HETATM   24  O   UNL     1      -9.068   6.502  65.575  1.00  0.00    -0.367 OA 
HETATM   25  H   UNL     1      -8.637   5.656  65.597  1.00  0.00     0.000 HD 
ENDBRANCH  20  23
ENDBRANCH  11  18
TORSDOF 4
ENDMDL
MODEL      116
REMARK 921   NORMALIZED FREE ENERGY PREDICTED BY IDOCK:   -4.16 KCAL/MOL
REMARK 922        TOTAL FREE ENERGY PREDICTED BY IDOCK:   -5.66 KCAL/MOL
REMARK 923 INTER-LIGAND FREE ENERGY PREDICTED BY IDOCK:   -5.24 KCAL/MOL
REMARK 924 INTRA-LIGAND FREE ENERGY PREDICTED BY IDOCK:   -0.42 KCAL/MOL
REMARK 927      BINDING AFFINITY PREDICTED BY RF-SCORE:    0.00 PKD
ROOT
HETATM    1  N   UNL     1     -13.523  12.351  71.640  1.00  0.00    -0.163 NA 
HETATM    2  C   UNL     1     -12.548  11.431  71.315  1.00  0.00    -0.374 A  
HETATM    3  H2  UNL     1     -13.611  13.232  71.134  1.00  0.00     0.000 HD 
HETATM    4  H1  UNL     1     -14.152  12.114  72.407  1.00  0.00     0.000 HD 
HETATM    5  N   UNL     1     -11.724  11.742  70.311  1.00  0.00    -0.282 NA 
HETATM    6  C   UNL     1     -10.783  10.801  70.118  1.00  0.00     0.013 A  
HETATM    7  C   UNL     1     -10.623   9.622  70.826  1.00  0.00    -0.322 A  
HETATM    8  N   UNL     1      -9.532   8.925  70.338  1.00  0.00    -0.181 NA 
HETATM    9  C   UNL     1     -11.577   9.359  71.830  1.00  0.00    -0.278 A  
HETATM   10  N   UNL     1     -12.547  10.298  72.031  1.00  0.00    -0.315 NA 
HETATM   11  N   UNL     1      -9.790  10.814  69.180  1.00  0.00    -0.201 NA 
HETATM   12  C   UNL     1      -9.058   9.669  69.355  1.00  0.00    -0.188 A  
ENDROOT
BRANCH   9  13
HETATM   13  N   UNL     1     -11.575   8.199  72.631  1.00  0.00    -0.428 NA 
HETATM   14  H   UNL     1     -11.170   8.203  73.568  1.00  0.00     0.000 HD 
BRANCH  13  15
HETATM   15  C   UNL     1     -12.176   6.987  72.070  1.00  0.00    -0.282 C  
HETATM   16  C   UNL     1     -13.571   7.016  71.503  1.00  0.00    -0.355 C  
HETATM   17  C   UNL     1     -12.396   6.789  70.598  1.00  0.00    -0.231 C  
ENDBRANCH  13  15
ENDBRANCH   9  13
BRANCH  11  18
HETATM   18  C   UNL     1      -9.628  11.853  68.171  1.00  0.00    -0.195 C  
HETATM   19  C   UNL     1     -10.559  11.671  66.955  1.00  0.00    -0.276 C  
HETATM   20  C   UNL     1      -9.667  11.369  65.735  1.00  0.00    -0.263 C  
HETATM   21  C   UNL     1      -8.265  11.923  67.554  1.00  0.00    -0.155 C  
HETATM   22  C   UNL     1      -8.287  11.682  66.239  1.00  0.00    -0.027 C  
BRANCH  20  23
HETATM   23  C   UNL     1      -9.803   9.921  65.252  1.00  0.00    -0.303 C  
HETATM   24  O   UNL     1      -9.743   9.853  63.830  1.00  0.00    -0.429 OA 
HETATM   25  H   UNL     1      -9.827   8.956  63.531  1.00  0.00     0.000 HD 
ENDBRANCH  20  23
ENDBRANCH  11  18
TORSDOF 4
ENDMDL
MODEL      117
REMARK 921   NORMALIZED FREE ENERGY PREDICTED BY IDOCK:   -4.16 KCAL/MOL
REMARK 922        TOTAL FREE ENERGY PREDICTED BY IDOCK:   -5.65 KCAL/MOL
REMARK 923 INTER-LIGAND FREE ENERGY PREDICTED BY IDOCK:   -5.16 KCAL/MOL
REMARK 924 INTRA-LIGAND FREE ENERGY PREDICTED BY IDOCK:   -0.50 KCAL/MOL
REMARK 927      BINDING AFFINITY PREDICTED BY RF-SCORE:    0.00 PKD
ROOT
HETATM    1  N   UNL     1     -11.070   5.796  66.222  1.00  0.00    -0.755 NA 
HETATM    2  C   UNL     1     -10.603   6.607  67.235  1.00  0.00    -0.317 A  
HETATM    3  H2  UNL     1     -11.023   4.780  66.291  1.00  0.00     0.000 HD 
HETATM    4  H1  UNL     1     -11.464   6.255  65.400  1.00  0.00     0.000 HD 
HETATM    5  N   UNL     1     -10.087   6.007  68.312  1.00  0.00    -0.151 NA 
HETATM    6  C   UNL     1      -9.617   6.891  69.208  1.00  0.00    -0.149 A  
HETATM    7  C   UNL     1      -9.631   8.272  69.107  1.00  0.00    -0.160 A  
HETATM    8  N   UNL     1      -9.042   8.832  70.226  1.00  0.00    -0.159 NA 
HETATM    9  C   UNL     1     -10.248   8.810  67.959  1.00  0.00    -0.213 A  
HETATM   10  N   UNL     1     -10.743   7.927  67.044  1.00  0.00    -0.306 NA 
HETATM   11  N   UNL     1      -9.026   6.609  70.406  1.00  0.00    -0.152 NA 
HETATM   12  C   UNL     1      -8.690   7.807  70.980  1.00  0.00    -0.136 A  
ENDROOT
BRANCH   9  13
HETATM   13  N   UNL     1     -10.368  10.192  67.706  1.00  0.00    -0.195 NA 
HETATM   14  H   UNL     1      -9.614  10.717  67.263  1.00  0.00     0.000 HD 
BRANCH  13  15
HETATM   15  C   UNL     1     -11.617  10.847  68.103  1.00  0.00    -0.241 C  
HETATM   16  C   UNL     1     -11.938  11.063  69.559  1.00  0.00    -0.413 C  
HETATM   17  C   UNL     1     -11.666  12.238  68.666  1.00  0.00    -0.377 C  
ENDBRANCH  13  15
ENDBRANCH   9  13
BRANCH  11  18
HETATM   18  C   UNL     1      -8.864   5.264  70.945  1.00  0.00    -0.136 C  
HETATM   19  C   UNL     1     -10.205   4.554  71.220  1.00  0.00    -0.167 C  
HETATM   20  C   UNL     1     -10.319   4.361  72.745  1.00  0.00    -0.246 C  
HETATM   21  C   UNL     1      -8.161   5.196  72.266  1.00  0.00    -0.121 C  
HETATM   22  C   UNL     1      -8.936   4.691  73.231  1.00  0.00    -0.112 C  
BRANCH  20  23
HETATM   23  C   UNL     1     -11.393   5.255  73.371  1.00  0.00    -0.175 C  
HETATM   24  O   UNL     1     -12.100   5.977  72.367  1.00  0.00    -0.474 OA 
HETATM   25  H   UNL     1     -12.766   6.532  72.755  1.00  0.00     0.000 HD 
ENDBRANCH  20  23
ENDBRANCH  11  18
TORSDOF 4
ENDMDL
MODEL      118
REMARK 921   NORMALIZED FREE ENERGY PREDICTED BY IDOCK:   -4.12 KCAL/MOL
REMARK 922        TOTAL FREE ENERGY PREDICTED BY IDOCK:   -5.60 KCAL/MOL
REMARK 923 INTER-LIGAND FREE ENERGY PREDICTED BY IDOCK:   -5.70 KCAL/MOL
REMARK 924 INTRA-LIGAND FREE ENERGY PREDICTED BY IDOCK:    0.09 KCAL/MOL
REMARK 927      BINDING AFFINITY PREDICTED BY RF-SCORE:    0.00 PKD
ROOT
HETATM    1  N   UNL     1     -10.512   7.706  71.668  1.00  0.00    -0.197 NA 
HETATM    2  C   UNL     1     -10.953   8.838  71.015  1.00  0.00    -0.268 A  
HETATM    3  H2  UNL     1      -9.897   7.034  71.209  1.00  0.00     0.000 HD 
HETATM    4  H1  UNL     1     -10.825   7.569  72.629  1.00  0.00     0.000 HD 
HETATM    5  N   UNL     1     -10.543   9.018  69.756  1.00  0.00    -0.225 NA 
HETATM    6  C   UNL     1     -11.076  10.121  69.203  1.00  0.00    -0.212 A  
HETATM    7  C   UNL     1     -11.947  11.018  69.798  1.00  0.00    -0.356 A  
HETATM    8  N   UNL     1     -12.281  12.016  68.901  1.00  0.00    -0.197 NA 
HETATM    9  C   UNL     1     -12.276  10.771  71.147  1.00  0.00    -0.352 A  
HETATM   10  N   UNL     1     -11.733   9.662  71.729  1.00  0.00    -0.362 NA 
HETATM   11  N   UNL     1     -10.867  10.586  67.936  1.00  0.00    -0.260 NA 
HETATM   12  C   UNL     1     -11.617  11.723  67.797  1.00  0.00    -0.304 A  
ENDROOT
BRANCH   9  13
HETATM   13  N   UNL     1     -13.130  11.592  71.910  1.00  0.00    -0.455 NA 
HETATM   14  H   UNL     1     -13.663  11.217  72.696  1.00  0.00     0.000 HD 
BRANCH  13  15
HETATM   15  C   UNL     1     -13.226  13.005  71.535  1.00  0.00    -0.272 C  
HETATM   16  C   UNL     1     -13.735  14.025  72.519  1.00  0.00    -0.651 C  
HETATM   17  C   UNL     1     -12.302  14.058  72.076  1.00  0.00    -0.173 C  
ENDBRANCH  13  15
ENDBRANCH   9  13
BRANCH  11  18
HETATM   18  C   UNL     1      -9.956   9.973  66.977  1.00  0.00    -0.205 C  
HETATM   19  C   UNL     1      -8.494   9.934  67.465  1.00  0.00    -0.115 C  
HETATM   20  C   UNL     1      -7.676  10.859  66.543  1.00  0.00    -0.149 C  
HETATM   21  C   UNL     1      -9.861  10.680  65.660  1.00  0.00    -0.307 C  
HETATM   22  C   UNL     1      -8.629  11.140  65.416  1.00  0.00    -0.009 C  
BRANCH  20  23
HETATM   23  C   UNL     1      -7.211  12.134  67.252  1.00  0.00    -0.144 C  
HETATM   24  O   UNL     1      -5.903  12.504  66.826  1.00  0.00    -0.486 OA 
HETATM   25  H   UNL     1      -5.615  13.294  67.265  1.00  0.00     0.000 HD 
ENDBRANCH  20  23
ENDBRANCH  11  18
TORSDOF 4
ENDMDL
MODEL      119
REMARK 921   NORMALIZED FREE ENERGY PREDICTED BY IDOCK:   -4.09 KCAL/MOL
REMARK 922        TOTAL FREE ENERGY PREDICTED BY IDOCK:   -5.57 KCAL/MOL
REMARK 923 INTER-LIGAND FREE ENERGY PREDICTED BY IDOCK:   -6.10 KCAL/MOL
REMARK 924 INTRA-LIGAND FREE ENERGY PREDICTED BY IDOCK:    0.53 KCAL/MOL
REMARK 927      BINDING AFFINITY PREDICTED BY RF-SCORE:    0.00 PKD
ROOT
HETATM    1  N   UNL     1     -12.256  11.607  68.328  1.00  0.00    -0.452 NA 
HETATM    2  C   UNL     1     -11.648  12.834  68.487  1.00  0.00    -0.321 A  
HETATM    3  H2  UNL     1     -12.997  11.296  68.957  1.00  0.00     0.000 HD 
HETATM    4  H1  UNL     1     -11.936  11.023  67.555  1.00  0.00     0.000 HD 
HETATM    5  N   UNL     1     -12.067  13.599  69.499  1.00  0.00    -0.326 NA 
HETATM    6  C   UNL     1     -11.370  14.744  69.591  1.00  0.00    -0.283 A  
HETATM    7  C   UNL     1     -10.332  15.159  68.774  1.00  0.00    -0.236 A  
HETATM    8  N   UNL     1      -9.862  16.389  69.198  1.00  0.00    -0.271 NA 
HETATM    9  C   UNL     1     -10.000  14.307  67.700  1.00  0.00    -0.225 A  
HETATM   10  N   UNL     1     -10.708  13.146  67.584  1.00  0.00    -0.236 NA 
HETATM   11  N   UNL     1     -11.542  15.738  70.512  1.00  0.00    -0.343 NA 
HETATM   12  C   UNL     1     -10.609  16.703  70.241  1.00  0.00     0.113 A  
ENDROOT
BRANCH   9  13
HETATM   13  N   UNL     1      -8.986  14.585  66.762  1.00  0.00    -0.304 NA 
HETATM   14  H   UNL     1      -8.037  14.230  66.888  1.00  0.00     0.000 HD 
BRANCH  13  15
HETATM   15  C   UNL     1      -9.343  15.400  65.598  1.00  0.00    -0.133 C  
HETATM   16  C   UNL     1     -10.761  15.865  65.396  1.00  0.00    -0.415 C  
HETATM   17  C   UNL     1      -9.678  16.860  65.696  1.00  0.00     0.003 C  
ENDBRANCH  13  15
ENDBRANCH   9  13
BRANCH  11  18
HETATM   18  C   UNL     1     -12.583  15.740  71.533  1.00  0.00    -0.455 C  
HETATM   19  C   UNL     1     -12.308  14.750  72.683  1.00  0.00    -0.378 C  
HETATM   20  C   UNL     1     -13.393  13.658  72.619  1.00  0.00    -0.587 C  
HETATM   21  C   UNL     1     -13.941  15.335  71.047  1.00  0.00    -0.368 C  
HETATM   22  C   UNL     1     -14.387  14.226  71.646  1.00  0.00    -0.458 C  
BRANCH  20  23
HETATM   23  C   UNL     1     -12.838  12.303  72.170  1.00  0.00    -0.047 C  
HETATM   24  O   UNL     1     -13.616  11.235  72.701  1.00  0.00    -0.375 OA 
HETATM   25  H   UNL     1     -13.272  10.395  72.423  1.00  0.00     0.000 HD 
ENDBRANCH  20  23
ENDBRANCH  11  18
TORSDOF 4
ENDMDL
MODEL      120
REMARK 921   NORMALIZED FREE ENERGY PREDICTED BY IDOCK:   -4.08 KCAL/MOL
REMARK 922        TOTAL FREE ENERGY PREDICTED BY IDOCK:   -5.55 KCAL/MOL
REMARK 923 INTER-LIGAND FREE ENERGY PREDICTED BY IDOCK:   -5.46 KCAL/MOL
REMARK 924 INTRA-LIGAND FREE ENERGY PREDICTED BY IDOCK:   -0.09 KCAL/MOL
REMARK 927      BINDING AFFINITY PREDICTED BY RF-SCORE:    0.00 PKD
ROOT
HETATM    1  N   UNL     1      -7.222  11.035  69.990  1.00  0.00    -0.426 NA 
HETATM    2  C   UNL     1      -7.929  10.620  68.881  1.00  0.00    -0.132 A  
HETATM    3  H2  UNL     1      -7.161  12.022  70.241  1.00  0.00     0.000 HD 
HETATM    4  H1  UNL     1      -6.764  10.316  70.549  1.00  0.00     0.000 HD 
HETATM    5  N   UNL     1      -8.529  11.562  68.148  1.00  0.00    -0.147 NA 
HETATM    6  C   UNL     1      -9.140  11.050  67.066  1.00  0.00    -0.147 A  
HETATM    7  C   UNL     1      -9.193   9.719  66.688  1.00  0.00    -0.150 A  
HETATM    8  N   UNL     1      -9.903   9.593  65.507  1.00  0.00    -0.313 NA 
HETATM    9  C   UNL     1      -8.577   8.795  67.556  1.00  0.00    -0.127 A  
HETATM   10  N   UNL     1      -7.962   9.296  68.667  1.00  0.00    -0.099 NA 
HETATM   11  N   UNL     1      -9.837  11.739  66.115  1.00  0.00    -0.222 NA 
HETATM   12  C   UNL     1     -10.271  10.823  65.193  1.00  0.00    -0.298 A  
ENDROOT
BRANCH   9  13
HETATM   13  N   UNL     1      -8.554   7.403  67.335  1.00  0.00    -0.118 NA 
HETATM   14  H   UNL     1      -7.790   6.961  66.824  1.00  0.00     0.000 HD 
BRANCH  13  15
HETATM   15  C   UNL     1      -9.669   6.614  67.865  1.00  0.00    -0.122 C  
HETATM   16  C   UNL     1     -11.008   6.624  67.177  1.00  0.00    -0.478 C  
HETATM   17  C   UNL     1     -10.182   5.372  67.195  1.00  0.00    -0.266 C  
ENDBRANCH  13  15
ENDBRANCH   9  13
BRANCH  11  18
HETATM   18  C   UNL     1     -10.087  13.174  66.159  1.00  0.00    -0.291 C  
HETATM   19  C   UNL     1     -10.007  13.762  67.582  1.00  0.00    -0.238 C  
HETATM   20  C   UNL     1     -11.422  14.244  67.959  1.00  0.00    -0.342 C  
HETATM   21  C   UNL     1     -11.447  13.590  65.689  1.00  0.00    -0.330 C  
HETATM   22  C   UNL     1     -12.159  14.185  66.652  1.00  0.00    -0.480 C  
BRANCH  20  23
HETATM   23  C   UNL     1     -12.070  13.375  69.041  1.00  0.00    -0.259 C  
HETATM   24  O   UNL     1     -11.085  12.626  69.747  1.00  0.00    -0.471 OA 
HETATM   25  H   UNL     1     -11.486  12.087  70.418  1.00  0.00     0.000 HD 
ENDBRANCH  20  23
ENDBRANCH  11  18
TORSDOF 4
ENDMDL
MODEL      121
REMARK 921   NORMALIZED FREE ENERGY PREDICTED BY IDOCK:   -4.07 KCAL/MOL
REMARK 922        TOTAL FREE ENERGY PREDICTED BY IDOCK:   -5.54 KCAL/MOL
REMARK 923 INTER-LIGAND FREE ENERGY PREDICTED BY IDOCK:   -5.42 KCAL/MOL
REMARK 924 INTRA-LIGAND FREE ENERGY PREDICTED BY IDOCK:   -0.13 KCAL/MOL
REMARK 927      BINDING AFFINITY PREDICTED BY RF-SCORE:    0.00 PKD
ROOT
HETATM    1  N   UNL     1     -10.069  17.404  67.309  1.00  0.00    -0.300 NA 
HETATM    2  C   UNL     1     -10.609  16.265  67.867  1.00  0.00    -0.318 A  
HETATM    3  H2  UNL     1      -9.358  17.351  66.579  1.00  0.00     0.000 HD 
HETATM    4  H1  UNL     1     -10.409  18.301  67.655  1.00  0.00     0.000 HD 
HETATM    5  N   UNL     1     -10.163  15.089  67.414  1.00  0.00    -0.234 NA 
HETATM    6  C   UNL     1     -10.717  14.052  68.066  1.00  0.00    -0.246 A  
HETATM    7  C   UNL     1     -11.648  14.109  69.089  1.00  0.00    -0.307 A  
HETATM    8  N   UNL     1     -11.965  12.829  69.509  1.00  0.00    -0.301 NA 
HETATM    9  C   UNL     1     -12.097  15.393  69.458  1.00  0.00    -0.305 A  
HETATM   10  N   UNL     1     -11.555  16.458  68.798  1.00  0.00    -0.245 NA 
HETATM   11  N   UNL     1     -10.476  12.725  67.851  1.00  0.00    -0.215 NA 
HETATM   12  C   UNL     1     -11.243  12.028  68.747  1.00  0.00    -0.263 A  
ENDROOT
BRANCH   9  13
HETATM   13  N   UNL     1     -13.055  15.632  70.465  1.00  0.00    -0.725 NA 
HETATM   14  H   UNL     1     -14.043  15.424  70.315  1.00  0.00     0.000 HD 
BRANCH  13  15
HETATM   15  C   UNL     1     -12.582  16.189  71.733  1.00  0.00    -0.186 C  
HETATM   16  C   UNL     1     -13.249  15.814  73.030  1.00  0.00    -0.671 C  
HETATM   17  C   UNL     1     -11.839  15.378  72.756  1.00  0.00    -0.563 C  
ENDBRANCH  13  15
ENDBRANCH   9  13
BRANCH  11  18
HETATM   18  C   UNL     1      -9.599  12.209  66.807  1.00  0.00    -0.211 C  
HETATM   19  C   UNL     1      -9.175  10.744  67.039  1.00  0.00    -0.166 C  
HETATM   20  C   UNL     1      -7.655  10.742  67.299  1.00  0.00    -0.102 C  
HETATM   21  C   UNL     1      -8.293  12.929  66.670  1.00  0.00     0.130 C  
HETATM   22  C   UNL     1      -7.245  12.135  66.915  1.00  0.00    -0.002 C  
BRANCH  20  23
HETATM   23  C   UNL     1      -7.309  10.406  68.752  1.00  0.00    -0.089 C  
HETATM   24  O   UNL     1      -6.605  11.481  69.367  1.00  0.00    -0.096 OA 
HETATM   25  H   UNL     1      -6.390  11.272  70.268  1.00  0.00     0.000 HD 
ENDBRANCH  20  23
ENDBRANCH  11  18
TORSDOF 4
ENDMDL
MODEL      122
REMARK 921   NORMALIZED FREE ENERGY PREDICTED BY IDOCK:   -4.07 KCAL/MOL
REMARK 922        TOTAL FREE ENERGY PREDICTED BY IDOCK:   -5.53 KCAL/MOL
REMARK 923 INTER-LIGAND FREE ENERGY PREDICTED BY IDOCK:   -5.05 KCAL/MOL
REMARK 924 INTRA-LIGAND FREE ENERGY PREDICTED BY IDOCK:   -0.49 KCAL/MOL
REMARK 927      BINDING AFFINITY PREDICTED BY RF-SCORE:    0.00 PKD
ROOT
HETATM    1  N   UNL     1      -8.481   8.324  74.564  1.00  0.00    -0.373 NA 
HETATM    2  C   UNL     1      -9.285   7.938  73.512  1.00  0.00    -0.276 A  
HETATM    3  H2  UNL     1      -7.821   9.096  74.472  1.00  0.00     0.000 HD 
HETATM    4  H1  UNL     1      -8.575   7.806  75.438  1.00  0.00     0.000 HD 
HETATM    5  N   UNL     1      -9.163   8.616  72.367  1.00  0.00    -0.346 NA 
HETATM    6  C   UNL     1      -9.952   8.121  71.399  1.00  0.00    -0.180 A  
HETATM    7  C   UNL     1     -10.820   7.047  71.494  1.00  0.00    -0.230 A  
HETATM    8  N   UNL     1     -11.445   6.836  70.279  1.00  0.00    -0.350 NA 
HETATM    9  C   UNL     1     -10.918   6.432  72.760  1.00  0.00    -0.257 A  
HETATM   10  N   UNL     1     -10.134   6.930  73.759  1.00  0.00    -0.305 NA 
HETATM   11  N   UNL     1     -10.062   8.579  70.116  1.00  0.00    -0.187 NA 
HETATM   12  C   UNL     1     -10.966   7.771  69.478  1.00  0.00    -0.084 A  
ENDROOT
BRANCH   9  13
HETATM   13  N   UNL     1     -11.766   5.340  73.039  1.00  0.00    -0.504 NA 
HETATM   14  H   UNL     1     -12.720   5.306  72.679  1.00  0.00     0.000 HD 
BRANCH  13  15
HETATM   15  C   UNL     1     -11.227   4.257  73.864  1.00  0.00    -0.109 C  
HETATM   16  C   UNL     1     -11.449   2.818  73.479  1.00  0.00    -0.218 C  
HETATM   17  C   UNL     1     -10.068   3.403  73.438  1.00  0.00    -0.192 C  
ENDBRANCH  13  15
ENDBRANCH   9  13
BRANCH  11  18
HETATM   18  C   UNL     1      -9.365   9.750  69.600  1.00  0.00    -0.219 C  
HETATM   19  C   UNL     1     -10.066  10.388  68.384  1.00  0.00    -0.181 C  
HETATM   20  C   UNL     1      -9.136  10.206  67.168  1.00  0.00    -0.149 C  
HETATM   21  C   UNL     1      -7.978   9.486  69.098  1.00  0.00    -0.094 C  
HETATM   22  C   UNL     1      -7.848   9.750  67.795  1.00  0.00    -0.094 C  
BRANCH  20  23
HETATM   23  C   UNL     1      -9.686   9.199  66.154  1.00  0.00    -0.287 C  
HETATM   24  O   UNL     1      -9.949   9.831  64.905  1.00  0.00    -0.412 OA 
HETATM   25  H   UNL     1     -10.290   9.207  64.275  1.00  0.00     0.000 HD 
ENDBRANCH  20  23
ENDBRANCH  11  18
TORSDOF 4
ENDMDL
MODEL      123
REMARK 921   NORMALIZED FREE ENERGY PREDICTED BY IDOCK:   -4.04 KCAL/MOL
REMARK 922        TOTAL FREE ENERGY PREDICTED BY IDOCK:   -5.50 KCAL/MOL
REMARK 923 INTER-LIGAND FREE ENERGY PREDICTED BY IDOCK:   -4.92 KCAL/MOL
REMARK 924 INTRA-LIGAND FREE ENERGY PREDICTED BY IDOCK:   -0.58 KCAL/MOL
REMARK 927      BINDING AFFINITY PREDICTED BY RF-SCORE:    0.00 PKD
ROOT
HETATM    1  N   UNL     1      -6.452  10.237  69.256  1.00  0.00    -0.046 NA 
HETATM    2  C   UNL     1      -7.337   9.180  69.300  1.00  0.00    -0.070 A  
HETATM    3  H2  UNL     1      -6.626  11.097  69.776  1.00  0.00     0.000 HD 
HETATM    4  H1  UNL     1      -5.616  10.123  68.683  1.00  0.00     0.000 HD 
HETATM    5  N   UNL     1      -8.432   9.329  70.051  1.00  0.00    -0.156 NA 
HETATM    6  C   UNL     1      -9.246   8.262  69.976  1.00  0.00    -0.151 A  
HETATM    7  C   UNL     1      -9.046   7.107  69.240  1.00  0.00    -0.137 A  
HETATM    8  N   UNL     1     -10.115   6.247  69.412  1.00  0.00    -0.168 NA 
HETATM    9  C   UNL     1      -7.834   7.023  68.524  1.00  0.00    -0.122 A  
HETATM   10  N   UNL     1      -6.988   8.092  68.599  1.00  0.00    -0.069 NA 
HETATM   11  N   UNL     1     -10.442   8.097  70.615  1.00  0.00    -0.207 NA 
HETATM   12  C   UNL     1     -10.932   6.874  70.240  1.00  0.00    -0.281 A  
ENDROOT
BRANCH   9  13
HETATM   13  N   UNL     1      -7.460   5.912  67.740  1.00  0.00    -0.077 NA 
HETATM   14  H   UNL     1      -7.886   5.740  66.829  1.00  0.00     0.000 HD 
BRANCH  13  15
HETATM   15  C   UNL     1      -6.437   5.014  68.281  1.00  0.00    -0.037 C  
HETATM   16  C   UNL     1      -6.778   4.034  69.372  1.00  0.00    -0.041 C  
HETATM   17  C   UNL     1      -6.415   3.539  68.004  1.00  0.00    -0.037 C  
ENDBRANCH  13  15
ENDBRANCH   9  13
BRANCH  11  18
HETATM   18  C   UNL     1     -11.010   9.056  71.554  1.00  0.00    -0.348 C  
HETATM   19  C   UNL     1     -12.007   8.420  72.544  1.00  0.00    -0.418 C  
HETATM   20  C   UNL     1     -13.399   9.006  72.235  1.00  0.00    -0.523 C  
HETATM   21  C   UNL     1     -11.805  10.158  70.924  1.00  0.00    -0.468 C  
HETATM   22  C   UNL     1     -13.086  10.145  71.306  1.00  0.00    -0.490 C  
BRANCH  20  23
HETATM   23  C   UNL     1     -14.344   7.977  71.608  1.00  0.00    -0.473 C  
HETATM   24  O   UNL     1     -14.230   6.718  72.265  1.00  0.00    -0.600 OA 
HETATM   25  H   UNL     1     -14.816   6.080  71.877  1.00  0.00     0.000 HD 
ENDBRANCH  20  23
ENDBRANCH  11  18
TORSDOF 4
ENDMDL
MODEL      124
REMARK 921   NORMALIZED FREE ENERGY PREDICTED BY IDOCK:   -4.03 KCAL/MOL
REMARK 922        TOTAL FREE ENERGY PREDICTED BY IDOCK:   -5.49 KCAL/MOL
REMARK 923 INTER-LIGAND FREE ENERGY PREDICTED BY IDOCK:   -4.98 KCAL/MOL
REMARK 924 INTRA-LIGAND FREE ENERGY PREDICTED BY IDOCK:   -0.51 KCAL/MOL
REMARK 927      BINDING AFFINITY PREDICTED BY RF-SCORE:    0.00 PKD
ROOT
HETATM    1  N   UNL     1      -9.413  12.147  66.359  1.00  0.00    -0.230 NA 
HETATM    2  C   UNL     1     -10.071  11.732  67.498  1.00  0.00    -0.192 A  
HETATM    3  H2  UNL     1      -8.911  11.486  65.766  1.00  0.00     0.000 HD 
HETATM    4  H1  UNL     1      -9.450  13.141  66.133  1.00  0.00     0.000 HD 
HETATM    5  N   UNL     1     -10.023  10.430  67.793  1.00  0.00    -0.171 NA 
HETATM    6  C   UNL     1     -10.650  10.149  68.949  1.00  0.00    -0.215 A  
HETATM    7  C   UNL     1     -11.296  11.041  69.787  1.00  0.00    -0.292 A  
HETATM    8  N   UNL     1     -11.805  10.371  70.885  1.00  0.00    -0.359 NA 
HETATM    9  C   UNL     1     -11.340  12.384  69.360  1.00  0.00    -0.220 A  
HETATM   10  N   UNL     1     -10.720  12.685  68.182  1.00  0.00    -0.217 NA 
HETATM   11  N   UNL     1     -10.779   8.922  69.535  1.00  0.00    -0.224 NA 
HETATM   12  C   UNL     1     -11.474   9.106  70.701  1.00  0.00    -0.262 A  
ENDROOT
BRANCH   9  13
HETATM   13  N   UNL     1     -11.974  13.418  70.079  1.00  0.00    -0.369 NA 
HETATM   14  H   UNL     1     -12.991  13.466  70.152  1.00  0.00     0.000 HD 
BRANCH  13  15
HETATM   15  C   UNL     1     -11.120  14.420  70.720  1.00  0.00     0.275 C  
HETATM   16  C   UNL     1     -10.883  15.755  70.064  1.00  0.00    -0.348 C  
HETATM   17  C   UNL     1     -11.660  15.675  71.344  1.00  0.00    -0.499 C  
ENDBRANCH  13  15
ENDBRANCH   9  13
BRANCH  11  18
HETATM   18  C   UNL     1     -10.295   7.678  68.950  1.00  0.00    -0.212 C  
HETATM   19  C   UNL     1     -11.183   6.463  69.285  1.00  0.00    -0.440 C  
HETATM   20  C   UNL     1     -10.350   5.516  70.171  1.00  0.00    -0.354 C  
HETATM   21  C   UNL     1      -8.937   7.251  69.414  1.00  0.00    -0.139 C  
HETATM   22  C   UNL     1      -8.962   6.078  70.054  1.00  0.00    -0.149 C  
BRANCH  20  23
HETATM   23  C   UNL     1     -10.849   5.476  71.619  1.00  0.00    -0.204 C  
HETATM   24  O   UNL     1     -10.006   4.657  72.423  1.00  0.00    -0.160 OA 
HETATM   25  H   UNL     1     -10.314   4.632  73.321  1.00  0.00     0.000 HD 
ENDBRANCH  20  23
ENDBRANCH  11  18
TORSDOF 4
ENDMDL
MODEL      125
REMARK 921   NORMALIZED FREE ENERGY PREDICTED BY IDOCK:   -3.94 KCAL/MOL
REMARK 922        TOTAL FREE ENERGY PREDICTED BY IDOCK:   -5.38 KCAL/MOL
REMARK 923 INTER-LIGAND FREE ENERGY PREDICTED BY IDOCK:   -4.86 KCAL/MOL
REMARK 924 INTRA-LIGAND FREE ENERGY PREDICTED BY IDOCK:   -0.52 KCAL/MOL
REMARK 927      BINDING AFFINITY PREDICTED BY RF-SCORE:    0.00 PKD
ROOT
HETATM    1  N   UNL     1      -6.863   4.814  67.245  1.00  0.00    -0.055 NA 
HETATM    2  C   UNL     1      -7.763   5.858  67.249  1.00  0.00    -0.101 A  
HETATM    3  H2  UNL     1      -6.693   4.257  68.083  1.00  0.00     0.000 HD 
HETATM    4  H1  UNL     1      -6.374   4.621  66.371  1.00  0.00     0.000 HD 
HETATM    5  N   UNL     1      -8.404   6.112  68.394  1.00  0.00    -0.114 NA 
HETATM    6  C   UNL     1      -9.213   7.180  68.296  1.00  0.00    -0.132 A  
HETATM    7  C   UNL     1      -9.419   7.974  67.180  1.00  0.00    -0.162 A  
HETATM    8  N   UNL     1     -10.313   8.985  67.479  1.00  0.00    -0.248 NA 
HETATM    9  C   UNL     1      -8.739   7.592  66.005  1.00  0.00    -0.158 A  
HETATM   10  N   UNL     1      -7.923   6.500  66.082  1.00  0.00    -0.105 NA 
HETATM   11  N   UNL     1     -10.001   7.705  69.279  1.00  0.00    -0.176 NA 
HETATM   12  C   UNL     1     -10.639   8.794  68.745  1.00  0.00    -0.145 A  
ENDROOT
BRANCH   9  13
HETATM   13  N   UNL     1      -8.850   8.274  64.776  1.00  0.00    -0.405 NA 
HETATM   14  H   UNL     1      -9.165   7.795  63.932  1.00  0.00     0.000 HD 
BRANCH  13  15
HETATM   15  C   UNL     1      -8.496   9.695  64.755  1.00  0.00    -0.159 C  
HETATM   16  C   UNL     1      -8.415  10.444  63.450  1.00  0.00    -0.174 C  
HETATM   17  C   UNL     1      -9.487  10.779  64.445  1.00  0.00    -0.300 C  
ENDBRANCH  13  15
ENDBRANCH   9  13
BRANCH  11  18
HETATM   18  C   UNL     1     -10.140   7.133  70.613  1.00  0.00    -0.191 C  
HETATM   19  C   UNL     1     -11.604   7.044  71.087  1.00  0.00    -0.351 C  
HETATM   20  C   UNL     1     -11.760   8.006  72.281  1.00  0.00    -0.428 C  
HETATM   21  C   UNL     1      -9.471   7.912  71.704  1.00  0.00    -0.194 C  
HETATM   22  C   UNL     1     -10.339   8.365  72.613  1.00  0.00    -0.314 C  
BRANCH  20  23
HETATM   23  C   UNL     1     -12.613   9.232  71.940  1.00  0.00    -0.390 C  
HETATM   24  O   UNL     1     -13.628   8.897  70.999  1.00  0.00    -0.556 OA 
HETATM   25  H   UNL     1     -14.157   9.656  70.787  1.00  0.00     0.000 HD 
ENDBRANCH  20  23
ENDBRANCH  11  18
TORSDOF 4
ENDMDL
MODEL      126
REMARK 921   NORMALIZED FREE ENERGY PREDICTED BY IDOCK:   -3.92 KCAL/MOL
REMARK 922        TOTAL FREE ENERGY PREDICTED BY IDOCK:   -5.35 KCAL/MOL
REMARK 923 INTER-LIGAND FREE ENERGY PREDICTED BY IDOCK:   -5.42 KCAL/MOL
REMARK 924 INTRA-LIGAND FREE ENERGY PREDICTED BY IDOCK:    0.07 KCAL/MOL
REMARK 927      BINDING AFFINITY PREDICTED BY RF-SCORE:    0.00 PKD
ROOT
HETATM    1  N   UNL     1     -12.499  14.835  67.683  1.00  0.00    -0.362 NA 
HETATM    2  C   UNL     1     -11.147  14.997  67.902  1.00  0.00    -0.307 A  
HETATM    3  H2  UNL     1     -13.147  15.618  67.764  1.00  0.00     0.000 HD 
HETATM    4  H1  UNL     1     -12.823  13.900  67.436  1.00  0.00     0.000 HD 
HETATM    5  N   UNL     1     -10.721  16.222  68.224  1.00  0.00    -0.307 NA 
HETATM    6  C   UNL     1      -9.400  16.251  68.467  1.00  0.00    -0.213 A  
HETATM    7  C   UNL     1      -8.514  15.189  68.406  1.00  0.00    -0.157 A  
HETATM    8  N   UNL     1      -7.241  15.616  68.737  1.00  0.00    -0.125 NA 
HETATM    9  C   UNL     1      -9.051  13.948  68.002  1.00  0.00    -0.192 A  
HETATM   10  N   UNL     1     -10.389  13.903  67.739  1.00  0.00    -0.237 NA 
HETATM   11  N   UNL     1      -8.655  17.339  68.823  1.00  0.00    -0.261 NA 
HETATM   12  C   UNL     1      -7.364  16.908  68.982  1.00  0.00    -0.231 A  
ENDROOT
BRANCH   9  13
HETATM   13  N   UNL     1      -8.289  12.769  67.868  1.00  0.00    -0.160 NA 
HETATM   14  H   UNL     1      -7.275  12.779  67.981  1.00  0.00     0.000 HD 
BRANCH  13  15
HETATM   15  C   UNL     1      -9.007  11.530  67.560  1.00  0.00    -0.159 C  
HETATM   16  C   UNL     1      -8.505  10.207  68.075  1.00  0.00    -0.118 C  
HETATM   17  C   UNL     1      -9.800  10.769  68.583  1.00  0.00    -0.187 C  
ENDBRANCH  13  15
ENDBRANCH   9  13
BRANCH  11  18
HETATM   18  C   UNL     1      -9.183  18.693  68.940  1.00  0.00    -0.216 C  
HETATM   19  C   UNL     1     -10.468  18.918  68.118  1.00  0.00    -0.387 C  
HETATM   20  C   UNL     1     -10.131  19.930  67.006  1.00  0.00    -0.578 C  
HETATM   21  C   UNL     1      -8.266  19.771  68.448  1.00  0.00    -0.296 C  
HETATM   22  C   UNL     1      -8.784  20.450  67.420  1.00  0.00    -0.415 C  
BRANCH  20  23
HETATM   23  C   UNL     1     -10.113  19.290  65.614  1.00  0.00     0.023 C  
HETATM   24  O   UNL     1     -10.680  17.984  65.650  1.00  0.00    -0.533 OA 
HETATM   25  H   UNL     1     -10.668  17.586  64.788  1.00  0.00     0.000 HD 
ENDBRANCH  20  23
ENDBRANCH  11  18
TORSDOF 4
ENDMDL
MODEL      127
REMARK 921   NORMALIZED FREE ENERGY PREDICTED BY IDOCK:   -3.92 KCAL/MOL
REMARK 922        TOTAL FREE ENERGY PREDICTED BY IDOCK:   -5.35 KCAL/MOL
REMARK 923 INTER-LIGAND FREE ENERGY PREDICTED BY IDOCK:   -4.70 KCAL/MOL
REMARK 924 INTRA-LIGAND FREE ENERGY PREDICTED BY IDOCK:   -0.65 KCAL/MOL
REMARK 927      BINDING AFFINITY PREDICTED BY RF-SCORE:    0.00 PKD
ROOT
HETATM    1  N   UNL     1      -6.654   5.710  72.856  1.00  0.00    -0.069 NA 
HETATM    2  C   UNL     1      -7.604   5.807  71.862  1.00  0.00    -0.097 A  
HETATM    3  H2  UNL     1      -6.638   6.361  73.641  1.00  0.00     0.000 HD 
HETATM    4  H1  UNL     1      -5.967   4.960  72.775  1.00  0.00     0.000 HD 
HETATM    5  N   UNL     1      -8.503   6.790  71.968  1.00  0.00    -0.112 NA 
HETATM    6  C   UNL     1      -9.344   6.822  70.920  1.00  0.00    -0.157 A  
HETATM    7  C   UNL     1      -9.349   5.975  69.825  1.00  0.00    -0.149 A  
HETATM    8  N   UNL     1     -10.359   6.338  68.953  1.00  0.00    -0.183 NA 
HETATM    9  C   UNL     1      -8.396   4.935  69.833  1.00  0.00    -0.079 A  
HETATM   10  N   UNL     1      -7.542   4.879  70.896  1.00  0.00    -0.072 NA 
HETATM   11  N   UNL     1     -10.370   7.701  70.718  1.00  0.00    -0.202 NA 
HETATM   12  C   UNL     1     -10.947   7.376  69.519  1.00  0.00    -0.139 A  
ENDROOT
BRANCH   9  13
HETATM   13  N   UNL     1      -8.275   3.973  68.810  1.00  0.00    -0.074 NA 
HETATM   14  H   UNL     1      -8.758   3.076  68.868  1.00  0.00     0.000 HD 
BRANCH  13  15
HETATM   15  C   UNL     1      -7.429   4.306  67.662  1.00  0.00    -0.069 C  
HETATM   16  C   UNL     1      -7.715   3.718  66.305  1.00  0.00    -0.089 C  
HETATM   17  C   UNL     1      -7.888   5.189  66.538  1.00  0.00    -0.103 C  
ENDBRANCH  13  15
ENDBRANCH   9  13
BRANCH  11  18
HETATM   18  C   UNL     1     -10.765   8.734  71.668  1.00  0.00    -0.327 C  
HETATM   19  C   UNL     1     -11.828   8.257  72.678  1.00  0.00    -0.382 C  
HETATM   20  C   UNL     1     -13.118   9.052  72.397  1.00  0.00    -0.487 C  
HETATM   21  C   UNL     1     -11.393   9.947  71.053  1.00  0.00    -0.460 C  
HETATM   22  C   UNL     1     -12.653  10.130  71.460  1.00  0.00    -0.537 C  
BRANCH  20  23
HETATM   23  C   UNL     1     -14.223   8.182  71.790  1.00  0.00    -0.462 C  
HETATM   24  O   UNL     1     -13.916   6.798  71.937  1.00  0.00    -0.447 OA 
HETATM   25  H   UNL     1     -14.601   6.259  71.561  1.00  0.00     0.000 HD 
ENDBRANCH  20  23
ENDBRANCH  11  18
TORSDOF 4
ENDMDL
MODEL      128
REMARK 921   NORMALIZED FREE ENERGY PREDICTED BY IDOCK:   -3.91 KCAL/MOL
REMARK 922        TOTAL FREE ENERGY PREDICTED BY IDOCK:   -5.34 KCAL/MOL
REMARK 923 INTER-LIGAND FREE ENERGY PREDICTED BY IDOCK:   -4.71 KCAL/MOL
REMARK 924 INTRA-LIGAND FREE ENERGY PREDICTED BY IDOCK:   -0.63 KCAL/MOL
REMARK 927      BINDING AFFINITY PREDICTED BY RF-SCORE:    0.00 PKD
ROOT
HETATM    1  N   UNL     1      -5.441   7.919  68.343  1.00  0.00    -0.031 NA 
HETATM    2  C   UNL     1      -6.705   8.184  67.860  1.00  0.00    -0.065 A  
HETATM    3  H2  UNL     1      -5.183   8.144  69.304  1.00  0.00     0.000 HD 
HETATM    4  H1  UNL     1      -4.776   7.489  67.702  1.00  0.00     0.000 HD 
HETATM    5  N   UNL     1      -7.577   8.748  68.701  1.00  0.00    -0.095 NA 
HETATM    6  C   UNL     1      -8.755   9.010  68.108  1.00  0.00    -0.130 A  
HETATM    7  C   UNL     1      -9.105   8.753  66.794  1.00  0.00    -0.146 A  
HETATM    8  N   UNL     1     -10.400   9.179  66.559  1.00  0.00    -0.241 NA 
HETATM    9  C   UNL     1      -8.135   8.105  66.002  1.00  0.00    -0.112 A  
HETATM   10  N   UNL     1      -6.937   7.820  66.591  1.00  0.00    -0.070 NA 
HETATM   11  N   UNL     1      -9.853   9.584  68.683  1.00  0.00    -0.158 NA 
HETATM   12  C   UNL     1     -10.815   9.672  67.712  1.00  0.00    -0.217 A  
ENDROOT
BRANCH   9  13
HETATM   13  N   UNL     1      -8.332   7.751  64.651  1.00  0.00    -0.344 NA 
HETATM   14  H   UNL     1      -8.804   6.883  64.395  1.00  0.00     0.000 HD 
BRANCH  13  15
HETATM   15  C   UNL     1      -7.835   8.674  63.629  1.00  0.00    -0.148 C  
HETATM   16  C   UNL     1      -8.769   9.244  62.593  1.00  0.00    -0.225 C  
HETATM   17  C   UNL     1      -8.155  10.141  63.627  1.00  0.00    -0.163 C  
ENDBRANCH  13  15
ENDBRANCH   9  13
BRANCH  11  18
HETATM   18  C   UNL     1      -9.942   9.959  70.089  1.00  0.00    -0.238 C  
HETATM   19  C   UNL     1      -9.964   8.746  71.042  1.00  0.00    -0.297 C  
HETATM   20  C   UNL     1     -11.349   8.718  71.717  1.00  0.00    -0.409 C  
HETATM   21  C   UNL     1     -11.181  10.713  70.462  1.00  0.00    -0.270 C  
HETATM   22  C   UNL     1     -11.929  10.055  71.354  1.00  0.00    -0.470 C  
BRANCH  20  23
HETATM   23  C   UNL     1     -12.214   7.550  71.235  1.00  0.00    -0.329 C  
HETATM   24  O   UNL     1     -11.906   7.215  69.885  1.00  0.00    -0.552 OA 
HETATM   25  H   UNL     1     -12.443   6.491  69.586  1.00  0.00     0.000 HD 
ENDBRANCH  20  23
ENDBRANCH  11  18
TORSDOF 4
ENDMDL
MODEL      129
REMARK 921   NORMALIZED FREE ENERGY PREDICTED BY IDOCK:   -3.90 KCAL/MOL
REMARK 922        TOTAL FREE ENERGY PREDICTED BY IDOCK:   -5.33 KCAL/MOL
REMARK 923 INTER-LIGAND FREE ENERGY PREDICTED BY IDOCK:   -4.80 KCAL/MOL
REMARK 924 INTRA-LIGAND FREE ENERGY PREDICTED BY IDOCK:   -0.54 KCAL/MOL
REMARK 927      BINDING AFFINITY PREDICTED BY RF-SCORE:    0.00 PKD
ROOT
HETATM    1  N   UNL     1      -7.786   8.795  64.824  1.00  0.00    -0.107 NA 
HETATM    2  C   UNL     1      -8.757   9.234  65.698  1.00  0.00    -0.166 A  
HETATM    3  H2  UNL     1      -7.321   7.897  64.954  1.00  0.00     0.000 HD 
HETATM    4  H1  UNL     1      -7.551   9.406  64.041  1.00  0.00     0.000 HD 
HETATM    5  N   UNL     1      -9.065   8.434  66.724  1.00  0.00    -0.149 NA 
HETATM    6  C   UNL     1      -9.981   8.984  67.538  1.00  0.00    -0.207 A  
HETATM    7  C   UNL     1     -10.587  10.222  67.400  1.00  0.00    -0.270 A  
HETATM    8  N   UNL     1     -11.464  10.436  68.448  1.00  0.00    -0.265 NA 
HETATM    9  C   UNL     1     -10.237  10.967  66.256  1.00  0.00    -0.247 A  
HETATM   10  N   UNL     1      -9.317  10.418  65.410  1.00  0.00    -0.188 NA 
HETATM   11  N   UNL     1     -10.506   8.435  68.673  1.00  0.00    -0.196 NA 
HETATM   12  C   UNL     1     -11.388   9.346  69.191  1.00  0.00     0.194 A  
ENDROOT
BRANCH   9  13
HETATM   13  N   UNL     1     -10.772  12.235  65.949  1.00  0.00    -0.251 NA 
HETATM   14  H   UNL     1     -11.393  12.368  65.150  1.00  0.00     0.000 HD 
BRANCH  13  15
HETATM   15  C   UNL     1     -10.406  13.354  66.819  1.00  0.00    -0.263 C  
HETATM   16  C   UNL     1      -9.073  13.373  67.521  1.00  0.00    -0.215 C  
HETATM   17  C   UNL     1      -9.371  14.375  66.445  1.00  0.00    -0.284 C  
ENDBRANCH  13  15
ENDBRANCH   9  13
BRANCH  11  18
HETATM   18  C   UNL     1     -10.189   7.097  69.159  1.00  0.00    -0.194 C  
HETATM   19  C   UNL     1     -11.395   6.382  69.802  1.00  0.00    -0.494 C  
HETATM   20  C   UNL     1     -11.080   6.207  71.301  1.00  0.00    -0.351 C  
HETATM   21  C   UNL     1      -9.147   7.049  70.234  1.00  0.00    -0.156 C  
HETATM   22  C   UNL     1      -9.620   6.551  71.381  1.00  0.00    -0.174 C  
BRANCH  20  23
HETATM   23  C   UNL     1     -11.947   7.103  72.191  1.00  0.00    -0.266 C  
HETATM   24  O   UNL     1     -11.171   7.679  73.237  1.00  0.00    -0.550 OA 
HETATM   25  H   UNL     1     -11.707   8.235  73.790  1.00  0.00     0.000 HD 
ENDBRANCH  20  23
ENDBRANCH  11  18
TORSDOF 4
ENDMDL
MODEL      130
REMARK 921   NORMALIZED FREE ENERGY PREDICTED BY IDOCK:   -3.90 KCAL/MOL
REMARK 922        TOTAL FREE ENERGY PREDICTED BY IDOCK:   -5.33 KCAL/MOL
REMARK 923 INTER-LIGAND FREE ENERGY PREDICTED BY IDOCK:   -4.94 KCAL/MOL
REMARK 924 INTRA-LIGAND FREE ENERGY PREDICTED BY IDOCK:   -0.39 KCAL/MOL
REMARK 927      BINDING AFFINITY PREDICTED BY RF-SCORE:    0.00 PKD
ROOT
HETATM    1  N   UNL     1      -5.639   6.777  68.471  1.00  0.00    -0.016 NA 
HETATM    2  C   UNL     1      -6.986   6.576  68.252  1.00  0.00    -0.080 A  
HETATM    3  H2  UNL     1      -5.272   6.937  69.409  1.00  0.00     0.000 HD 
HETATM    4  H1  UNL     1      -5.025   6.760  67.657  1.00  0.00     0.000 HD 
HETATM    5  N   UNL     1      -7.790   6.599  69.319  1.00  0.00    -0.108 NA 
HETATM    6  C   UNL     1      -9.082   6.447  68.982  1.00  0.00    -0.130 A  
HETATM    7  C   UNL     1      -9.600   6.276  67.709  1.00  0.00    -0.117 A  
HETATM    8  N   UNL     1     -10.978   6.168  67.772  1.00  0.00    -0.331 NA 
HETATM    9  C   UNL     1      -8.665   6.210  66.656  1.00  0.00    -0.124 A  
HETATM   10  N   UNL     1      -7.347   6.349  66.981  1.00  0.00    -0.081 NA 
HETATM   11  N   UNL     1     -10.154   6.428  69.828  1.00  0.00    -0.171 NA 
HETATM   12  C   UNL     1     -11.273   6.266  69.056  1.00  0.00    -0.343 A  
ENDROOT
BRANCH   9  13
HETATM   13  N   UNL     1      -9.017   6.019  65.304  1.00  0.00    -0.367 NA 
HETATM   14  H   UNL     1      -9.012   6.795  64.641  1.00  0.00     0.000 HD 
BRANCH  13  15
HETATM   15  C   UNL     1      -9.390   4.667  64.884  1.00  0.00    -0.123 C  
HETATM   16  C   UNL     1      -8.778   4.052  63.653  1.00  0.00    -0.107 C  
HETATM   17  C   UNL     1      -8.467   3.489  65.008  1.00  0.00    -0.101 C  
ENDBRANCH  13  15
ENDBRANCH   9  13
BRANCH  11  18
HETATM   18  C   UNL     1     -10.055   6.511  71.280  1.00  0.00    -0.186 C  
HETATM   19  C   UNL     1     -11.405   6.303  71.995  1.00  0.00    -0.348 C  
HETATM   20  C   UNL     1     -11.775   7.636  72.676  1.00  0.00    -0.323 C  
HETATM   21  C   UNL     1      -9.588   7.835  71.804  1.00  0.00    -0.204 C  
HETATM   22  C   UNL     1     -10.504   8.432  72.571  1.00  0.00    -0.372 C  
BRANCH  20  23
HETATM   23  C   UNL     1     -12.962   8.331  72.001  1.00  0.00    -0.330 C  
HETATM   24  O   UNL     1     -13.924   8.742  72.968  1.00  0.00    -0.976 OA 
HETATM   25  H   UNL     1     -14.660   9.172  72.550  1.00  0.00     0.000 HD 
ENDBRANCH  20  23
ENDBRANCH  11  18
TORSDOF 4
ENDMDL
MODEL      131
REMARK 921   NORMALIZED FREE ENERGY PREDICTED BY IDOCK:   -3.88 KCAL/MOL
REMARK 922        TOTAL FREE ENERGY PREDICTED BY IDOCK:   -5.30 KCAL/MOL
REMARK 923 INTER-LIGAND FREE ENERGY PREDICTED BY IDOCK:   -4.72 KCAL/MOL
REMARK 924 INTRA-LIGAND FREE ENERGY PREDICTED BY IDOCK:   -0.58 KCAL/MOL
REMARK 927      BINDING AFFINITY PREDICTED BY RF-SCORE:    0.00 PKD
ROOT
HETATM    1  N   UNL     1     -10.442   4.037  65.420  1.00  0.00    -0.480 NA 
HETATM    2  C   UNL     1      -9.844   5.000  66.205  1.00  0.00    -0.198 A  
HETATM    3  H2  UNL     1     -11.151   3.408  65.798  1.00  0.00     0.000 HD 
HETATM    4  H1  UNL     1     -10.148   3.979  64.445  1.00  0.00     0.000 HD 
HETATM    5  N   UNL     1     -10.229   5.075  67.482  1.00  0.00    -0.157 NA 
HETATM    6  C   UNL     1      -9.544   6.009  68.163  1.00  0.00    -0.118 A  
HETATM    7  C   UNL     1      -8.548   6.838  67.675  1.00  0.00    -0.121 A  
HETATM    8  N   UNL     1      -8.076   7.654  68.687  1.00  0.00    -0.126 NA 
HETATM    9  C   UNL     1      -8.252   6.720  66.301  1.00  0.00    -0.120 A  
HETATM   10  N   UNL     1      -8.948   5.786  65.591  1.00  0.00    -0.145 NA 
HETATM   11  N   UNL     1      -9.689   6.335  69.482  1.00  0.00    -0.145 NA 
HETATM   12  C   UNL     1      -8.781   7.323  69.754  1.00  0.00    -0.142 A  
ENDROOT
BRANCH   9  13
HETATM   13  N   UNL     1      -7.283   7.499  65.637  1.00  0.00    -0.064 NA 
HETATM   14  H   UNL     1      -6.336   7.149  65.485  1.00  0.00     0.000 HD 
BRANCH  13  15
HETATM   15  C   UNL     1      -7.683   8.829  65.172  1.00  0.00    -0.103 C  
HETATM   16  C   UNL     1      -8.535   8.984  63.940  1.00  0.00    -0.171 C  
HETATM   17  C   UNL     1      -9.089   9.345  65.286  1.00  0.00    -0.287 C  
ENDBRANCH  13  15
ENDBRANCH   9  13
BRANCH  11  18
HETATM   18  C   UNL     1     -10.684   5.744  70.368  1.00  0.00    -0.302 C  
HETATM   19  C   UNL     1     -11.978   6.576  70.470  1.00  0.00    -0.322 C  
HETATM   20  C   UNL     1     -12.072   7.104  71.916  1.00  0.00    -0.357 C  
HETATM   21  C   UNL     1     -10.251   5.603  71.795  1.00  0.00    -0.253 C  
HETATM   22  C   UNL     1     -11.010   6.318  72.631  1.00  0.00    -0.285 C  
BRANCH  20  23
HETATM   23  C   UNL     1     -11.847   8.616  72.005  1.00  0.00    -0.372 C  
HETATM   24  O   UNL     1     -12.670   9.307  71.070  1.00  0.00    -0.458 OA 
HETATM   25  H   UNL     1     -12.530  10.244  71.126  1.00  0.00     0.000 HD 
ENDBRANCH  20  23
ENDBRANCH  11  18
TORSDOF 4
ENDMDL
MODEL      132
REMARK 921   NORMALIZED FREE ENERGY PREDICTED BY IDOCK:   -3.84 KCAL/MOL
REMARK 922        TOTAL FREE ENERGY PREDICTED BY IDOCK:   -5.25 KCAL/MOL
REMARK 923 INTER-LIGAND FREE ENERGY PREDICTED BY IDOCK:   -4.66 KCAL/MOL
REMARK 924 INTRA-LIGAND FREE ENERGY PREDICTED BY IDOCK:   -0.60 KCAL/MOL
REMARK 927      BINDING AFFINITY PREDICTED BY RF-SCORE:    0.00 PKD
ROOT
HETATM    1  N   UNL     1      -8.414   8.125  74.339  1.00  0.00    -0.409 NA 
HETATM    2  C   UNL     1      -9.094   8.217  73.143  1.00  0.00    -0.265 A  
HETATM    3  H2  UNL     1      -7.447   8.436  74.425  1.00  0.00     0.000 HD 
HETATM    4  H1  UNL     1      -8.919   7.734  75.135  1.00  0.00     0.000 HD 
HETATM    5  N   UNL     1      -8.434   8.729  72.100  1.00  0.00    -0.385 NA 
HETATM    6  C   UNL     1      -9.173   8.719  70.978  1.00  0.00    -0.222 A  
HETATM    7  C   UNL     1     -10.471   8.258  70.836  1.00  0.00    -0.196 A  
HETATM    8  N   UNL     1     -10.882   8.405  69.523  1.00  0.00    -0.173 NA 
HETATM    9  C   UNL     1     -11.101   7.788  72.006  1.00  0.00    -0.269 A  
HETATM   10  N   UNL     1     -10.370   7.803  73.158  1.00  0.00    -0.340 NA 
HETATM   11  N   UNL     1      -8.796   9.165  69.743  1.00  0.00    -0.149 NA 
HETATM   12  C   UNL     1      -9.852   8.949  68.899  1.00  0.00    -0.177 A  
ENDROOT
BRANCH   9  13
HETATM   13  N   UNL     1     -12.424   7.303  72.046  1.00  0.00    -0.452 NA 
HETATM   14  H   UNL     1     -12.623   6.324  72.252  1.00  0.00     0.000 HD 
BRANCH  13  15
HETATM   15  C   UNL     1     -13.504   8.256  71.780  1.00  0.00    -0.352 C  
HETATM   16  C   UNL     1     -14.269   8.883  72.916  1.00  0.00     0.033 C  
HETATM   17  C   UNL     1     -13.381   9.728  72.051  1.00  0.00    -0.547 C  
ENDBRANCH  13  15
ENDBRANCH   9  13
BRANCH  11  18
HETATM   18  C   UNL     1      -7.514   9.796  69.455  1.00  0.00    -0.099 C  
HETATM   19  C   UNL     1      -7.627  11.312  69.196  1.00  0.00    -0.070 C  
HETATM   20  C   UNL     1      -7.250  11.556  67.722  1.00  0.00    -0.094 C  
HETATM   21  C   UNL     1      -6.825   9.287  68.226  1.00  0.00    -0.064 C  
HETATM   22  C   UNL     1      -6.664  10.238  67.301  1.00  0.00    -0.073 C  
BRANCH  20  23
HETATM   23  C   UNL     1      -8.454  11.964  66.867  1.00  0.00    -0.174 C  
HETATM   24  O   UNL     1      -9.507  12.467  67.684  1.00  0.00    -0.180 OA 
HETATM   25  H   UNL     1     -10.254  12.720  67.155  1.00  0.00     0.000 HD 
ENDBRANCH  20  23
ENDBRANCH  11  18
TORSDOF 4
ENDMDL
MODEL      133
REMARK 921   NORMALIZED FREE ENERGY PREDICTED BY IDOCK:   -3.80 KCAL/MOL
REMARK 922        TOTAL FREE ENERGY PREDICTED BY IDOCK:   -5.21 KCAL/MOL
REMARK 923 INTER-LIGAND FREE ENERGY PREDICTED BY IDOCK:   -4.64 KCAL/MOL
REMARK 924 INTRA-LIGAND FREE ENERGY PREDICTED BY IDOCK:   -0.56 KCAL/MOL
REMARK 927      BINDING AFFINITY PREDICTED BY RF-SCORE:    0.00 PKD
ROOT
HETATM    1  N   UNL     1     -11.442   4.618  65.149  1.00  0.00    -1.107 NA 
HETATM    2  C   UNL     1     -10.446   4.816  66.081  1.00  0.00    -0.290 A  
HETATM    3  H2  UNL     1     -12.350   5.074  65.238  1.00  0.00     0.000 HD 
HETATM    4  H1  UNL     1     -11.234   3.998  64.366  1.00  0.00     0.000 HD 
HETATM    5  N   UNL     1     -10.718   5.628  67.107  1.00  0.00    -0.265 NA 
HETATM    6  C   UNL     1      -9.698   5.703  67.978  1.00  0.00    -0.126 A  
HETATM    7  C   UNL     1      -8.477   5.055  67.895  1.00  0.00    -0.104 A  
HETATM    8  N   UNL     1      -7.697   5.376  68.991  1.00  0.00    -0.088 NA 
HETATM    9  C   UNL     1      -8.265   4.264  66.747  1.00  0.00    -0.101 A  
HETATM   10  N   UNL     1      -9.285   4.187  65.844  1.00  0.00    -0.139 NA 
HETATM   11  N   UNL     1      -9.654   6.437  69.129  1.00  0.00    -0.136 NA 
HETATM   12  C   UNL     1      -8.435   6.204  69.708  1.00  0.00    -0.128 A  
ENDROOT
BRANCH   9  13
HETATM   13  N   UNL     1      -7.074   3.553  66.491  1.00  0.00    -0.062 NA 
HETATM   14  H   UNL     1      -6.629   2.990  67.216  1.00  0.00     0.000 HD 
BRANCH  13  15
HETATM   15  C   UNL     1      -6.499   3.653  65.148  1.00  0.00    -0.035 C  
HETATM   16  C   UNL     1      -5.135   3.087  64.856  1.00  0.00    -0.008 C  
HETATM   17  C   UNL     1      -6.353   2.472  64.232  1.00  0.00    -0.019 C  
ENDBRANCH  13  15
ENDBRANCH   9  13
BRANCH  11  18
HETATM   18  C   UNL     1     -10.717   7.330  69.574  1.00  0.00    -0.232 C  
HETATM   19  C   UNL     1     -10.202   8.525  70.401  1.00  0.00    -0.215 C  
HETATM   20  C   UNL     1     -10.742   8.358  71.835  1.00  0.00    -0.373 C  
HETATM   21  C   UNL     1     -11.733   6.698  70.476  1.00  0.00    -0.453 C  
HETATM   22  C   UNL     1     -11.761   7.264  71.687  1.00  0.00    -0.316 C  
BRANCH  20  23
HETATM   23  C   UNL     1      -9.641   8.005  72.840  1.00  0.00    -0.279 C  
HETATM   24  O   UNL     1      -9.841   6.699  73.373  1.00  0.00    -0.168 OA 
HETATM   25  H   UNL     1      -9.159   6.480  73.995  1.00  0.00     0.000 HD 
ENDBRANCH  20  23
ENDBRANCH  11  18
TORSDOF 4
ENDMDL
MODEL      134
REMARK 921   NORMALIZED FREE ENERGY PREDICTED BY IDOCK:   -3.79 KCAL/MOL
REMARK 922        TOTAL FREE ENERGY PREDICTED BY IDOCK:   -5.19 KCAL/MOL
REMARK 923 INTER-LIGAND FREE ENERGY PREDICTED BY IDOCK:   -4.70 KCAL/MOL
REMARK 924 INTRA-LIGAND FREE ENERGY PREDICTED BY IDOCK:   -0.49 KCAL/MOL
REMARK 927      BINDING AFFINITY PREDICTED BY RF-SCORE:    0.00 PKD
ROOT
HETATM    1  N   UNL     1      -5.893  10.080  68.477  1.00  0.00    -0.042 NA 
HETATM    2  C   UNL     1      -7.208  10.097  68.892  1.00  0.00    -0.079 A  
HETATM    3  H2  UNL     1      -5.192   9.515  68.956  1.00  0.00     0.000 HD 
HETATM    4  H1  UNL     1      -5.650  10.655  67.670  1.00  0.00     0.000 HD 
HETATM    5  N   UNL     1      -7.527   9.343  69.949  1.00  0.00    -0.086 NA 
HETATM    6  C   UNL     1      -8.818   9.479  70.297  1.00  0.00    -0.243 A  
HETATM    7  C   UNL     1      -9.769  10.276  69.685  1.00  0.00    -0.185 A  
HETATM    8  N   UNL     1     -10.980  10.156  70.343  1.00  0.00    -0.307 NA 
HETATM    9  C   UNL     1      -9.349  10.991  68.544  1.00  0.00    -0.188 A  
HETATM   10  N   UNL     1      -8.044  10.855  68.168  1.00  0.00    -0.114 NA 
HETATM   11  N   UNL     1      -9.459   8.855  71.329  1.00  0.00    -0.250 NA 
HETATM   12  C   UNL     1     -10.755   9.298  71.323  1.00  0.00    -0.352 A  
ENDROOT
BRANCH   9  13
HETATM   13  N   UNL     1     -10.191  11.832  67.789  1.00  0.00    -0.188 NA 
HETATM   14  H   UNL     1     -10.254  12.832  67.984  1.00  0.00     0.000 HD 
BRANCH  13  15
HETATM   15  C   UNL     1     -10.974  11.220  66.713  1.00  0.00    -0.281 C  
HETATM   16  C   UNL     1     -10.736  11.608  65.277  1.00  0.00    -0.346 C  
HETATM   17  C   UNL     1     -10.397  10.225  65.748  1.00  0.00    -0.236 C  
ENDBRANCH  13  15
ENDBRANCH   9  13
BRANCH  11  18
HETATM   18  C   UNL     1      -8.839   7.867  72.203  1.00  0.00    -0.146 C  
HETATM   19  C   UNL     1      -9.132   6.413  71.782  1.00  0.00    -0.143 C  
HETATM   20  C   UNL     1      -9.994   5.778  72.891  1.00  0.00    -0.194 C  
HETATM   21  C   UNL     1      -9.298   7.912  73.628  1.00  0.00    -0.288 C  
HETATM   22  C   UNL     1      -9.901   6.781  74.006  1.00  0.00    -0.334 C  
BRANCH  20  23
HETATM   23  C   UNL     1     -11.437   5.527  72.443  1.00  0.00    -0.204 C  
HETATM   24  O   UNL     1     -12.240   6.686  72.647  1.00  0.00    -0.494 OA 
HETATM   25  H   UNL     1     -13.134   6.531  72.369  1.00  0.00     0.000 HD 
ENDBRANCH  20  23
ENDBRANCH  11  18
TORSDOF 4
ENDMDL
MODEL      135
REMARK 921   NORMALIZED FREE ENERGY PREDICTED BY IDOCK:   -3.78 KCAL/MOL
REMARK 922        TOTAL FREE ENERGY PREDICTED BY IDOCK:   -5.18 KCAL/MOL
REMARK 923 INTER-LIGAND FREE ENERGY PREDICTED BY IDOCK:   -4.51 KCAL/MOL
REMARK 924 INTRA-LIGAND FREE ENERGY PREDICTED BY IDOCK:   -0.67 KCAL/MOL
REMARK 927      BINDING AFFINITY PREDICTED BY RF-SCORE:    0.00 PKD
ROOT
HETATM    1  N   UNL     1     -10.918   5.249  65.713  1.00  0.00    -0.743 NA 
HETATM    2  C   UNL     1     -10.432   4.853  66.941  1.00  0.00    -0.144 A  
HETATM    3  H2  UNL     1     -11.481   6.094  65.612  1.00  0.00     0.000 HD 
HETATM    4  H1  UNL     1     -10.691   4.663  64.909  1.00  0.00     0.000 HD 
HETATM    5  N   UNL     1     -10.729   5.620  67.994  1.00  0.00    -0.195 NA 
HETATM    6  C   UNL     1     -10.251   5.111  69.142  1.00  0.00    -0.189 A  
HETATM    7  C   UNL     1      -9.525   3.943  69.301  1.00  0.00    -0.186 A  
HETATM    8  N   UNL     1      -9.227   3.751  70.638  1.00  0.00    -0.116 NA 
HETATM    9  C   UNL     1      -9.216   3.232  68.123  1.00  0.00    -0.191 A  
HETATM   10  N   UNL     1      -9.682   3.742  66.946  1.00  0.00    -0.180 NA 
HETATM   11  N   UNL     1     -10.383   5.644  70.393  1.00  0.00    -0.240 NA 
HETATM   12  C   UNL     1      -9.758   4.788  71.262  1.00  0.00    -0.178 A  
ENDROOT
BRANCH   9  13
HETATM   13  N   UNL     1      -8.469   2.036  68.100  1.00  0.00    -0.063 NA 
HETATM   14  H   UNL     1      -8.926   1.126  68.163  1.00  0.00     0.000 HD 
BRANCH  13  15
HETATM   15  C   UNL     1      -7.014   2.148  67.983  1.00  0.00    -0.043 C  
HETATM   16  C   UNL     1      -6.337   3.489  68.096  1.00  0.00    -0.036 C  
HETATM   17  C   UNL     1      -6.120   2.445  69.152  1.00  0.00    -0.025 C  
ENDBRANCH  13  15
ENDBRANCH   9  13
BRANCH  11  18
HETATM   18  C   UNL     1     -11.029   6.919  70.679  1.00  0.00    -0.264 C  
HETATM   19  C   UNL     1     -10.033   8.088  70.818  1.00  0.00    -0.202 C  
HETATM   20  C   UNL     1     -10.088   8.566  72.283  1.00  0.00    -0.386 C  
HETATM   21  C   UNL     1     -11.794   6.962  71.966  1.00  0.00    -0.345 C  
HETATM   22  C   UNL     1     -11.301   7.862  72.822  1.00  0.00    -0.453 C  
BRANCH  20  23
HETATM   23  C   UNL     1      -8.814   8.223  73.061  1.00  0.00    -0.232 C  
HETATM   24  O   UNL     1      -7.787   7.776  72.180  1.00  0.00    -0.094 OA 
HETATM   25  H   UNL     1      -6.998   7.563  72.662  1.00  0.00     0.000 HD 
ENDBRANCH  20  23
ENDBRANCH  11  18
TORSDOF 4
ENDMDL
MODEL      136
REMARK 921   NORMALIZED FREE ENERGY PREDICTED BY IDOCK:   -3.77 KCAL/MOL
REMARK 922        TOTAL FREE ENERGY PREDICTED BY IDOCK:   -5.17 KCAL/MOL
REMARK 923 INTER-LIGAND FREE ENERGY PREDICTED BY IDOCK:   -4.88 KCAL/MOL
REMARK 924 INTRA-LIGAND FREE ENERGY PREDICTED BY IDOCK:   -0.29 KCAL/MOL
REMARK 927      BINDING AFFINITY PREDICTED BY RF-SCORE:    0.00 PKD
ROOT
HETATM    1  N   UNL     1     -11.912  10.923  67.848  1.00  0.00    -0.735 NA 
HETATM    2  C   UNL     1     -10.824  10.564  68.616  1.00  0.00    -0.237 A  
HETATM    3  H2  UNL     1     -12.858  10.641  68.104  1.00  0.00     0.000 HD 
HETATM    4  H1  UNL     1     -11.732  11.482  67.014  1.00  0.00     0.000 HD 
HETATM    5  N   UNL     1     -11.060   9.832  69.708  1.00  0.00    -0.244 NA 
HETATM    6  C   UNL     1      -9.926   9.496  70.347  1.00  0.00    -0.267 A  
HETATM    7  C   UNL     1      -8.632   9.832  69.987  1.00  0.00    -0.204 A  
HETATM    8  N   UNL     1      -7.735   9.288  70.889  1.00  0.00    -0.232 NA 
HETATM    9  C   UNL     1      -8.491  10.654  68.850  1.00  0.00    -0.154 A  
HETATM   10  N   UNL     1      -9.633  11.016  68.196  1.00  0.00    -0.165 NA 
HETATM   11  N   UNL     1      -9.816   8.752  71.488  1.00  0.00    -0.273 NA 
HETATM   12  C   UNL     1      -8.480   8.647  71.772  1.00  0.00    -0.155 A  
ENDROOT
BRANCH   9  13
HETATM   13  N   UNL     1      -7.251  11.106  68.356  1.00  0.00    -0.078 NA 
HETATM   14  H   UNL     1      -6.801  11.938  68.738  1.00  0.00     0.000 HD 
BRANCH  13  15
HETATM   15  C   UNL     1      -6.631  10.338  67.274  1.00  0.00    -0.068 C  
HETATM   16  C   UNL     1      -6.255   8.894  67.478  1.00  0.00    -0.052 C  
HETATM   17  C   UNL     1      -7.352   9.257  66.521  1.00  0.00    -0.092 C  
ENDBRANCH  13  15
ENDBRANCH   9  13
BRANCH  11  18
HETATM   18  C   UNL     1     -10.951   8.243  72.248  1.00  0.00    -0.348 C  
HETATM   19  C   UNL     1     -10.536   7.435  73.494  1.00  0.00    -0.396 C  
HETATM   20  C   UNL     1     -10.973   5.975  73.261  1.00  0.00    -0.244 C  
HETATM   21  C   UNL     1     -11.834   7.292  71.499  1.00  0.00    -0.335 C  
HETATM   22  C   UNL     1     -11.862   6.078  72.055  1.00  0.00    -0.284 C  
BRANCH  20  23
HETATM   23  C   UNL     1      -9.784   5.035  73.038  1.00  0.00    -0.146 C  
HETATM   24  O   UNL     1     -10.205   3.826  72.414  1.00  0.00    -0.169 OA 
HETATM   25  H   UNL     1      -9.468   3.243  72.276  1.00  0.00     0.000 HD 
ENDBRANCH  20  23
ENDBRANCH  11  18
TORSDOF 4
ENDMDL
MODEL      137
REMARK 921   NORMALIZED FREE ENERGY PREDICTED BY IDOCK:   -3.73 KCAL/MOL
REMARK 922        TOTAL FREE ENERGY PREDICTED BY IDOCK:   -5.12 KCAL/MOL
REMARK 923 INTER-LIGAND FREE ENERGY PREDICTED BY IDOCK:   -4.76 KCAL/MOL
REMARK 924 INTRA-LIGAND FREE ENERGY PREDICTED BY IDOCK:   -0.36 KCAL/MOL
REMARK 927      BINDING AFFINITY PREDICTED BY RF-SCORE:    0.00 PKD
ROOT
HETATM    1  N   UNL     1     -11.297   6.072  66.402  1.00  0.00    -0.657 NA 
HETATM    2  C   UNL     1     -10.723   6.949  67.298  1.00  0.00    -0.351 A  
HETATM    3  H2  UNL     1     -11.687   6.397  65.517  1.00  0.00     0.000 HD 
HETATM    4  H1  UNL     1     -11.316   5.086  66.660  1.00  0.00     0.000 HD 
HETATM    5  N   UNL     1     -10.698   8.242  66.960  1.00  0.00    -0.254 NA 
HETATM    6  C   UNL     1     -10.166   9.008  67.927  1.00  0.00    -0.221 A  
HETATM    7  C   UNL     1      -9.676   8.588  69.152  1.00  0.00    -0.170 A  
HETATM    8  N   UNL     1      -9.225   9.676  69.878  1.00  0.00    -0.215 NA 
HETATM    9  C   UNL     1      -9.695   7.198  69.392  1.00  0.00    -0.160 A  
HETATM   10  N   UNL     1     -10.220   6.403  68.414  1.00  0.00    -0.160 NA 
HETATM   11  N   UNL     1      -9.999  10.363  67.902  1.00  0.00    -0.163 NA 
HETATM   12  C   UNL     1      -9.437  10.721  69.099  1.00  0.00    -0.134 A  
ENDROOT
BRANCH   9  13
HETATM   13  N   UNL     1      -9.217   6.598  70.575  1.00  0.00    -0.155 NA 
HETATM   14  H   UNL     1      -9.658   6.782  71.477  1.00  0.00     0.000 HD 
BRANCH  13  15
HETATM   15  C   UNL     1      -8.065   5.701  70.462  1.00  0.00    -0.105 C  
HETATM   16  C   UNL     1      -7.299   5.598  69.169  1.00  0.00    -0.078 C  
HETATM   17  C   UNL     1      -6.649   6.194  70.383  1.00  0.00    -0.048 C  
ENDBRANCH  13  15
ENDBRANCH   9  13
BRANCH  11  18
HETATM   18  C   UNL     1     -10.325  11.209  66.760  1.00  0.00    -0.241 C  
HETATM   19  C   UNL     1      -9.481  12.498  66.698  1.00  0.00    -0.242 C  
HETATM   20  C   UNL     1     -10.440  13.685  66.920  1.00  0.00    -0.272 C  
HETATM   21  C   UNL     1     -11.734  11.717  66.736  1.00  0.00    -0.197 C  
HETATM   22  C   UNL     1     -11.796  13.050  66.801  1.00  0.00    -0.451 C  
BRANCH  20  23
HETATM   23  C   UNL     1     -10.225  14.368  68.274  1.00  0.00    -0.241 C  
HETATM   24  O   UNL     1     -11.408  14.306  69.066  1.00  0.00    -0.243 OA 
HETATM   25  H   UNL     1     -11.276  14.729  69.905  1.00  0.00     0.000 HD 
ENDBRANCH  20  23
ENDBRANCH  11  18
TORSDOF 4
ENDMDL
MODEL      138
REMARK 921   NORMALIZED FREE ENERGY PREDICTED BY IDOCK:   -3.73 KCAL/MOL
REMARK 922        TOTAL FREE ENERGY PREDICTED BY IDOCK:   -5.12 KCAL/MOL
REMARK 923 INTER-LIGAND FREE ENERGY PREDICTED BY IDOCK:   -4.58 KCAL/MOL
REMARK 924 INTRA-LIGAND FREE ENERGY PREDICTED BY IDOCK:   -0.54 KCAL/MOL
REMARK 927      BINDING AFFINITY PREDICTED BY RF-SCORE:    0.00 PKD
ROOT
HETATM    1  N   UNL     1      -6.350   4.293  69.026  1.00  0.00    -0.031 NA 
HETATM    2  C   UNL     1      -7.544   4.749  68.508  1.00  0.00    -0.073 A  
HETATM    3  H2  UNL     1      -5.821   4.843  69.704  1.00  0.00     0.000 HD 
HETATM    4  H1  UNL     1      -6.017   3.384  68.706  1.00  0.00     0.000 HD 
HETATM    5  N   UNL     1      -7.980   5.940  68.928  1.00  0.00    -0.101 NA 
HETATM    6  C   UNL     1      -9.120   6.306  68.318  1.00  0.00    -0.113 A  
HETATM    7  C   UNL     1      -9.824   5.592  67.364  1.00  0.00    -0.148 A  
HETATM    8  N   UNL     1     -10.940   6.307  66.967  1.00  0.00    -0.375 NA 
HETATM    9  C   UNL     1      -9.313   4.321  67.027  1.00  0.00    -0.167 A  
HETATM   10  N   UNL     1      -8.163   3.927  67.647  1.00  0.00    -0.093 NA 
HETATM   11  N   UNL     1      -9.821   7.461  68.515  1.00  0.00    -0.155 NA 
HETATM   12  C   UNL     1     -10.904   7.422  67.676  1.00  0.00    -0.149 A  
ENDROOT
BRANCH   9  13
HETATM   13  N   UNL     1      -9.914   3.454  66.092  1.00  0.00    -0.386 NA 
HETATM   14  H   UNL     1     -10.533   2.700  66.391  1.00  0.00     0.000 HD 
BRANCH  13  15
HETATM   15  C   UNL     1      -9.619   3.676  64.675  1.00  0.00    -0.172 C  
HETATM   16  C   UNL     1      -9.598   2.521  63.708  1.00  0.00    -0.119 C  
HETATM   17  C   UNL     1     -10.660   3.575  63.597  1.00  0.00    -0.275 C  
ENDBRANCH  13  15
ENDBRANCH   9  13
BRANCH  11  18
HETATM   18  C   UNL     1      -9.465   8.481  69.493  1.00  0.00    -0.165 C  
HETATM   19  C   UNL     1     -10.066   8.222  70.889  1.00  0.00    -0.224 C  
HETATM   20  C   UNL     1     -11.079   9.349  71.170  1.00  0.00    -0.432 C  
HETATM   21  C   UNL     1      -9.941   9.862  69.164  1.00  0.00    -0.205 C  
HETATM   22  C   UNL     1     -10.794  10.339  70.076  1.00  0.00    -0.364 C  
BRANCH  20  23
HETATM   23  C   UNL     1     -12.528   8.854  71.153  1.00  0.00    -0.214 C  
HETATM   24  O   UNL     1     -13.402   9.859  70.649  1.00  0.00    -0.617 OA 
HETATM   25  H   UNL     1     -14.300   9.552  70.638  1.00  0.00     0.000 HD 
ENDBRANCH  20  23
ENDBRANCH  11  18
TORSDOF 4
ENDMDL
MODEL      139
REMARK 921   NORMALIZED FREE ENERGY PREDICTED BY IDOCK:   -3.72 KCAL/MOL
REMARK 922        TOTAL FREE ENERGY PREDICTED BY IDOCK:   -5.11 KCAL/MOL
REMARK 923 INTER-LIGAND FREE ENERGY PREDICTED BY IDOCK:   -5.08 KCAL/MOL
REMARK 924 INTRA-LIGAND FREE ENERGY PREDICTED BY IDOCK:   -0.03 KCAL/MOL
REMARK 927      BINDING AFFINITY PREDICTED BY RF-SCORE:    0.00 PKD
ROOT
HETATM    1  N   UNL     1      -8.508   3.464  69.214  1.00  0.00    -0.060 NA 
HETATM    2  C   UNL     1      -9.499   4.383  69.488  1.00  0.00    -0.181 A  
HETATM    3  H2  UNL     1      -8.100   2.888  69.951  1.00  0.00     0.000 HD 
HETATM    4  H1  UNL     1      -8.199   3.384  68.245  1.00  0.00     0.000 HD 
HETATM    5  N   UNL     1      -9.903   4.488  70.757  1.00  0.00    -0.203 NA 
HETATM    6  C   UNL     1     -10.829   5.448  70.916  1.00  0.00    -0.120 A  
HETATM    7  C   UNL     1     -11.359   6.270  69.935  1.00  0.00    -0.434 A  
HETATM    8  N   UNL     1     -12.277   7.140  70.494  1.00  0.00    -0.194 NA 
HETATM    9  C   UNL     1     -10.909   6.043  68.618  1.00  0.00    -0.307 A  
HETATM   10  N   UNL     1      -9.977   5.063  68.436  1.00  0.00    -0.155 NA 
HETATM   11  N   UNL     1     -11.443   5.813  72.081  1.00  0.00    -0.268 NA 
HETATM   12  C   UNL     1     -12.299   6.838  71.780  1.00  0.00    -0.356 A  
ENDROOT
BRANCH   9  13
HETATM   13  N   UNL     1     -11.357   6.773  67.498  1.00  0.00    -0.707 NA 
HETATM   14  H   UNL     1     -12.318   6.690  67.163  1.00  0.00     0.000 HD 
BRANCH  13  15
HETATM   15  C   UNL     1     -10.395   7.654  66.833  1.00  0.00    -0.318 C  
HETATM   16  C   UNL     1     -10.500   9.150  66.978  1.00  0.00    -0.311 C  
HETATM   17  C   UNL     1      -9.336   8.416  67.576  1.00  0.00    -0.172 C  
ENDBRANCH  13  15
ENDBRANCH   9  13
BRANCH  11  18
HETATM   18  C   UNL     1     -11.226   5.154  73.363  1.00  0.00    -0.290 C  
HETATM   19  C   UNL     1     -10.042   5.744  74.157  1.00  0.00    -0.264 C  
HETATM   20  C   UNL     1      -8.957   4.653  74.242  1.00  0.00    -0.108 C  
HETATM   21  C   UNL     1     -10.888   3.698  73.273  1.00  0.00    -0.290 C  
HETATM   22  C   UNL     1      -9.676   3.424  73.765  1.00  0.00    -0.141 C  
BRANCH  20  23
HETATM   23  C   UNL     1      -7.726   4.983  73.393  1.00  0.00    -0.096 C  
HETATM   24  O   UNL     1      -7.894   6.225  72.717  1.00  0.00    -0.104 OA 
HETATM   25  H   UNL     1      -7.131   6.429  72.190  1.00  0.00     0.000 HD 
ENDBRANCH  20  23
ENDBRANCH  11  18
TORSDOF 4
ENDMDL
MODEL      140
REMARK 921   NORMALIZED FREE ENERGY PREDICTED BY IDOCK:   -3.72 KCAL/MOL
REMARK 922        TOTAL FREE ENERGY PREDICTED BY IDOCK:   -5.11 KCAL/MOL
REMARK 923 INTER-LIGAND FREE ENERGY PREDICTED BY IDOCK:   -4.50 KCAL/MOL
REMARK 924 INTRA-LIGAND FREE ENERGY PREDICTED BY IDOCK:   -0.61 KCAL/MOL
REMARK 927      BINDING AFFINITY PREDICTED BY RF-SCORE:    0.00 PKD
ROOT
HETATM    1  N   UNL     1      -8.906   4.509  71.380  1.00  0.00    -0.120 NA 
HETATM    2  C   UNL     1      -9.441   5.590  70.712  1.00  0.00    -0.166 A  
HETATM    3  H2  UNL     1      -7.952   4.193  71.201  1.00  0.00     0.000 HD 
HETATM    4  H1  UNL     1      -9.502   4.038  72.061  1.00  0.00     0.000 HD 
HETATM    5  N   UNL     1      -8.660   6.207  69.820  1.00  0.00    -0.131 NA 
HETATM    6  C   UNL     1      -9.301   7.208  69.193  1.00  0.00    -0.141 A  
HETATM    7  C   UNL     1     -10.608   7.619  69.392  1.00  0.00    -0.215 A  
HETATM    8  N   UNL     1     -10.904   8.673  68.546  1.00  0.00    -0.029 NA 
HETATM    9  C   UNL     1     -11.332   6.941  70.394  1.00  0.00    -0.328 A  
HETATM   10  N   UNL     1     -10.693   5.930  71.050  1.00  0.00    -0.256 NA 
HETATM   11  N   UNL     1      -8.792   8.030  68.227  1.00  0.00    -0.133 NA 
HETATM   12  C   UNL     1      -9.795   8.890  67.863  1.00  0.00    -0.169 A  
ENDROOT
BRANCH   9  13
HETATM   13  N   UNL     1     -12.665   7.243  70.740  1.00  0.00    -0.604 NA 
HETATM   14  H   UNL     1     -13.447   6.916  70.172  1.00  0.00     0.000 HD 
BRANCH  13  15
HETATM   15  C   UNL     1     -12.887   8.044  71.946  1.00  0.00    -0.320 C  
HETATM   16  C   UNL     1     -13.125   9.528  71.846  1.00  0.00    -0.517 C  
HETATM   17  C   UNL     1     -14.225   8.620  72.310  1.00  0.00    -0.497 C  
ENDBRANCH  13  15
ENDBRANCH   9  13
BRANCH  11  18
HETATM   18  C   UNL     1      -7.414   7.988  67.756  1.00  0.00    -0.094 C  
HETATM   19  C   UNL     1      -6.852   9.377  67.393  1.00  0.00    -0.080 C  
HETATM   20  C   UNL     1      -6.601   9.388  65.872  1.00  0.00    -0.076 C  
HETATM   21  C   UNL     1      -7.201   7.192  66.505  1.00  0.00    -0.079 C  
HETATM   22  C   UNL     1      -6.744   7.941  65.496  1.00  0.00    -0.045 C  
BRANCH  20  23
HETATM   23  C   UNL     1      -7.583  10.292  65.121  1.00  0.00    -0.133 C  
HETATM   24  O   UNL     1      -7.974  11.398  65.929  1.00  0.00    -0.365 OA 
HETATM   25  H   UNL     1      -8.582  11.958  65.464  1.00  0.00     0.000 HD 
ENDBRANCH  20  23
ENDBRANCH  11  18
TORSDOF 4
ENDMDL
MODEL      141
REMARK 921   NORMALIZED FREE ENERGY PREDICTED BY IDOCK:   -3.70 KCAL/MOL
REMARK 922        TOTAL FREE ENERGY PREDICTED BY IDOCK:   -5.08 KCAL/MOL
REMARK 923 INTER-LIGAND FREE ENERGY PREDICTED BY IDOCK:   -5.30 KCAL/MOL
REMARK 924 INTRA-LIGAND FREE ENERGY PREDICTED BY IDOCK:    0.22 KCAL/MOL
REMARK 927      BINDING AFFINITY PREDICTED BY RF-SCORE:    0.00 PKD
ROOT
HETATM    1  N   UNL     1     -11.282   5.697  66.426  1.00  0.00    -0.727 NA 
HETATM    2  C   UNL     1     -10.839   6.637  67.333  1.00  0.00    -0.363 A  
HETATM    3  H2  UNL     1     -11.265   5.879  65.423  1.00  0.00     0.000 HD 
HETATM    4  H1  UNL     1     -11.627   4.813  66.800  1.00  0.00     0.000 HD 
HETATM    5  N   UNL     1     -10.386   7.795  66.844  1.00  0.00    -0.320 NA 
HETATM    6  C   UNL     1     -10.033   8.652  67.817  1.00  0.00    -0.190 A  
HETATM    7  C   UNL     1     -10.093   8.437  69.183  1.00  0.00    -0.203 A  
HETATM    8  N   UNL     1      -9.655   9.563  69.857  1.00  0.00    -0.208 NA 
HETATM    9  C   UNL     1     -10.533   7.163  69.599  1.00  0.00    -0.229 A  
HETATM   10  N   UNL     1     -10.883   6.275  68.624  1.00  0.00    -0.303 NA 
HETATM   11  N   UNL     1      -9.538   9.915  67.657  1.00  0.00    -0.147 NA 
HETATM   12  C   UNL     1      -9.333  10.427  68.911  1.00  0.00    -0.186 A  
ENDROOT
BRANCH   9  13
HETATM   13  N   UNL     1     -10.635   6.769  70.948  1.00  0.00    -0.217 NA 
HETATM   14  H   UNL     1      -9.865   6.295  71.421  1.00  0.00     0.000 HD 
BRANCH  13  15
HETATM   15  C   UNL     1     -11.888   7.065  71.648  1.00  0.00    -0.313 C  
HETATM   16  C   UNL     1     -12.011   8.294  72.509  1.00  0.00    -0.420 C  
HETATM   17  C   UNL     1     -12.806   8.182  71.242  1.00  0.00    -0.199 C  
ENDBRANCH  13  15
ENDBRANCH   9  13
BRANCH  11  18
HETATM   18  C   UNL     1      -9.250  10.527  66.366  1.00  0.00    -0.166 C  
HETATM   19  C   UNL     1      -9.519   9.586  65.174  1.00  0.00    -0.305 C  
HETATM   20  C   UNL     1      -8.160   9.285  64.511  1.00  0.00    -0.139 C  
HETATM   21  C   UNL     1      -7.823  10.935  66.168  1.00  0.00    -0.144 C  
HETATM   22  C   UNL     1      -7.241  10.282  65.157  1.00  0.00    -0.125 C  
BRANCH  20  23
HETATM   23  C   UNL     1      -7.708   7.838  64.731  1.00  0.00    -0.119 C  
HETATM   24  O   UNL     1      -8.680   6.922  64.238  1.00  0.00    -0.281 OA 
HETATM   25  H   UNL     1      -8.400   6.025  64.374  1.00  0.00     0.000 HD 
ENDBRANCH  20  23
ENDBRANCH  11  18
TORSDOF 4
ENDMDL
MODEL      142
REMARK 921   NORMALIZED FREE ENERGY PREDICTED BY IDOCK:   -3.68 KCAL/MOL
REMARK 922        TOTAL FREE ENERGY PREDICTED BY IDOCK:   -5.06 KCAL/MOL
REMARK 923 INTER-LIGAND FREE ENERGY PREDICTED BY IDOCK:   -5.43 KCAL/MOL
REMARK 924 INTRA-LIGAND FREE ENERGY PREDICTED BY IDOCK:    0.37 KCAL/MOL
REMARK 927      BINDING AFFINITY PREDICTED BY RF-SCORE:    0.00 PKD
ROOT
HETATM    1  N   UNL     1      -7.487   8.586  69.309  1.00  0.00    -0.081 NA 
HETATM    2  C   UNL     1      -8.651   9.053  69.882  1.00  0.00    -0.140 A  
HETATM    3  H2  UNL     1      -7.109   9.003  68.458  1.00  0.00     0.000 HD 
HETATM    4  H1  UNL     1      -7.019   7.806  69.771  1.00  0.00     0.000 HD 
HETATM    5  N   UNL     1      -9.264  10.075  69.277  1.00  0.00    -0.191 NA 
HETATM    6  C   UNL     1     -10.412  10.410  69.890  1.00  0.00    -0.218 A  
HETATM    7  C   UNL     1     -10.961   9.824  71.017  1.00  0.00    -0.332 A  
HETATM    8  N   UNL     1     -12.158  10.440  71.334  1.00  0.00    -0.355 NA 
HETATM    9  C   UNL     1     -10.210   8.790  71.615  1.00  0.00    -0.324 A  
HETATM   10  N   UNL     1      -9.035   8.445  71.013  1.00  0.00    -0.152 NA 
HETATM   11  N   UNL     1     -11.277  11.403  69.525  1.00  0.00    -0.262 NA 
HETATM   12  C   UNL     1     -12.316  11.379  70.418  1.00  0.00    -0.319 A  
ENDROOT
BRANCH   9  13
HETATM   13  N   UNL     1     -10.610   8.100  72.777  1.00  0.00    -0.342 NA 
HETATM   14  H   UNL     1     -10.389   8.457  73.707  1.00  0.00     0.000 HD 
BRANCH  13  15
HETATM   15  C   UNL     1     -11.354   6.851  72.602  1.00  0.00    -0.235 C  
HETATM   16  C   UNL     1     -11.779   6.400  71.229  1.00  0.00    -0.359 C  
HETATM   17  C   UNL     1     -10.751   5.618  71.992  1.00  0.00    -0.291 C  
ENDBRANCH  13  15
ENDBRANCH   9  13
BRANCH  11  18
HETATM   18  C   UNL     1     -11.051  12.322  68.416  1.00  0.00    -0.243 C  
HETATM   19  C   UNL     1     -11.617  11.809  67.076  1.00  0.00    -0.321 C  
HETATM   20  C   UNL     1     -10.420  11.544  66.143  1.00  0.00    -0.296 C  
HETATM   21  C   UNL     1      -9.611  12.587  68.103  1.00  0.00    -0.215 C  
HETATM   22  C   UNL     1      -9.275  12.188  66.872  1.00  0.00    -0.203 C  
BRANCH  20  23
HETATM   23  C   UNL     1     -10.191  10.051  65.889  1.00  0.00    -0.205 C  
HETATM   24  O   UNL     1     -10.209   9.766  64.494  1.00  0.00    -0.344 OA 
HETATM   25  H   UNL     1     -10.068   8.840  64.336  1.00  0.00     0.000 HD 
ENDBRANCH  20  23
ENDBRANCH  11  18
TORSDOF 4
ENDMDL
MODEL      143
REMARK 921   NORMALIZED FREE ENERGY PREDICTED BY IDOCK:   -3.66 KCAL/MOL
REMARK 922        TOTAL FREE ENERGY PREDICTED BY IDOCK:   -5.03 KCAL/MOL
REMARK 923 INTER-LIGAND FREE ENERGY PREDICTED BY IDOCK:   -4.73 KCAL/MOL
REMARK 924 INTRA-LIGAND FREE ENERGY PREDICTED BY IDOCK:   -0.30 KCAL/MOL
REMARK 927      BINDING AFFINITY PREDICTED BY RF-SCORE:    0.00 PKD
ROOT
HETATM    1  N   UNL     1      -6.749  10.231  69.267  1.00  0.00    -0.057 NA 
HETATM    2  C   UNL     1      -8.113  10.297  69.079  1.00  0.00    -0.132 A  
HETATM    3  H2  UNL     1      -6.134  10.985  68.959  1.00  0.00     0.000 HD 
HETATM    4  H1  UNL     1      -6.379   9.399  69.726  1.00  0.00     0.000 HD 
HETATM    5  N   UNL     1      -8.597  11.387  68.477  1.00  0.00    -0.155 NA 
HETATM    6  C   UNL     1      -9.928  11.318  68.299  1.00  0.00    -0.195 A  
HETATM    7  C   UNL     1     -10.769  10.283  68.669  1.00  0.00    -0.224 A  
HETATM    8  N   UNL     1     -12.069  10.578  68.303  1.00  0.00    -0.163 NA 
HETATM    9  C   UNL     1     -10.170   9.201  69.348  1.00  0.00    -0.210 A  
HETATM   10  N   UNL     1      -8.822   9.260  69.549  1.00  0.00    -0.142 NA 
HETATM   11  N   UNL     1     -10.727  12.259  67.715  1.00  0.00    -0.211 NA 
HETATM   12  C   UNL     1     -12.005  11.768  67.733  1.00  0.00    -0.064 A  
ENDROOT
BRANCH   9  13
HETATM   13  N   UNL     1     -10.880   8.075  69.813  1.00  0.00    -0.343 NA 
HETATM   14  H   UNL     1     -10.917   7.212  69.271  1.00  0.00     0.000 HD 
BRANCH  13  15
HETATM   15  C   UNL     1     -11.563   8.190  71.104  1.00  0.00    -0.279 C  
HETATM   16  C   UNL     1     -11.087   7.400  72.294  1.00  0.00    -0.308 C  
HETATM   17  C   UNL     1     -10.963   8.895  72.286  1.00  0.00    -0.245 C  
ENDBRANCH  13  15
ENDBRANCH   9  13
BRANCH  11  18
HETATM   18  C   UNL     1     -10.255  13.552  67.234  1.00  0.00    -0.242 C  
HETATM   19  C   UNL     1     -11.399  14.503  66.827  1.00  0.00    -0.358 C  
HETATM   20  C   UNL     1     -11.295  14.721  65.304  1.00  0.00    -0.363 C  
HETATM   21  C   UNL     1      -9.402  13.493  66.004  1.00  0.00    -0.020 C  
HETATM   22  C   UNL     1      -9.951  14.139  64.971  1.00  0.00    -0.216 C  
BRANCH  20  23
HETATM   23  C   UNL     1     -12.436  14.048  64.536  1.00  0.00    -0.308 C  
HETATM   24  O   UNL     1     -13.296  13.339  65.423  1.00  0.00    -0.496 OA 
HETATM   25  H   UNL     1     -14.004  12.922  64.947  1.00  0.00     0.000 HD 
ENDBRANCH  20  23
ENDBRANCH  11  18
TORSDOF 4
ENDMDL
MODEL      144
REMARK 921   NORMALIZED FREE ENERGY PREDICTED BY IDOCK:   -3.65 KCAL/MOL
REMARK 922        TOTAL FREE ENERGY PREDICTED BY IDOCK:   -5.02 KCAL/MOL
REMARK 923 INTER-LIGAND FREE ENERGY PREDICTED BY IDOCK:   -4.56 KCAL/MOL
REMARK 924 INTRA-LIGAND FREE ENERGY PREDICTED BY IDOCK:   -0.46 KCAL/MOL
REMARK 927      BINDING AFFINITY PREDICTED BY RF-SCORE:    0.00 PKD
ROOT
HETATM    1  N   UNL     1     -10.708   5.760  68.171  1.00  0.00    -0.233 NA 
HETATM    2  C   UNL     1     -10.839   6.173  69.480  1.00  0.00    -0.361 A  
HETATM    3  H2  UNL     1      -9.859   5.301  67.841  1.00  0.00     0.000 HD 
HETATM    4  H1  UNL     1     -11.495   5.932  67.545  1.00  0.00     0.000 HD 
HETATM    5  N   UNL     1      -9.807   5.948  70.299  1.00  0.00    -0.178 NA 
HETATM    6  C   UNL     1     -10.023   6.438  71.532  1.00  0.00    -0.180 A  
HETATM    7  C   UNL     1     -11.151   7.104  71.981  1.00  0.00    -0.245 A  
HETATM    8  N   UNL     1     -10.988   7.465  73.306  1.00  0.00    -0.368 NA 
HETATM    9  C   UNL     1     -12.206   7.244  71.057  1.00  0.00    -0.313 A  
HETATM   10  N   UNL     1     -12.010   6.740  69.804  1.00  0.00    -0.097 NA 
HETATM   11  N   UNL     1      -9.172   6.380  72.598  1.00  0.00    -0.139 NA 
HETATM   12  C   UNL     1      -9.791   7.017  73.641  1.00  0.00    -0.280 A  
ENDROOT
BRANCH   9  13
HETATM   13  N   UNL     1     -13.432   7.876  71.353  1.00  0.00    -0.515 NA 
HETATM   14  H   UNL     1     -14.228   7.346  71.707  1.00  0.00     0.000 HD 
BRANCH  13  15
HETATM   15  C   UNL     1     -13.520   9.321  71.133  1.00  0.00    -0.163 C  
HETATM   16  C   UNL     1     -13.065  10.285  72.197  1.00  0.00    -0.444 C  
HETATM   17  C   UNL     1     -12.315  10.187  70.902  1.00  0.00    -0.461 C  
ENDBRANCH  13  15
ENDBRANCH   9  13
BRANCH  11  18
HETATM   18  C   UNL     1      -7.882   5.701  72.583  1.00  0.00    -0.102 C  
HETATM   19  C   UNL     1      -7.981   4.216  72.182  1.00  0.00    -0.086 C  
HETATM   20  C   UNL     1      -7.583   3.380  73.414  1.00  0.00    -0.061 C  
HETATM   21  C   UNL     1      -7.180   5.655  73.905  1.00  0.00    -0.086 C  
HETATM   22  C   UNL     1      -7.000   4.406  74.344  1.00  0.00    -0.070 C  
BRANCH  20  23
HETATM   23  C   UNL     1      -8.772   2.636  74.029  1.00  0.00    -0.075 C  
HETATM   24  O   UNL     1     -10.004   3.222  73.618  1.00  0.00    -0.106 OA 
HETATM   25  H   UNL     1     -10.741   2.761  73.998  1.00  0.00     0.000 HD 
ENDBRANCH  20  23
ENDBRANCH  11  18
TORSDOF 4
ENDMDL
MODEL      145
REMARK 921   NORMALIZED FREE ENERGY PREDICTED BY IDOCK:   -3.63 KCAL/MOL
REMARK 922        TOTAL FREE ENERGY PREDICTED BY IDOCK:   -4.99 KCAL/MOL
REMARK 923 INTER-LIGAND FREE ENERGY PREDICTED BY IDOCK:   -4.80 KCAL/MOL
REMARK 924 INTRA-LIGAND FREE ENERGY PREDICTED BY IDOCK:   -0.20 KCAL/MOL
REMARK 927      BINDING AFFINITY PREDICTED BY RF-SCORE:    0.00 PKD
ROOT
HETATM    1  N   UNL     1      -5.774   9.305  70.855  1.00  0.00    -0.045 NA 
HETATM    2  C   UNL     1      -6.927   9.688  70.204  1.00  0.00    -0.105 A  
HETATM    3  H2  UNL     1      -5.806   8.847  71.766  1.00  0.00     0.000 HD 
HETATM    4  H1  UNL     1      -4.887   9.498  70.389  1.00  0.00     0.000 HD 
HETATM    5  N   UNL     1      -8.089   9.435  70.814  1.00  0.00    -0.260 NA 
HETATM    6  C   UNL     1      -9.139   9.899  70.116  1.00  0.00    -0.124 A  
HETATM    7  C   UNL     1      -9.109  10.562  68.901  1.00  0.00    -0.177 A  
HETATM    8  N   UNL     1     -10.395  10.891  68.511  1.00  0.00    -0.178 NA 
HETATM    9  C   UNL     1      -7.839  10.732  68.311  1.00  0.00    -0.115 A  
HETATM   10  N   UNL     1      -6.762  10.256  69.000  1.00  0.00    -0.053 NA 
HETATM   11  N   UNL     1     -10.458   9.809  70.461  1.00  0.00    -0.295 NA 
HETATM   12  C   UNL     1     -11.175  10.425  69.470  1.00  0.00    -0.269 A  
ENDROOT
BRANCH   9  13
HETATM   13  N   UNL     1      -7.628  11.366  67.070  1.00  0.00    -0.144 NA 
HETATM   14  H   UNL     1      -7.459  12.371  67.010  1.00  0.00     0.000 HD 
BRANCH  13  15
HETATM   15  C   UNL     1      -7.661  10.531  65.867  1.00  0.00    -0.148 C  
HETATM   16  C   UNL     1      -8.206   9.128  65.925  1.00  0.00    -0.113 C  
HETATM   17  C   UNL     1      -8.931  10.185  65.146  1.00  0.00    -0.225 C  
ENDBRANCH  13  15
ENDBRANCH   9  13
BRANCH  11  18
HETATM   18  C   UNL     1     -10.950   9.121  71.647  1.00  0.00    -0.374 C  
HETATM   19  C   UNL     1     -10.325   7.725  71.845  1.00  0.00    -0.256 C  
HETATM   20  C   UNL     1     -11.452   6.688  71.671  1.00  0.00    -0.332 C  
HETATM   21  C   UNL     1     -12.422   8.842  71.648  1.00  0.00    -0.403 C  
HETATM   22  C   UNL     1     -12.694   7.534  71.681  1.00  0.00    -0.385 C  
BRANCH  20  23
HETATM   23  C   UNL     1     -11.306   5.872  70.383  1.00  0.00    -0.149 C  
HETATM   24  O   UNL     1     -11.746   6.622  69.255  1.00  0.00    -0.645 OA 
HETATM   25  H   UNL     1     -11.655   6.116  68.457  1.00  0.00     0.000 HD 
ENDBRANCH  20  23
ENDBRANCH  11  18
TORSDOF 4
ENDMDL
MODEL      146
REMARK 921   NORMALIZED FREE ENERGY PREDICTED BY IDOCK:   -3.62 KCAL/MOL
REMARK 922        TOTAL FREE ENERGY PREDICTED BY IDOCK:   -4.99 KCAL/MOL
REMARK 923 INTER-LIGAND FREE ENERGY PREDICTED BY IDOCK:   -4.82 KCAL/MOL
REMARK 924 INTRA-LIGAND FREE ENERGY PREDICTED BY IDOCK:   -0.17 KCAL/MOL
REMARK 927      BINDING AFFINITY PREDICTED BY RF-SCORE:    0.00 PKD
ROOT
HETATM    1  N   UNL     1      -6.510   7.065  72.585  1.00  0.00    -0.053 NA 
HETATM    2  C   UNL     1      -7.825   6.822  72.249  1.00  0.00    -0.095 A  
HETATM    3  H2  UNL     1      -5.833   7.375  71.888  1.00  0.00     0.000 HD 
HETATM    4  H1  UNL     1      -6.242   6.924  73.559  1.00  0.00     0.000 HD 
HETATM    5  N   UNL     1      -8.177   7.007  70.973  1.00  0.00    -0.116 NA 
HETATM    6  C   UNL     1      -9.463   6.689  70.751  1.00  0.00    -0.168 A  
HETATM    7  C   UNL     1     -10.382   6.224  71.677  1.00  0.00    -0.212 A  
HETATM    8  N   UNL     1     -11.599   5.997  71.060  1.00  0.00    -0.184 NA 
HETATM    9  C   UNL     1      -9.930   6.114  73.008  1.00  0.00    -0.176 A  
HETATM   10  N   UNL     1      -8.629   6.446  73.255  1.00  0.00    -0.122 NA 
HETATM   11  N   UNL     1     -10.132   6.759  69.562  1.00  0.00    -0.175 NA 
HETATM   12  C   UNL     1     -11.411   6.326  69.794  1.00  0.00    -0.436 A  
ENDROOT
BRANCH   9  13
HETATM   13  N   UNL     1     -10.736   5.678  74.078  1.00  0.00    -0.359 NA 
HETATM   14  H   UNL     1     -11.379   6.315  74.550  1.00  0.00     0.000 HD 
BRANCH  13  15
HETATM   15  C   UNL     1     -10.619   4.277  74.489  1.00  0.00    -0.184 C  
HETATM   16  C   UNL     1     -11.297   3.189  73.700  1.00  0.00    -0.228 C  
HETATM   17  C   UNL     1      -9.799   3.270  73.735  1.00  0.00    -0.154 C  
ENDBRANCH  13  15
ENDBRANCH   9  13
BRANCH  11  18
HETATM   18  C   UNL     1      -9.553   7.265  68.324  1.00  0.00    -0.148 C  
HETATM   19  C   UNL     1     -10.429   6.986  67.085  1.00  0.00    -0.383 C  
HETATM   20  C   UNL     1      -9.653   6.002  66.187  1.00  0.00    -0.091 C  
HETATM   21  C   UNL     1      -8.232   6.664  67.955  1.00  0.00    -0.120 C  
HETATM   22  C   UNL     1      -8.279   6.001  66.795  1.00  0.00    -0.106 C  
BRANCH  20  23
HETATM   23  C   UNL     1     -10.286   4.608  66.160  1.00  0.00    -0.275 C  
HETATM   24  O   UNL     1     -11.304   4.533  65.166  1.00  0.00    -1.034 OA 
HETATM   25  H   UNL     1     -11.697   3.668  65.149  1.00  0.00     0.000 HD 
ENDBRANCH  20  23
ENDBRANCH  11  18
TORSDOF 4
ENDMDL
MODEL      147
REMARK 921   NORMALIZED FREE ENERGY PREDICTED BY IDOCK:   -3.55 KCAL/MOL
REMARK 922        TOTAL FREE ENERGY PREDICTED BY IDOCK:   -4.90 KCAL/MOL
REMARK 923 INTER-LIGAND FREE ENERGY PREDICTED BY IDOCK:   -4.40 KCAL/MOL
REMARK 924 INTRA-LIGAND FREE ENERGY PREDICTED BY IDOCK:   -0.50 KCAL/MOL
REMARK 927      BINDING AFFINITY PREDICTED BY RF-SCORE:    0.00 PKD
ROOT
HETATM    1  N   UNL     1     -10.372  10.600  64.880  1.00  0.00    -0.313 NA 
HETATM    2  C   UNL     1      -9.901  10.581  66.176  1.00  0.00    -0.217 A  
HETATM    3  H2  UNL     1     -10.662   9.743  64.409  1.00  0.00     0.000 HD 
HETATM    4  H1  UNL     1     -10.419  11.505  64.413  1.00  0.00     0.000 HD 
HETATM    5  N   UNL     1      -9.840   9.396  66.789  1.00  0.00    -0.201 NA 
HETATM    6  C   UNL     1      -9.317   9.490  68.023  1.00  0.00    -0.132 A  
HETATM    7  C   UNL     1      -8.877  10.638  68.660  1.00  0.00    -0.151 A  
HETATM    8  N   UNL     1      -8.393  10.324  69.917  1.00  0.00    -0.091 NA 
HETATM    9  C   UNL     1      -9.035  11.847  67.951  1.00  0.00    -0.179 A  
HETATM   10  N   UNL     1      -9.577  11.772  66.701  1.00  0.00    -0.200 NA 
HETATM   11  N   UNL     1      -9.113   8.470  68.908  1.00  0.00    -0.146 NA 
HETATM   12  C   UNL     1      -8.548   9.017  70.030  1.00  0.00    -0.151 A  
ENDROOT
BRANCH   9  13
HETATM   13  N   UNL     1      -8.660  13.109  68.457  1.00  0.00    -0.334 NA 
HETATM   14  H   UNL     1      -8.072  13.193  69.286  1.00  0.00     0.000 HD 
BRANCH  13  15
HETATM   15  C   UNL     1      -9.146  14.295  67.748  1.00  0.00    -0.195 C  
HETATM   16  C   UNL     1      -9.557  15.527  68.511  1.00  0.00    -0.203 C  
HETATM   17  C   UNL     1      -8.346  15.559  67.626  1.00  0.00    -0.167 C  
ENDBRANCH  13  15
ENDBRANCH   9  13
BRANCH  11  18
HETATM   18  C   UNL     1      -9.499   7.085  68.667  1.00  0.00    -0.135 C  
HETATM   19  C   UNL     1     -11.013   6.838  68.828  1.00  0.00    -0.267 C  
HETATM   20  C   UNL     1     -11.200   5.911  70.045  1.00  0.00    -0.341 C  
HETATM   21  C   UNL     1      -8.886   6.089  69.603  1.00  0.00    -0.133 C  
HETATM   22  C   UNL     1      -9.802   5.442  70.331  1.00  0.00    -0.270 C  
BRANCH  20  23
HETATM   23  C   UNL     1     -11.836   6.631  71.238  1.00  0.00    -0.350 C  
HETATM   24  O   UNL     1     -10.846   7.306  72.009  1.00  0.00    -0.225 OA 
HETATM   25  H   UNL     1     -11.240   7.752  72.749  1.00  0.00     0.000 HD 
ENDBRANCH  20  23
ENDBRANCH  11  18
TORSDOF 4
ENDMDL
MODEL      148
REMARK 921   NORMALIZED FREE ENERGY PREDICTED BY IDOCK:   -3.54 KCAL/MOL
REMARK 922        TOTAL FREE ENERGY PREDICTED BY IDOCK:   -4.89 KCAL/MOL
REMARK 923 INTER-LIGAND FREE ENERGY PREDICTED BY IDOCK:   -4.61 KCAL/MOL
REMARK 924 INTRA-LIGAND FREE ENERGY PREDICTED BY IDOCK:   -0.28 KCAL/MOL
REMARK 927      BINDING AFFINITY PREDICTED BY RF-SCORE:    0.00 PKD
ROOT
HETATM    1  N   UNL     1     -10.588   5.634  68.610  1.00  0.00    -0.215 NA 
HETATM    2  C   UNL     1     -10.647   6.095  69.908  1.00  0.00    -0.265 A  
HETATM    3  H2  UNL     1      -9.736   5.219  68.232  1.00  0.00     0.000 HD 
HETATM    4  H1  UNL     1     -11.432   5.723  68.043  1.00  0.00     0.000 HD 
HETATM    5  N   UNL     1      -9.542   5.978  70.650  1.00  0.00    -0.171 NA 
HETATM    6  C   UNL     1      -9.697   6.508  71.876  1.00  0.00    -0.150 A  
HETATM    7  C   UNL     1     -10.831   7.114  72.387  1.00  0.00    -0.246 A  
HETATM    8  N   UNL     1     -10.593   7.544  73.680  1.00  0.00    -0.300 NA 
HETATM    9  C   UNL     1     -11.962   7.139  71.545  1.00  0.00    -0.326 A  
HETATM   10  N   UNL     1     -11.827   6.594  70.302  1.00  0.00    -0.376 NA 
HETATM   11  N   UNL     1      -8.764   6.556  72.872  1.00  0.00    -0.123 NA 
HETATM   12  C   UNL     1      -9.345   7.195  73.936  1.00  0.00    -0.243 A  
ENDROOT
BRANCH   9  13
HETATM   13  N   UNL     1     -13.203   7.698  71.913  1.00  0.00    -0.464 NA 
HETATM   14  H   UNL     1     -13.875   7.174  72.475  1.00  0.00     0.000 HD 
BRANCH  13  15
HETATM   15  C   UNL     1     -13.495   9.060  71.460  1.00  0.00    -0.342 C  
HETATM   16  C   UNL     1     -13.638  10.183  72.454  1.00  0.00    -0.109 C  
HETATM   17  C   UNL     1     -12.482  10.168  71.498  1.00  0.00    -0.526 C  
ENDBRANCH  13  15
ENDBRANCH   9  13
BRANCH  11  18
HETATM   18  C   UNL     1      -7.434   5.967  72.781  1.00  0.00    -0.094 C  
HETATM   19  C   UNL     1      -6.530   6.316  73.980  1.00  0.00    -0.070 C  
HETATM   20  C   UNL     1      -5.380   7.194  73.448  1.00  0.00    -0.042 C  
HETATM   21  C   UNL     1      -6.628   6.415  71.600  1.00  0.00    -0.054 C  
HETATM   22  C   UNL     1      -5.512   7.057  71.958  1.00  0.00    -0.037 C  
BRANCH  20  23
HETATM   23  C   UNL     1      -5.485   8.648  73.918  1.00  0.00    -0.102 C  
HETATM   24  O   UNL     1      -6.839   9.088  73.906  1.00  0.00    -0.355 OA 
HETATM   25  H   UNL     1      -6.905   9.989  74.197  1.00  0.00     0.000 HD 
ENDBRANCH  20  23
ENDBRANCH  11  18
TORSDOF 4
ENDMDL
MODEL      149
REMARK 921   NORMALIZED FREE ENERGY PREDICTED BY IDOCK:   -3.53 KCAL/MOL
REMARK 922        TOTAL FREE ENERGY PREDICTED BY IDOCK:   -4.88 KCAL/MOL
REMARK 923 INTER-LIGAND FREE ENERGY PREDICTED BY IDOCK:   -4.76 KCAL/MOL
REMARK 924 INTRA-LIGAND FREE ENERGY PREDICTED BY IDOCK:   -0.11 KCAL/MOL
REMARK 927      BINDING AFFINITY PREDICTED BY RF-SCORE:    0.00 PKD
ROOT
HETATM    1  N   UNL     1     -11.822  14.612  67.193  1.00  0.00    -0.397 NA 
HETATM    2  C   UNL     1     -10.548  14.186  67.505  1.00  0.00    -0.257 A  
HETATM    3  H2  UNL     1     -12.005  15.573  66.904  1.00  0.00     0.000 HD 
HETATM    4  H1  UNL     1     -12.574  13.926  67.261  1.00  0.00     0.000 HD 
HETATM    5  N   UNL     1      -9.563  15.085  67.415  1.00  0.00    -0.204 NA 
HETATM    6  C   UNL     1      -8.378  14.576  67.794  1.00  0.00    -0.169 A  
HETATM    7  C   UNL     1      -8.122  13.288  68.231  1.00  0.00    -0.156 A  
HETATM    8  N   UNL     1      -6.781  13.153  68.542  1.00  0.00    -0.084 NA 
HETATM    9  C   UNL     1      -9.217  12.399  68.238  1.00  0.00    -0.189 A  
HETATM   10  N   UNL     1     -10.426  12.895  67.844  1.00  0.00    -0.219 NA 
HETATM   11  N   UNL     1      -7.178  15.228  67.824  1.00  0.00    -0.147 NA 
HETATM   12  C   UNL     1      -6.248  14.335  68.287  1.00  0.00    -0.117 A  
ENDROOT
BRANCH   9  13
HETATM   13  N   UNL     1      -9.130  11.049  68.634  1.00  0.00    -0.172 NA 
HETATM   14  H   UNL     1      -9.129  10.785  69.619  1.00  0.00     0.000 HD 
BRANCH  13  15
HETATM   15  C   UNL     1      -9.043  10.037  67.578  1.00  0.00    -0.134 C  
HETATM   16  C   UNL     1      -9.018   8.571  67.923  1.00  0.00    -0.139 C  
HETATM   17  C   UNL     1     -10.195   9.152  67.197  1.00  0.00    -0.329 C  
ENDBRANCH  13  15
ENDBRANCH   9  13
BRANCH  11  18
HETATM   18  C   UNL     1      -6.978  16.601  67.378  1.00  0.00    -0.161 C  
HETATM   19  C   UNL     1      -7.325  17.647  68.457  1.00  0.00    -0.256 C  
HETATM   20  C   UNL     1      -8.550  18.436  67.954  1.00  0.00    -0.285 C  
HETATM   21  C   UNL     1      -7.824  17.014  66.213  1.00  0.00    -0.346 C  
HETATM   22  C   UNL     1      -8.656  18.015  66.516  1.00  0.00    -0.280 C  
BRANCH  20  23
HETATM   23  C   UNL     1      -9.818  18.125  68.755  1.00  0.00    -0.350 C  
HETATM   24  O   UNL     1     -10.829  17.582  67.911  1.00  0.00    -0.374 OA 
HETATM   25  H   UNL     1     -11.615  17.389  68.407  1.00  0.00     0.000 HD 
ENDBRANCH  20  23
ENDBRANCH  11  18
TORSDOF 4
ENDMDL
MODEL      150
REMARK 921   NORMALIZED FREE ENERGY PREDICTED BY IDOCK:   -3.49 KCAL/MOL
REMARK 922        TOTAL FREE ENERGY PREDICTED BY IDOCK:   -4.83 KCAL/MOL
REMARK 923 INTER-LIGAND FREE ENERGY PREDICTED BY IDOCK:   -4.77 KCAL/MOL
REMARK 924 INTRA-LIGAND FREE ENERGY PREDICTED BY IDOCK:   -0.05 KCAL/MOL
REMARK 927      BINDING AFFINITY PREDICTED BY RF-SCORE:    0.00 PKD
ROOT
HETATM    1  N   UNL     1     -10.661   5.736  67.805  1.00  0.00    -0.246 NA 
HETATM    2  C   UNL     1     -10.870   5.781  69.168  1.00  0.00    -0.285 A  
HETATM    3  H2  UNL     1      -9.981   5.097  67.393  1.00  0.00     0.000 HD 
HETATM    4  H1  UNL     1     -11.215   6.368  67.227  1.00  0.00     0.000 HD 
HETATM    5  N   UNL     1     -10.144   4.953  69.926  1.00  0.00    -0.257 NA 
HETATM    6  C   UNL     1     -10.390   5.121  71.236  1.00  0.00    -0.205 A  
HETATM    7  C   UNL     1     -11.276   6.014  71.813  1.00  0.00    -0.275 A  
HETATM    8  N   UNL     1     -11.236   5.895  73.191  1.00  0.00    -0.224 NA 
HETATM    9  C   UNL     1     -12.035   6.805  70.927  1.00  0.00    -0.383 A  
HETATM   10  N   UNL     1     -11.808   6.640  69.591  1.00  0.00    -0.168 NA 
HETATM   11  N   UNL     1      -9.816   4.440  72.272  1.00  0.00    -0.164 NA 
HETATM   12  C   UNL     1     -10.350   4.945  73.429  1.00  0.00    -0.192 A  
ENDROOT
BRANCH   9  13
HETATM   13  N   UNL     1     -12.996   7.750  71.342  1.00  0.00    -0.457 NA 
HETATM   14  H   UNL     1     -13.995   7.554  71.275  1.00  0.00     0.000 HD 
BRANCH  13  15
HETATM   15  C   UNL     1     -12.507   9.025  71.874  1.00  0.00    -0.384 C  
HETATM   16  C   UNL     1     -11.506   9.843  71.102  1.00  0.00    -0.459 C  
HETATM   17  C   UNL     1     -12.902  10.355  71.300  1.00  0.00    -0.533 C  
ENDBRANCH  13  15
ENDBRANCH   9  13
BRANCH  11  18
HETATM   18  C   UNL     1      -8.863   3.350  72.110  1.00  0.00    -0.094 C  
HETATM   19  C   UNL     1      -7.408   3.834  71.939  1.00  0.00    -0.055 C  
HETATM   20  C   UNL     1      -6.965   3.460  70.511  1.00  0.00    -0.034 C  
HETATM   21  C   UNL     1      -9.085   2.494  70.901  1.00  0.00    -0.182 C  
HETATM   22  C   UNL     1      -8.056   2.537  70.049  1.00  0.00    -0.057 C  
BRANCH  20  23
HETATM   23  C   UNL     1      -6.807   4.686  69.606  1.00  0.00    -0.048 C  
HETATM   24  O   UNL     1      -7.198   5.874  70.288  1.00  0.00    -0.071 OA 
HETATM   25  H   UNL     1      -7.100   6.633  69.727  1.00  0.00     0.000 HD 
ENDBRANCH  20  23
ENDBRANCH  11  18
TORSDOF 4
ENDMDL
MODEL      151
REMARK 921   NORMALIZED FREE ENERGY PREDICTED BY IDOCK:   -3.48 KCAL/MOL
REMARK 922        TOTAL FREE ENERGY PREDICTED BY IDOCK:   -4.81 KCAL/MOL
REMARK 923 INTER-LIGAND FREE ENERGY PREDICTED BY IDOCK:   -4.90 KCAL/MOL
REMARK 924 INTRA-LIGAND FREE ENERGY PREDICTED BY IDOCK:    0.10 KCAL/MOL
REMARK 927      BINDING AFFINITY PREDICTED BY RF-SCORE:    0.00 PKD
ROOT
HETATM    1  N   UNL     1     -12.377  11.028  68.866  1.00  0.00    -0.711 NA 
HETATM    2  C   UNL     1     -11.061  11.283  68.542  1.00  0.00    -0.235 A  
HETATM    3  H2  UNL     1     -13.071  11.775  68.896  1.00  0.00     0.000 HD 
HETATM    4  H1  UNL     1     -12.628  10.061  69.074  1.00  0.00     0.000 HD 
HETATM    5  N   UNL     1     -10.732  12.549  68.269  1.00  0.00    -0.220 NA 
HETATM    6  C   UNL     1      -9.418  12.688  68.021  1.00  0.00    -0.209 A  
HETATM    7  C   UNL     1      -8.457  11.692  68.021  1.00  0.00    -0.151 A  
HETATM    8  N   UNL     1      -7.217  12.233  67.733  1.00  0.00    -0.102 NA 
HETATM    9  C   UNL     1      -8.914  10.380  68.265  1.00  0.00    -0.135 A  
HETATM   10  N   UNL     1     -10.247  10.218  68.507  1.00  0.00    -0.165 NA 
HETATM   11  N   UNL     1      -8.759  13.845  67.715  1.00  0.00    -0.175 NA 
HETATM   12  C   UNL     1      -7.437  13.524  67.558  1.00  0.00    -0.167 A  
ENDROOT
BRANCH   9  13
HETATM   13  N   UNL     1      -8.075   9.247  68.282  1.00  0.00    -0.106 NA 
HETATM   14  H   UNL     1      -7.207   9.223  67.746  1.00  0.00     0.000 HD 
BRANCH  13  15
HETATM   15  C   UNL     1      -8.496   8.104  69.096  1.00  0.00    -0.135 C  
HETATM   16  C   UNL     1      -8.948   6.825  68.442  1.00  0.00    -0.124 C  
HETATM   17  C   UNL     1      -7.675   6.854  69.236  1.00  0.00    -0.105 C  
ENDBRANCH  13  15
ENDBRANCH   9  13
BRANCH  11  18
HETATM   18  C   UNL     1      -9.409  15.139  67.545  1.00  0.00    -0.198 C  
HETATM   19  C   UNL     1      -9.317  16.035  68.796  1.00  0.00    -0.222 C  
HETATM   20  C   UNL     1     -10.749  16.210  69.341  1.00  0.00    -0.307 C  
HETATM   21  C   UNL     1     -10.880  15.073  67.274  1.00  0.00    -0.310 C  
HETATM   22  C   UNL     1     -11.601  15.667  68.230  1.00  0.00    -0.326 C  
BRANCH  20  23
HETATM   23  C   UNL     1     -10.967  15.472  70.665  1.00  0.00    -0.342 C  
HETATM   24  O   UNL     1     -11.520  14.179  70.440  1.00  0.00    -0.459 OA 
HETATM   25  H   UNL     1     -11.656  13.721  71.260  1.00  0.00     0.000 HD 
ENDBRANCH  20  23
ENDBRANCH  11  18
TORSDOF 4
ENDMDL
MODEL      152
REMARK 921   NORMALIZED FREE ENERGY PREDICTED BY IDOCK:   -3.47 KCAL/MOL
REMARK 922        TOTAL FREE ENERGY PREDICTED BY IDOCK:   -4.80 KCAL/MOL
REMARK 923 INTER-LIGAND FREE ENERGY PREDICTED BY IDOCK:   -4.78 KCAL/MOL
REMARK 924 INTRA-LIGAND FREE ENERGY PREDICTED BY IDOCK:   -0.02 KCAL/MOL
REMARK 927      BINDING AFFINITY PREDICTED BY RF-SCORE:    0.00 PKD
ROOT
HETATM    1  N   UNL     1      -8.627   7.056  69.501  1.00  0.00    -0.133 NA 
HETATM    2  C   UNL     1      -9.386   8.156  69.162  1.00  0.00    -0.151 A  
HETATM    3  H2  UNL     1      -7.834   6.761  68.931  1.00  0.00     0.000 HD 
HETATM    4  H1  UNL     1      -8.890   6.548  70.346  1.00  0.00     0.000 HD 
HETATM    5  N   UNL     1      -9.042   8.820  68.055  1.00  0.00    -0.140 NA 
HETATM    6  C   UNL     1      -9.880   9.837  67.793  1.00  0.00    -0.160 A  
HETATM    7  C   UNL     1     -10.987  10.220  68.532  1.00  0.00    -0.247 A  
HETATM    8  N   UNL     1     -11.602  11.303  67.931  1.00  0.00    -0.517 NA 
HETATM    9  C   UNL     1     -11.235   9.491  69.713  1.00  0.00    -0.144 A  
HETATM   10  N   UNL     1     -10.385   8.462  70.002  1.00  0.00    -0.206 NA 
HETATM   11  N   UNL     1      -9.813  10.705  66.741  1.00  0.00    -0.192 NA 
HETATM   12  C   UNL     1     -10.873  11.565  66.861  1.00  0.00    -0.284 A  
ENDROOT
BRANCH   9  13
HETATM   13  N   UNL     1     -12.304   9.759  70.592  1.00  0.00    -0.457 NA 
HETATM   14  H   UNL     1     -12.760  10.671  70.608  1.00  0.00     0.000 HD 
BRANCH  13  15
HETATM   15  C   UNL     1     -12.736   8.679  71.483  1.00  0.00    -0.316 C  
HETATM   16  C   UNL     1     -13.573   8.980  72.698  1.00  0.00    -0.411 C  
HETATM   17  C   UNL     1     -14.158   8.201  71.557  1.00  0.00    -0.464 C  
ENDBRANCH  13  15
ENDBRANCH   9  13
BRANCH  11  18
HETATM   18  C   UNL     1      -8.753  10.703  65.740  1.00  0.00    -0.182 C  
HETATM   19  C   UNL     1      -8.889   9.561  64.712  1.00  0.00    -0.244 C  
HETATM   20  C   UNL     1      -7.694   8.611  64.920  1.00  0.00    -0.106 C  
HETATM   21  C   UNL     1      -7.372  10.510  66.288  1.00  0.00    -0.133 C  
HETATM   22  C   UNL     1      -6.793   9.396  65.832  1.00  0.00    -0.089 C  
BRANCH  20  23
HETATM   23  C   UNL     1      -8.111   7.265  65.520  1.00  0.00    -0.132 C  
HETATM   24  O   UNL     1      -7.225   6.881  66.568  1.00  0.00    -0.069 OA 
HETATM   25  H   UNL     1      -7.483   6.046  66.940  1.00  0.00     0.000 HD 
ENDBRANCH  20  23
ENDBRANCH  11  18
TORSDOF 4
ENDMDL
MODEL      153
REMARK 921   NORMALIZED FREE ENERGY PREDICTED BY IDOCK:   -3.46 KCAL/MOL
REMARK 922        TOTAL FREE ENERGY PREDICTED BY IDOCK:   -4.79 KCAL/MOL
REMARK 923 INTER-LIGAND FREE ENERGY PREDICTED BY IDOCK:   -4.67 KCAL/MOL
REMARK 924 INTRA-LIGAND FREE ENERGY PREDICTED BY IDOCK:   -0.12 KCAL/MOL
REMARK 927      BINDING AFFINITY PREDICTED BY RF-SCORE:    0.00 PKD
ROOT
HETATM    1  N   UNL     1      -9.808   3.529  67.804  1.00  0.00    -0.141 NA 
HETATM    2  C   UNL     1     -10.146   4.778  68.279  1.00  0.00    -0.039 A  
HETATM    3  H2  UNL     1      -9.638   2.748  68.438  1.00  0.00     0.000 HD 
HETATM    4  H1  UNL     1      -9.735   3.417  66.792  1.00  0.00     0.000 HD 
HETATM    5  N   UNL     1     -10.242   4.925  69.603  1.00  0.00    -0.238 NA 
HETATM    6  C   UNL     1     -10.522   6.192  69.954  1.00  0.00    -0.233 A  
HETATM    7  C   UNL     1     -10.710   7.271  69.107  1.00  0.00    -0.185 A  
HETATM    8  N   UNL     1     -10.967   8.411  69.848  1.00  0.00    -0.212 NA 
HETATM    9  C   UNL     1     -10.644   7.003  67.725  1.00  0.00    -0.233 A  
HETATM   10  N   UNL     1     -10.373   5.719  67.350  1.00  0.00    -0.199 NA 
HETATM   11  N   UNL     1     -10.681   6.677  71.221  1.00  0.00    -0.226 NA 
HETATM   12  C   UNL     1     -10.940   8.017  71.108  1.00  0.00    -0.243 A  
ENDROOT
BRANCH   9  13
HETATM   13  N   UNL     1     -10.830   7.979  66.725  1.00  0.00    -0.373 NA 
HETATM   14  H   UNL     1     -11.711   8.052  66.214  1.00  0.00     0.000 HD 
BRANCH  13  15
HETATM   15  C   UNL     1      -9.714   8.886  66.445  1.00  0.00    -0.262 C  
HETATM   16  C   UNL     1      -8.639   8.496  65.466  1.00  0.00    -0.204 C  
HETATM   17  C   UNL     1      -9.570   9.628  65.148  1.00  0.00    -0.324 C  
ENDBRANCH  13  15
ENDBRANCH   9  13
BRANCH  11  18
HETATM   18  C   UNL     1     -10.631   5.857  72.425  1.00  0.00    -0.217 C  
HETATM   19  C   UNL     1     -10.507   6.686  73.720  1.00  0.00    -0.357 C  
HETATM   20  C   UNL     1      -9.127   6.375  74.333  1.00  0.00    -0.189 C  
HETATM   21  C   UNL     1      -9.464   4.922  72.501  1.00  0.00    -0.164 C  
HETATM   22  C   UNL     1      -8.665   5.187  73.539  1.00  0.00    -0.114 C  
BRANCH  20  23
HETATM   23  C   UNL     1      -8.161   7.560  74.236  1.00  0.00    -0.185 C  
HETATM   24  O   UNL     1      -8.689   8.576  73.389  1.00  0.00    -0.331 OA 
HETATM   25  H   UNL     1      -8.091   9.311  73.329  1.00  0.00     0.000 HD 
ENDBRANCH  20  23
ENDBRANCH  11  18
TORSDOF 4
ENDMDL
MODEL      154
REMARK 921   NORMALIZED FREE ENERGY PREDICTED BY IDOCK:   -3.45 KCAL/MOL
REMARK 922        TOTAL FREE ENERGY PREDICTED BY IDOCK:   -4.77 KCAL/MOL
REMARK 923 INTER-LIGAND FREE ENERGY PREDICTED BY IDOCK:   -4.37 KCAL/MOL
REMARK 924 INTRA-LIGAND FREE ENERGY PREDICTED BY IDOCK:   -0.40 KCAL/MOL
REMARK 927      BINDING AFFINITY PREDICTED BY RF-SCORE:    0.00 PKD
ROOT
HETATM    1  N   UNL     1     -12.257  12.652  65.324  1.00  0.00    -0.490 NA 
HETATM    2  C   UNL     1     -11.217  12.216  66.117  1.00  0.00    -0.338 A  
HETATM    3  H2  UNL     1     -13.078  12.069  65.158  1.00  0.00     0.000 HD 
HETATM    4  H1  UNL     1     -12.174  13.581  64.911  1.00  0.00     0.000 HD 
HETATM    5  N   UNL     1     -11.326  10.999  66.658  1.00  0.00    -0.260 NA 
HETATM    6  C   UNL     1     -10.235  10.659  67.364  1.00  0.00    -0.204 A  
HETATM    7  C   UNL     1      -9.095  11.420  67.561  1.00  0.00    -0.157 A  
HETATM    8  N   UNL     1      -8.187  10.719  68.334  1.00  0.00    -0.122 NA 
HETATM    9  C   UNL     1      -9.099  12.712  66.996  1.00  0.00    -0.215 A  
HETATM   10  N   UNL     1     -10.205  13.080  66.286  1.00  0.00    -0.281 NA 
HETATM   11  N   UNL     1     -10.024   9.489  68.036  1.00  0.00    -0.159 NA 
HETATM   12  C   UNL     1      -8.777   9.566  68.598  1.00  0.00    -0.127 A  
ENDROOT
BRANCH   9  13
HETATM   13  N   UNL     1      -8.032  13.626  67.116  1.00  0.00    -0.357 NA 
HETATM   14  H   UNL     1      -7.441  13.858  66.317  1.00  0.00     0.000 HD 
BRANCH  13  15
HETATM   15  C   UNL     1      -7.801  14.230  68.430  1.00  0.00    -0.140 C  
HETATM   16  C   UNL     1      -7.156  15.586  68.547  1.00  0.00    -0.115 C  
HETATM   17  C   UNL     1      -8.591  15.400  68.942  1.00  0.00    -0.207 C  
ENDBRANCH  13  15
ENDBRANCH   9  13
BRANCH  11  18
HETATM   18  C   UNL     1     -11.007   8.417  68.146  1.00  0.00     0.208 C  
HETATM   19  C   UNL     1     -10.901   7.628  69.467  1.00  0.00    -0.171 C  
HETATM   20  C   UNL     1     -10.459   6.195  69.112  1.00  0.00    -0.310 C  
HETATM   21  C   UNL     1     -10.896   7.352  67.099  1.00  0.00    -0.340 C  
HETATM   22  C   UNL     1     -10.622   6.152  67.619  1.00  0.00    -0.340 C  
BRANCH  20  23
HETATM   23  C   UNL     1      -9.025   5.895  69.557  1.00  0.00    -0.129 C  
HETATM   24  O   UNL     1      -8.084   6.482  68.664  1.00  0.00    -0.115 OA 
HETATM   25  H   UNL     1      -7.194   6.296  68.940  1.00  0.00     0.000 HD 
ENDBRANCH  20  23
ENDBRANCH  11  18
TORSDOF 4
ENDMDL
MODEL      155
REMARK 921   NORMALIZED FREE ENERGY PREDICTED BY IDOCK:   -3.44 KCAL/MOL
REMARK 922        TOTAL FREE ENERGY PREDICTED BY IDOCK:   -4.77 KCAL/MOL
REMARK 923 INTER-LIGAND FREE ENERGY PREDICTED BY IDOCK:   -4.76 KCAL/MOL
REMARK 924 INTRA-LIGAND FREE ENERGY PREDICTED BY IDOCK:   -0.01 KCAL/MOL
REMARK 927      BINDING AFFINITY PREDICTED BY RF-SCORE:    0.00 PKD
ROOT
HETATM    1  N   UNL     1     -10.911  15.776  67.312  1.00  0.00    -0.317 NA 
HETATM    2  C   UNL     1      -9.536  15.848  67.233  1.00  0.00    -0.217 A  
HETATM    3  H2  UNL     1     -11.488  16.617  67.299  1.00  0.00     0.000 HD 
HETATM    4  H1  UNL     1     -11.327  14.848  67.384  1.00  0.00     0.000 HD 
HETATM    5  N   UNL     1      -8.991  17.064  67.140  1.00  0.00    -0.218 NA 
HETATM    6  C   UNL     1      -7.648  17.017  67.124  1.00  0.00    -0.174 A  
HETATM    7  C   UNL     1      -6.850  15.887  67.187  1.00  0.00    -0.164 A  
HETATM    8  N   UNL     1      -5.516  16.251  67.158  1.00  0.00    -0.325 NA 
HETATM    9  C   UNL     1      -7.521  14.648  67.228  1.00  0.00    -0.117 A  
HETATM   10  N   UNL     1      -8.885  14.676  67.231  1.00  0.00    -0.195 NA 
HETATM   11  N   UNL     1      -6.790  18.077  67.041  1.00  0.00    -0.184 NA 
HETATM   12  C   UNL     1      -5.519  17.569  67.072  1.00  0.00    -0.145 A  
ENDROOT
BRANCH   9  13
HETATM   13  N   UNL     1      -6.865  13.400  67.273  1.00  0.00    -0.409 NA 
HETATM   14  H   UNL     1      -6.972  12.718  66.522  1.00  0.00     0.000 HD 
BRANCH  13  15
HETATM   15  C   UNL     1      -6.024  13.119  68.439  1.00  0.00    -0.083 C  
HETATM   16  C   UNL     1      -6.525  12.232  69.548  1.00  0.00    -0.094 C  
HETATM   17  C   UNL     1      -5.386  11.782  68.683  1.00  0.00    -0.049 C  
ENDBRANCH  13  15
ENDBRANCH   9  13
BRANCH  11  18
HETATM   18  C   UNL     1      -7.213  19.464  66.890  1.00  0.00    -0.209 C  
HETATM   19  C   UNL     1      -7.685  20.104  68.212  1.00  0.00    -0.186 C  
HETATM   20  C   UNL     1      -9.192  20.395  68.068  1.00  0.00    -0.187 C  
HETATM   21  C   UNL     1      -8.378  19.671  65.971  1.00  0.00    -0.294 C  
HETATM   22  C   UNL     1      -9.436  20.191  66.600  1.00  0.00    -0.517 C  
BRANCH  20  23
HETATM   23  C   UNL     1     -10.053  19.479  68.942  1.00  0.00    -0.401 C  
HETATM   24  O   UNL     1     -11.026  18.798  68.156  1.00  0.00    -0.269 OA 
HETATM   25  H   UNL     1     -11.561  18.230  68.698  1.00  0.00     0.000 HD 
ENDBRANCH  20  23
ENDBRANCH  11  18
TORSDOF 4
ENDMDL
MODEL      156
REMARK 921   NORMALIZED FREE ENERGY PREDICTED BY IDOCK:   -3.41 KCAL/MOL
REMARK 922        TOTAL FREE ENERGY PREDICTED BY IDOCK:   -4.73 KCAL/MOL
REMARK 923 INTER-LIGAND FREE ENERGY PREDICTED BY IDOCK:   -5.08 KCAL/MOL
REMARK 924 INTRA-LIGAND FREE ENERGY PREDICTED BY IDOCK:    0.36 KCAL/MOL
REMARK 927      BINDING AFFINITY PREDICTED BY RF-SCORE:    0.00 PKD
ROOT
HETATM    1  N   UNL     1     -11.402   5.900  66.227  1.00  0.00    -0.622 NA 
HETATM    2  C   UNL     1     -10.543   6.575  67.068  1.00  0.00    -0.332 A  
HETATM    3  H2  UNL     1     -11.291   5.937  65.213  1.00  0.00     0.000 HD 
HETATM    4  H1  UNL     1     -12.154   5.363  66.659  1.00  0.00     0.000 HD 
HETATM    5  N   UNL     1      -9.558   7.279  66.501  1.00  0.00    -0.173 NA 
HETATM    6  C   UNL     1      -8.818   7.936  67.411  1.00  0.00    -0.127 A  
HETATM    7  C   UNL     1      -8.985   7.933  68.785  1.00  0.00    -0.141 A  
HETATM    8  N   UNL     1      -8.033   8.744  69.377  1.00  0.00    -0.098 NA 
HETATM    9  C   UNL     1     -10.018   7.116  69.289  1.00  0.00    -0.168 A  
HETATM   10  N   UNL     1     -10.771   6.430  68.381  1.00  0.00    -0.257 NA 
HETATM   11  N   UNL     1      -7.745   8.745  67.165  1.00  0.00    -0.095 NA 
HETATM   12  C   UNL     1      -7.310   9.214  68.376  1.00  0.00    -0.078 A  
ENDROOT
BRANCH   9  13
HETATM   13  N   UNL     1     -10.313   6.979  70.661  1.00  0.00    -0.206 NA 
HETATM   14  H   UNL     1      -9.705   6.445  71.282  1.00  0.00     0.000 HD 
BRANCH  13  15
HETATM   15  C   UNL     1     -11.524   7.633  71.163  1.00  0.00    -0.275 C  
HETATM   16  C   UNL     1     -11.597   8.119  72.586  1.00  0.00    -0.441 C  
HETATM   17  C   UNL     1     -11.597   9.104  71.455  1.00  0.00    -0.411 C  
ENDBRANCH  13  15
ENDBRANCH   9  13
BRANCH  11  18
HETATM   18  C   UNL     1      -7.179   8.978  65.842  1.00  0.00    -0.093 C  
HETATM   19  C   UNL     1      -7.614  10.323  65.224  1.00  0.00    -0.143 C  
HETATM   20  C   UNL     1      -8.483  10.002  63.992  1.00  0.00    -0.179 C  
HETATM   21  C   UNL     1      -7.576   7.976  64.802  1.00  0.00    -0.105 C  
HETATM   22  C   UNL     1      -8.260   8.529  63.796  1.00  0.00    -0.126 C  
BRANCH  20  23
HETATM   23  C   UNL     1      -9.959  10.351  64.207  1.00  0.00    -0.298 C  
HETATM   24  O   UNL     1     -10.504  10.981  63.053  1.00  0.00    -0.716 OA 
HETATM   25  H   UNL     1     -11.419  11.197  63.186  1.00  0.00     0.000 HD 
ENDBRANCH  20  23
ENDBRANCH  11  18
TORSDOF 4
ENDMDL
MODEL      157
REMARK 921   NORMALIZED FREE ENERGY PREDICTED BY IDOCK:   -3.40 KCAL/MOL
REMARK 922        TOTAL FREE ENERGY PREDICTED BY IDOCK:   -4.71 KCAL/MOL
REMARK 923 INTER-LIGAND FREE ENERGY PREDICTED BY IDOCK:   -4.14 KCAL/MOL
REMARK 924 INTRA-LIGAND FREE ENERGY PREDICTED BY IDOCK:   -0.57 KCAL/MOL
REMARK 927      BINDING AFFINITY PREDICTED BY RF-SCORE:    0.00 PKD
ROOT
HETATM    1  N   UNL     1      -6.147   8.580  73.248  1.00  0.00    -0.094 NA 
HETATM    2  C   UNL     1      -7.265   8.816  72.476  1.00  0.00     0.127 A  
HETATM    3  H2  UNL     1      -5.218   8.864  72.937  1.00  0.00     0.000 HD 
HETATM    4  H1  UNL     1      -6.287   8.109  74.142  1.00  0.00     0.000 HD 
HETATM    5  N   UNL     1      -7.082   9.432  71.305  1.00  0.00    -0.312 NA 
HETATM    6  C   UNL     1      -8.229   9.561  70.615  1.00  0.00    -0.112 A  
HETATM    7  C   UNL     1      -9.489   9.139  71.003  1.00  0.00    -0.274 A  
HETATM    8  N   UNL     1     -10.410   9.439  70.016  1.00  0.00    -0.216 NA 
HETATM    9  C   UNL     1      -9.588   8.549  72.280  1.00  0.00    -0.307 A  
HETATM   10  N   UNL     1      -8.435   8.422  73.000  1.00  0.00    -0.353 NA 
HETATM   11  N   UNL     1      -8.387  10.137  69.387  1.00  0.00    -0.156 NA 
HETATM   12  C   UNL     1      -9.714  10.034  69.064  1.00  0.00    -0.199 A  
ENDROOT
BRANCH   9  13
HETATM   13  N   UNL     1     -10.795   8.083  72.839  1.00  0.00    -0.372 NA 
HETATM   14  H   UNL     1     -11.369   8.682  73.433  1.00  0.00     0.000 HD 
BRANCH  13  15
HETATM   15  C   UNL     1     -11.195   6.707  72.536  1.00  0.00    -0.266 C  
HETATM   16  C   UNL     1     -12.037   6.404  71.324  1.00  0.00    -0.230 C  
HETATM   17  C   UNL     1     -10.619   5.920  71.395  1.00  0.00    -0.309 C  
ENDBRANCH  13  15
ENDBRANCH   9  13
BRANCH  11  18
HETATM   18  C   UNL     1      -7.314  10.777  68.636  1.00  0.00    -0.097 C  
HETATM   19  C   UNL     1      -7.428  12.315  68.605  1.00  0.00    -0.100 C  
HETATM   20  C   UNL     1      -7.704  12.725  67.145  1.00  0.00    -0.072 C  
HETATM   21  C   UNL     1      -7.253  10.406  67.186  1.00  0.00    -0.091 C  
HETATM   22  C   UNL     1      -7.442  11.457  66.383  1.00  0.00    -0.013 C  
BRANCH  20  23
HETATM   23  C   UNL     1      -9.128  13.251  66.942  1.00  0.00    -0.232 C  
HETATM   24  O   UNL     1      -9.538  13.095  65.587  1.00  0.00    -0.463 OA 
HETATM   25  H   UNL     1     -10.421  13.421  65.461  1.00  0.00     0.000 HD 
ENDBRANCH  20  23
ENDBRANCH  11  18
TORSDOF 4
ENDMDL
MODEL      158
REMARK 921   NORMALIZED FREE ENERGY PREDICTED BY IDOCK:   -3.39 KCAL/MOL
REMARK 922        TOTAL FREE ENERGY PREDICTED BY IDOCK:   -4.70 KCAL/MOL
REMARK 923 INTER-LIGAND FREE ENERGY PREDICTED BY IDOCK:   -4.35 KCAL/MOL
REMARK 924 INTRA-LIGAND FREE ENERGY PREDICTED BY IDOCK:   -0.35 KCAL/MOL
REMARK 927      BINDING AFFINITY PREDICTED BY RF-SCORE:    0.00 PKD
ROOT
HETATM    1  N   UNL     1     -11.295   6.133  67.471  1.00  0.00    -0.531 NA 
HETATM    2  C   UNL     1     -10.796   6.628  68.658  1.00  0.00    -0.262 A  
HETATM    3  H2  UNL     1     -10.782   6.235  66.596  1.00  0.00     0.000 HD 
HETATM    4  H1  UNL     1     -12.199   5.661  67.505  1.00  0.00     0.000 HD 
HETATM    5  N   UNL     1      -9.613   7.247  68.613  1.00  0.00    -0.141 NA 
HETATM    6  C   UNL     1      -9.251   7.734  69.812  1.00  0.00    -0.150 A  
HETATM    7  C   UNL     1      -9.958   7.644  70.999  1.00  0.00    -0.182 A  
HETATM    8  N   UNL     1      -9.263   8.282  72.011  1.00  0.00    -0.181 NA 
HETATM    9  C   UNL     1     -11.169   6.924  70.955  1.00  0.00    -0.289 A  
HETATM   10  N   UNL     1     -11.546   6.410  69.748  1.00  0.00    -0.412 NA 
HETATM   11  N   UNL     1      -8.108   8.420  70.108  1.00  0.00    -0.105 NA 
HETATM   12  C   UNL     1      -8.161   8.736  71.440  1.00  0.00    -0.153 A  
ENDROOT
BRANCH   9  13
HETATM   13  N   UNL     1     -12.003   6.718  72.073  1.00  0.00    -0.344 NA 
HETATM   14  H   UNL     1     -11.961   5.852  72.611  1.00  0.00     0.000 HD 
BRANCH  13  15
HETATM   15  C   UNL     1     -12.931   7.792  72.434  1.00  0.00     0.064 C  
HETATM   16  C   UNL     1     -12.941   9.086  71.663  1.00  0.00    -0.418 C  
HETATM   17  C   UNL     1     -14.120   8.161  71.595  1.00  0.00    -0.504 C  
ENDBRANCH  13  15
ENDBRANCH   9  13
BRANCH  11  18
HETATM   18  C   UNL     1      -7.039   8.685  69.153  1.00  0.00    -0.063 C  
HETATM   19  C   UNL     1      -5.819   9.387  69.784  1.00  0.00    -0.036 C  
HETATM   20  C   UNL     1      -5.728  10.795  69.163  1.00  0.00    -0.040 C  
HETATM   21  C   UNL     1      -7.415   9.596  68.025  1.00  0.00    -0.082 C  
HETATM   22  C   UNL     1      -6.697  10.723  68.017  1.00  0.00    -0.064 C  
BRANCH  20  23
HETATM   23  C   UNL     1      -6.081  11.901  70.163  1.00  0.00    -0.137 C  
HETATM   24  O   UNL     1      -6.965  12.851  69.577  1.00  0.00    -0.319 OA 
HETATM   25  H   UNL     1      -7.184  13.537  70.196  1.00  0.00     0.000 HD 
ENDBRANCH  20  23
ENDBRANCH  11  18
TORSDOF 4
ENDMDL
MODEL      159
REMARK 921   NORMALIZED FREE ENERGY PREDICTED BY IDOCK:   -3.38 KCAL/MOL
REMARK 922        TOTAL FREE ENERGY PREDICTED BY IDOCK:   -4.69 KCAL/MOL
REMARK 923 INTER-LIGAND FREE ENERGY PREDICTED BY IDOCK:   -4.15 KCAL/MOL
REMARK 924 INTRA-LIGAND FREE ENERGY PREDICTED BY IDOCK:   -0.53 KCAL/MOL
REMARK 927      BINDING AFFINITY PREDICTED BY RF-SCORE:    0.00 PKD
ROOT
HETATM    1  N   UNL     1     -10.359   9.843  66.478  1.00  0.00    -0.214 NA 
HETATM    2  C   UNL     1      -9.811   8.779  67.163  1.00  0.00    -0.207 A  
HETATM    3  H2  UNL     1     -10.845  10.596  66.967  1.00  0.00     0.000 HD 
HETATM    4  H1  UNL     1     -10.259   9.848  65.463  1.00  0.00     0.000 HD 
HETATM    5  N   UNL     1      -9.943   8.773  68.492  1.00  0.00    -0.177 NA 
HETATM    6  C   UNL     1      -9.421   7.667  69.048  1.00  0.00    -0.150 A  
HETATM    7  C   UNL     1      -8.799   6.616  68.394  1.00  0.00    -0.121 A  
HETATM    8  N   UNL     1      -8.408   5.656  69.310  1.00  0.00    -0.106 NA 
HETATM    9  C   UNL     1      -8.660   6.742  66.997  1.00  0.00    -0.114 A  
HETATM   10  N   UNL     1      -9.173   7.866  66.417  1.00  0.00    -0.184 NA 
HETATM   11  N   UNL     1      -9.394   7.350  70.376  1.00  0.00    -0.162 NA 
HETATM   12  C   UNL     1      -8.783   6.129  70.486  1.00  0.00    -0.142 A  
ENDROOT
BRANCH   9  13
HETATM   13  N   UNL     1      -8.036   5.778  66.179  1.00  0.00    -0.101 NA 
HETATM   14  H   UNL     1      -7.094   5.923  65.815  1.00  0.00     0.000 HD 
BRANCH  13  15
HETATM   15  C   UNL     1      -8.789   4.560  65.872  1.00  0.00    -0.121 C  
HETATM   16  C   UNL     1     -10.289   4.536  65.996  1.00  0.00    -0.276 C  
HETATM   17  C   UNL     1      -9.645   4.416  64.647  1.00  0.00    -0.128 C  
ENDBRANCH  13  15
ENDBRANCH   9  13
BRANCH  11  18
HETATM   18  C   UNL     1      -9.889   8.218  71.437  1.00  0.00    -0.184 C  
HETATM   19  C   UNL     1      -9.399   7.805  72.840  1.00  0.00    -0.278 C  
HETATM   20  C   UNL     1     -10.634   7.346  73.641  1.00  0.00    -0.316 C  
HETATM   21  C   UNL     1     -11.379   8.243  71.586  1.00  0.00    -0.329 C  
HETATM   22  C   UNL     1     -11.780   7.793  72.779  1.00  0.00    -0.312 C  
BRANCH  20  23
HETATM   23  C   UNL     1     -10.641   5.836  73.895  1.00  0.00    -0.241 C  
HETATM   24  O   UNL     1     -11.322   5.150  72.848  1.00  0.00    -0.289 OA 
HETATM   25  H   UNL     1     -11.327   4.213  73.005  1.00  0.00     0.000 HD 
ENDBRANCH  20  23
ENDBRANCH  11  18
TORSDOF 4
ENDMDL
MODEL      160
REMARK 921   NORMALIZED FREE ENERGY PREDICTED BY IDOCK:   -3.36 KCAL/MOL
REMARK 922        TOTAL FREE ENERGY PREDICTED BY IDOCK:   -4.66 KCAL/MOL
REMARK 923 INTER-LIGAND FREE ENERGY PREDICTED BY IDOCK:   -4.12 KCAL/MOL
REMARK 924 INTRA-LIGAND FREE ENERGY PREDICTED BY IDOCK:   -0.54 KCAL/MOL
REMARK 927      BINDING AFFINITY PREDICTED BY RF-SCORE:    0.00 PKD
ROOT
HETATM    1  N   UNL     1     -11.512   4.506  65.028  1.00  0.00    -1.108 NA 
HETATM    2  C   UNL     1     -10.544   4.782  65.970  1.00  0.00    -0.254 A  
HETATM    3  H2  UNL     1     -12.352   5.079  64.945  1.00  0.00     0.000 HD 
HETATM    4  H1  UNL     1     -11.354   3.705  64.416  1.00  0.00     0.000 HD 
HETATM    5  N   UNL     1     -10.751   5.831  66.772  1.00  0.00    -0.308 NA 
HETATM    6  C   UNL     1      -9.774   5.972  67.683  1.00  0.00    -0.115 A  
HETATM    7  C   UNL     1      -8.652   5.175  67.837  1.00  0.00    -0.103 A  
HETATM    8  N   UNL     1      -7.889   5.635  68.896  1.00  0.00    -0.095 NA 
HETATM    9  C   UNL     1      -8.495   4.127  66.907  1.00  0.00    -0.100 A  
HETATM   10  N   UNL     1      -9.472   3.977  65.966  1.00  0.00    -0.171 NA 
HETATM   11  N   UNL     1      -9.685   6.935  68.649  1.00  0.00    -0.136 NA 
HETATM   12  C   UNL     1      -8.539   6.687  69.358  1.00  0.00    -0.135 A  
ENDROOT
BRANCH   9  13
HETATM   13  N   UNL     1      -7.404   3.235  66.905  1.00  0.00    -0.069 NA 
HETATM   14  H   UNL     1      -7.425   2.372  67.450  1.00  0.00     0.000 HD 
BRANCH  13  15
HETATM   15  C   UNL     1      -6.238   3.591  66.093  1.00  0.00    -0.032 C  
HETATM   16  C   UNL     1      -6.312   4.726  65.106  1.00  0.00    -0.035 C  
HETATM   17  C   UNL     1      -5.435   4.839  66.319  1.00  0.00    -0.013 C  
ENDBRANCH  13  15
ENDBRANCH   9  13
BRANCH  11  18
HETATM   18  C   UNL     1     -10.635   8.029  68.806  1.00  0.00    -0.118 C  
HETATM   19  C   UNL     1     -10.293   9.260  67.942  1.00  0.00    -0.279 C  
HETATM   20  C   UNL     1      -9.928  10.409  68.902  1.00  0.00    -0.208 C  
HETATM   21  C   UNL     1     -10.720   8.593  70.191  1.00  0.00    -0.244 C  
HETATM   22  C   UNL     1     -10.360   9.880  70.241  1.00  0.00    -0.339 C  
BRANCH  20  23
HETATM   23  C   UNL     1      -8.438  10.759  68.860  1.00  0.00    -0.149 C  
HETATM   24  O   UNL     1      -7.993  10.921  67.517  1.00  0.00    -0.112 OA 
HETATM   25  H   UNL     1      -7.069  11.139  67.490  1.00  0.00     0.000 HD 
ENDBRANCH  20  23
ENDBRANCH  11  18
TORSDOF 4
ENDMDL
MODEL      161
REMARK 921   NORMALIZED FREE ENERGY PREDICTED BY IDOCK:   -3.35 KCAL/MOL
REMARK 922        TOTAL FREE ENERGY PREDICTED BY IDOCK:   -4.65 KCAL/MOL
REMARK 923 INTER-LIGAND FREE ENERGY PREDICTED BY IDOCK:   -4.59 KCAL/MOL
REMARK 924 INTRA-LIGAND FREE ENERGY PREDICTED BY IDOCK:   -0.06 KCAL/MOL
REMARK 927      BINDING AFFINITY PREDICTED BY RF-SCORE:    0.00 PKD
ROOT
HETATM    1  N   UNL     1      -8.533   8.519  74.130  1.00  0.00    -0.375 NA 
HETATM    2  C   UNL     1      -9.310   7.844  73.213  1.00  0.00    -0.286 A  
HETATM    3  H2  UNL     1      -7.910   9.276  73.845  1.00  0.00     0.000 HD 
HETATM    4  H1  UNL     1      -8.606   8.232  75.106  1.00  0.00     0.000 HD 
HETATM    5  N   UNL     1      -9.214   8.220  71.934  1.00  0.00    -0.185 NA 
HETATM    6  C   UNL     1      -9.972   7.460  71.125  1.00  0.00    -0.185 A  
HETATM    7  C   UNL     1     -10.785   6.402  71.492  1.00  0.00    -0.238 A  
HETATM    8  N   UNL     1     -11.392   5.864  70.371  1.00  0.00    -0.244 NA 
HETATM    9  C   UNL     1     -10.862   6.119  72.871  1.00  0.00    -0.260 A  
HETATM   10  N   UNL     1     -10.109   6.889  73.709  1.00  0.00    -0.305 NA 
HETATM   11  N   UNL     1     -10.096   7.577  69.770  1.00  0.00    -0.191 NA 
HETATM   12  C   UNL     1     -10.954   6.592  69.359  1.00  0.00    -0.337 A  
ENDROOT
BRANCH   9  13
HETATM   13  N   UNL     1     -11.656   5.091  73.419  1.00  0.00    -0.479 NA 
HETATM   14  H   UNL     1     -12.674   5.161  73.436  1.00  0.00     0.000 HD 
BRANCH  13  15
HETATM   15  C   UNL     1     -10.967   3.919  73.963  1.00  0.00    -0.159 C  
HETATM   16  C   UNL     1     -11.400   2.529  73.576  1.00  0.00    -0.295 C  
HETATM   17  C   UNL     1     -10.061   3.048  73.141  1.00  0.00    -0.208 C  
ENDBRANCH  13  15
ENDBRANCH   9  13
BRANCH  11  18
HETATM   18  C   UNL     1      -9.454   8.615  68.973  1.00  0.00    -0.153 C  
HETATM   19  C   UNL     1      -8.096   8.179  68.386  1.00  0.00    -0.128 C  
HETATM   20  C   UNL     1      -7.008   9.042  69.054  1.00  0.00    -0.063 C  
HETATM   21  C   UNL     1      -9.119   9.867  69.723  1.00  0.00    -0.249 C  
HETATM   22  C   UNL     1      -7.804  10.109  69.750  1.00  0.00    -0.175 C  
BRANCH  20  23
HETATM   23  C   UNL     1      -6.130   8.239  70.018  1.00  0.00    -0.028 C  
HETATM   24  O   UNL     1      -6.753   7.004  70.361  1.00  0.00    -0.050 OA 
HETATM   25  H   UNL     1      -6.209   6.506  70.958  1.00  0.00     0.000 HD 
ENDBRANCH  20  23
ENDBRANCH  11  18
TORSDOF 4
ENDMDL
MODEL      162
REMARK 921   NORMALIZED FREE ENERGY PREDICTED BY IDOCK:   -3.30 KCAL/MOL
REMARK 922        TOTAL FREE ENERGY PREDICTED BY IDOCK:   -4.59 KCAL/MOL
REMARK 923 INTER-LIGAND FREE ENERGY PREDICTED BY IDOCK:   -4.79 KCAL/MOL
REMARK 924 INTRA-LIGAND FREE ENERGY PREDICTED BY IDOCK:    0.20 KCAL/MOL
REMARK 927      BINDING AFFINITY PREDICTED BY RF-SCORE:    0.00 PKD
ROOT
HETATM    1  N   UNL     1     -11.637  12.978  69.601  1.00  0.00    -0.430 NA 
HETATM    2  C   UNL     1     -11.236  11.704  69.260  1.00  0.00    -0.265 A  
HETATM    3  H2  UNL     1     -11.684  13.724  68.906  1.00  0.00     0.000 HD 
HETATM    4  H1  UNL     1     -11.885  13.145  70.576  1.00  0.00     0.000 HD 
HETATM    5  N   UNL     1     -10.910  11.486  67.982  1.00  0.00    -0.201 NA 
HETATM    6  C   UNL     1     -10.484  10.228  67.776  1.00  0.00    -0.226 A  
HETATM    7  C   UNL     1     -10.371   9.218  68.717  1.00  0.00    -0.211 A  
HETATM    8  N   UNL     1      -9.882   8.071  68.120  1.00  0.00    -0.164 NA 
HETATM    9  C   UNL     1     -10.791   9.532  70.026  1.00  0.00    -0.252 A  
HETATM   10  N   UNL     1     -11.240  10.801  70.251  1.00  0.00    -0.285 NA 
HETATM   11  N   UNL     1     -10.074   9.684  66.592  1.00  0.00    -0.230 NA 
HETATM   12  C   UNL     1      -9.715   8.388  66.848  1.00  0.00    -0.227 A  
ENDROOT
BRANCH   9  13
HETATM   13  N   UNL     1     -10.763   8.619  71.100  1.00  0.00    -0.226 NA 
HETATM   14  H   UNL     1     -10.061   8.689  71.837  1.00  0.00     0.000 HD 
BRANCH  13  15
HETATM   15  C   UNL     1     -11.780   7.564  71.119  1.00  0.00    -0.291 C  
HETATM   16  C   UNL     1     -11.395   6.126  70.888  1.00  0.00    -0.355 C  
HETATM   17  C   UNL     1     -11.897   6.563  72.232  1.00  0.00    -0.299 C  
ENDBRANCH  13  15
ENDBRANCH   9  13
BRANCH  11  18
HETATM   18  C   UNL     1     -10.094  10.388  65.315  1.00  0.00    -0.300 C  
HETATM   19  C   UNL     1      -9.072  11.540  65.240  1.00  0.00    -0.027 C  
HETATM   20  C   UNL     1      -9.869  12.856  65.145  1.00  0.00    -0.087 C  
HETATM   21  C   UNL     1     -11.393  11.057  64.986  1.00  0.00     0.234 C  
HETATM   22  C   UNL     1     -11.270  12.383  64.874  1.00  0.00    -0.353 C  
BRANCH  20  23
HETATM   23  C   UNL     1      -9.768  13.697  66.420  1.00  0.00    -0.292 C  
HETATM   24  O   UNL     1     -10.976  14.417  66.650  1.00  0.00    -0.306 OA 
HETATM   25  H   UNL     1     -10.913  14.938  67.441  1.00  0.00     0.000 HD 
ENDBRANCH  20  23
ENDBRANCH  11  18
TORSDOF 4
ENDMDL
MODEL      163
REMARK 921   NORMALIZED FREE ENERGY PREDICTED BY IDOCK:   -3.28 KCAL/MOL
REMARK 922        TOTAL FREE ENERGY PREDICTED BY IDOCK:   -4.56 KCAL/MOL
REMARK 923 INTER-LIGAND FREE ENERGY PREDICTED BY IDOCK:   -4.03 KCAL/MOL
REMARK 924 INTRA-LIGAND FREE ENERGY PREDICTED BY IDOCK:   -0.53 KCAL/MOL
REMARK 927      BINDING AFFINITY PREDICTED BY RF-SCORE:    0.00 PKD
ROOT
HETATM    1  N   UNL     1      -5.514  10.273  67.177  1.00  0.00    -0.041 NA 
HETATM    2  C   UNL     1      -6.788   9.960  67.601  1.00  0.00    -0.084 A  
HETATM    3  H2  UNL     1      -5.318  11.142  66.681  1.00  0.00     0.000 HD 
HETATM    4  H1  UNL     1      -4.775   9.600  67.380  1.00  0.00     0.000 HD 
HETATM    5  N   UNL     1      -7.756  10.842  67.335  1.00  0.00    -0.105 NA 
HETATM    6  C   UNL     1      -8.961  10.409  67.745  1.00  0.00    -0.131 A  
HETATM    7  C   UNL     1      -9.249   9.212  68.378  1.00  0.00    -0.132 A  
HETATM    8  N   UNL     1     -10.607   9.126  68.627  1.00  0.00    -0.203 NA 
HETATM    9  C   UNL     1      -8.152   8.374  68.664  1.00  0.00    -0.122 A  
HETATM   10  N   UNL     1      -6.919   8.803  68.267  1.00  0.00    -0.072 NA 
HETATM   11  N   UNL     1     -10.153  11.065  67.621  1.00  0.00    -0.179 NA 
HETATM   12  C   UNL     1     -11.116  10.252  68.159  1.00  0.00    -0.264 A  
ENDROOT
BRANCH   9  13
HETATM   13  N   UNL     1      -8.263   7.132  69.321  1.00  0.00    -0.127 NA 
HETATM   14  H   UNL     1      -9.022   6.945  69.976  1.00  0.00     0.000 HD 
BRANCH  13  15
HETATM   15  C   UNL     1      -7.247   6.118  69.028  1.00  0.00    -0.083 C  
HETATM   16  C   UNL     1      -6.276   5.679  70.092  1.00  0.00    -0.026 C  
HETATM   17  C   UNL     1      -7.307   4.720  69.574  1.00  0.00    -0.056 C  
ENDBRANCH  13  15
ENDBRANCH   9  13
BRANCH  11  18
HETATM   18  C   UNL     1     -10.300  12.404  67.064  1.00  0.00    -0.220 C  
HETATM   19  C   UNL     1     -10.142  13.521  68.115  1.00  0.00    -0.250 C  
HETATM   20  C   UNL     1     -11.509  14.221  68.249  1.00  0.00    -0.334 C  
HETATM   21  C   UNL     1     -11.639  12.689  66.456  1.00  0.00    -0.441 C  
HETATM   22  C   UNL     1     -12.282  13.680  67.080  1.00  0.00    -0.340 C  
BRANCH  20  23
HETATM   23  C   UNL     1     -12.189  13.929  69.591  1.00  0.00    -0.321 C  
HETATM   24  O   UNL     1     -11.280  14.119  70.671  1.00  0.00    -0.503 OA 
HETATM   25  H   UNL     1     -11.701  13.938  71.503  1.00  0.00     0.000 HD 
ENDBRANCH  20  23
ENDBRANCH  11  18
TORSDOF 4
ENDMDL
MODEL      164
REMARK 921   NORMALIZED FREE ENERGY PREDICTED BY IDOCK:   -3.26 KCAL/MOL
REMARK 922        TOTAL FREE ENERGY PREDICTED BY IDOCK:   -4.54 KCAL/MOL
REMARK 923 INTER-LIGAND FREE ENERGY PREDICTED BY IDOCK:   -4.03 KCAL/MOL
REMARK 924 INTRA-LIGAND FREE ENERGY PREDICTED BY IDOCK:   -0.51 KCAL/MOL
REMARK 927      BINDING AFFINITY PREDICTED BY RF-SCORE:    0.00 PKD
ROOT
HETATM    1  N   UNL     1      -9.703   5.813  65.750  1.00  0.00    -0.370 NA 
HETATM    2  C   UNL     1     -10.018   6.216  67.031  1.00  0.00    -0.162 A  
HETATM    3  H2  UNL     1      -9.359   4.872  65.559  1.00  0.00     0.000 HD 
HETATM    4  H1  UNL     1      -9.829   6.495  65.002  1.00  0.00     0.000 HD 
HETATM    5  N   UNL     1      -9.853   5.323  68.012  1.00  0.00    -0.142 NA 
HETATM    6  C   UNL     1     -10.138   5.840  69.220  1.00  0.00    -0.205 A  
HETATM    7  C   UNL     1     -10.561   7.128  69.500  1.00  0.00    -0.234 A  
HETATM    8  N   UNL     1     -10.736   7.280  70.863  1.00  0.00    -0.231 NA 
HETATM    9  C   UNL     1     -10.759   7.977  68.392  1.00  0.00    -0.016 A  
HETATM   10  N   UNL     1     -10.487   7.466  67.156  1.00  0.00    -0.303 NA 
HETATM   11  N   UNL     1     -10.068   5.198  70.423  1.00  0.00    -0.243 NA 
HETATM   12  C   UNL     1     -10.429   6.105  71.384  1.00  0.00    -0.225 A  
ENDROOT
BRANCH   9  13
HETATM   13  N   UNL     1     -11.206   9.311  68.494  1.00  0.00    -0.450 NA 
HETATM   14  H   UNL     1     -12.058   9.545  69.005  1.00  0.00     0.000 HD 
BRANCH  13  15
HETATM   15  C   UNL     1     -10.404  10.347  67.841  1.00  0.00    -0.190 C  
HETATM   16  C   UNL     1     -11.039  11.310  66.873  1.00  0.00    -0.339 C  
HETATM   17  C   UNL     1     -10.511  11.804  68.187  1.00  0.00    -0.221 C  
ENDBRANCH  13  15
ENDBRANCH   9  13
BRANCH  11  18
HETATM   18  C   UNL     1      -9.722   3.791  70.584  1.00  0.00    -0.165 C  
HETATM   19  C   UNL     1     -10.142   3.214  71.952  1.00  0.00    -0.152 C  
HETATM   20  C   UNL     1      -8.851   2.864  72.718  1.00  0.00    -0.096 C  
HETATM   21  C   UNL     1      -8.256   3.492  70.519  1.00  0.00    -0.071 C  
HETATM   22  C   UNL     1      -7.790   2.974  71.660  1.00  0.00    -0.056 C  
BRANCH  20  23
HETATM   23  C   UNL     1      -8.600   3.799  73.904  1.00  0.00    -0.086 C  
HETATM   24  O   UNL     1      -7.340   4.452  73.777  1.00  0.00    -0.073 OA 
HETATM   25  H   UNL     1      -7.184   5.032  74.512  1.00  0.00     0.000 HD 
ENDBRANCH  20  23
ENDBRANCH  11  18
TORSDOF 4
ENDMDL
MODEL      165
REMARK 921   NORMALIZED FREE ENERGY PREDICTED BY IDOCK:   -3.24 KCAL/MOL
REMARK 922        TOTAL FREE ENERGY PREDICTED BY IDOCK:   -4.52 KCAL/MOL
REMARK 923 INTER-LIGAND FREE ENERGY PREDICTED BY IDOCK:   -4.02 KCAL/MOL
REMARK 924 INTRA-LIGAND FREE ENERGY PREDICTED BY IDOCK:   -0.50 KCAL/MOL
REMARK 927      BINDING AFFINITY PREDICTED BY RF-SCORE:    0.00 PKD
ROOT
HETATM    1  N   UNL     1     -11.449   4.225  64.737  1.00  0.00    -0.992 NA 
HETATM    2  C   UNL     1     -10.323   4.511  65.480  1.00  0.00    -0.229 A  
HETATM    3  H2  UNL     1     -12.372   4.179  65.168  1.00  0.00     0.000 HD 
HETATM    4  H1  UNL     1     -11.320   4.060  63.738  1.00  0.00     0.000 HD 
HETATM    5  N   UNL     1     -10.491   4.727  66.788  1.00  0.00    -0.190 NA 
HETATM    6  C   UNL     1      -9.325   4.942  67.420  1.00  0.00    -0.132 A  
HETATM    7  C   UNL     1      -8.060   4.962  66.857  1.00  0.00    -0.107 A  
HETATM    8  N   UNL     1      -7.113   5.203  67.835  1.00  0.00    -0.065 NA 
HETATM    9  C   UNL     1      -7.993   4.779  65.460  1.00  0.00    -0.095 A  
HETATM   10  N   UNL     1      -9.169   4.572  64.800  1.00  0.00    -0.155 NA 
HETATM   11  N   UNL     1      -9.146   5.189  68.751  1.00  0.00    -0.110 NA 
HETATM   12  C   UNL     1      -7.800   5.331  68.957  1.00  0.00    -0.082 A  
ENDROOT
BRANCH   9  13
HETATM   13  N   UNL     1      -6.791   4.790  64.724  1.00  0.00    -0.048 NA 
HETATM   14  H   UNL     1      -6.247   3.938  64.585  1.00  0.00     0.000 HD 
BRANCH  13  15
HETATM   15  C   UNL     1      -6.350   6.070  64.164  1.00  0.00    -0.030 C  
HETATM   16  C   UNL     1      -7.250   7.277  64.213  1.00  0.00    -0.075 C  
HETATM   17  C   UNL     1      -5.983   7.251  65.016  1.00  0.00    -0.037 C  
ENDBRANCH  13  15
ENDBRANCH   9  13
BRANCH  11  18
HETATM   18  C   UNL     1     -10.233   5.321  69.714  1.00  0.00    -0.294 C  
HETATM   19  C   UNL     1     -10.410   6.761  70.237  1.00  0.00    -0.224 C  
HETATM   20  C   UNL     1     -10.059   6.752  71.738  1.00  0.00    -0.195 C  
HETATM   21  C   UNL     1     -10.064   4.518  70.968  1.00  0.00    -0.222 C  
HETATM   22  C   UNL     1      -9.991   5.286  72.059  1.00  0.00    -0.238 C  
BRANCH  20  23
HETATM   23  C   UNL     1      -8.747   7.482  72.039  1.00  0.00    -0.111 C  
HETATM   24  O   UNL     1      -9.000   8.782  72.565  1.00  0.00    -0.386 OA 
HETATM   25  H   UNL     1      -8.187   9.235  72.752  1.00  0.00     0.000 HD 
ENDBRANCH  20  23
ENDBRANCH  11  18
TORSDOF 4
ENDMDL
MODEL      166
REMARK 921   NORMALIZED FREE ENERGY PREDICTED BY IDOCK:   -3.24 KCAL/MOL
REMARK 922        TOTAL FREE ENERGY PREDICTED BY IDOCK:   -4.51 KCAL/MOL
REMARK 923 INTER-LIGAND FREE ENERGY PREDICTED BY IDOCK:   -4.11 KCAL/MOL
REMARK 924 INTRA-LIGAND FREE ENERGY PREDICTED BY IDOCK:   -0.41 KCAL/MOL
REMARK 927      BINDING AFFINITY PREDICTED BY RF-SCORE:    0.00 PKD
ROOT
HETATM    1  N   UNL     1     -11.940  10.609  68.243  1.00  0.00    -0.814 NA 
HETATM    2  C   UNL     1     -10.714  10.421  68.845  1.00  0.00    -0.224 A  
HETATM    3  H2  UNL     1     -12.773  10.120  68.571  1.00  0.00     0.000 HD 
HETATM    4  H1  UNL     1     -11.980  11.258  67.457  1.00  0.00     0.000 HD 
HETATM    5  N   UNL     1     -10.661   9.571  69.875  1.00  0.00    -0.228 NA 
HETATM    6  C   UNL     1      -9.412   9.425  70.348  1.00  0.00    -0.268 A  
HETATM    7  C   UNL     1      -8.264  10.046  69.885  1.00  0.00    -0.159 A  
HETATM    8  N   UNL     1      -7.171   9.627  70.621  1.00  0.00    -0.229 NA 
HETATM    9  C   UNL     1      -8.432  10.967  68.830  1.00  0.00    -0.144 A  
HETATM   10  N   UNL     1      -9.697  11.138  68.346  1.00  0.00    -0.184 NA 
HETATM   11  N   UNL     1      -9.015   8.632  71.386  1.00  0.00    -0.202 NA 
HETATM   12  C   UNL     1      -7.659   8.779  71.510  1.00  0.00    -0.096 A  
ENDROOT
BRANCH   9  13
HETATM   13  N   UNL     1      -7.377  11.702  68.252  1.00  0.00    -0.087 NA 
HETATM   14  H   UNL     1      -7.219  11.698  67.244  1.00  0.00     0.000 HD 
BRANCH  13  15
HETATM   15  C   UNL     1      -6.514  12.471  69.152  1.00  0.00    -0.099 C  
HETATM   16  C   UNL     1      -5.205  13.033  68.663  1.00  0.00    -0.067 C  
HETATM   17  C   UNL     1      -6.328  13.956  69.034  1.00  0.00    -0.099 C  
ENDBRANCH  13  15
ENDBRANCH   9  13
BRANCH  11  18
HETATM   18  C   UNL     1      -9.923   7.842  72.209  1.00  0.00    -0.219 C  
HETATM   19  C   UNL     1      -9.486   7.756  73.686  1.00  0.00    -0.312 C  
HETATM   20  C   UNL     1      -9.120   6.287  73.972  1.00  0.00    -0.144 C  
HETATM   21  C   UNL     1     -10.051   6.406  71.804  1.00  0.00    -0.206 C  
HETATM   22  C   UNL     1      -9.639   5.567  72.759  1.00  0.00    -0.163 C  
BRANCH  20  23
HETATM   23  C   UNL     1      -7.615   6.086  74.177  1.00  0.00    -0.090 C  
HETATM   24  O   UNL     1      -6.991   5.661  72.969  1.00  0.00    -0.077 OA 
HETATM   25  H   UNL     1      -6.059   5.536  73.096  1.00  0.00     0.000 HD 
ENDBRANCH  20  23
ENDBRANCH  11  18
TORSDOF 4
ENDMDL
MODEL      167
REMARK 921   NORMALIZED FREE ENERGY PREDICTED BY IDOCK:   -3.23 KCAL/MOL
REMARK 922        TOTAL FREE ENERGY PREDICTED BY IDOCK:   -4.51 KCAL/MOL
REMARK 923 INTER-LIGAND FREE ENERGY PREDICTED BY IDOCK:   -3.97 KCAL/MOL
REMARK 924 INTRA-LIGAND FREE ENERGY PREDICTED BY IDOCK:   -0.53 KCAL/MOL
REMARK 927      BINDING AFFINITY PREDICTED BY RF-SCORE:    0.00 PKD
ROOT
HETATM    1  N   UNL     1     -11.399  10.514  68.631  1.00  0.00    -0.377 NA 
HETATM    2  C   UNL     1     -10.579   9.491  69.058  1.00  0.00    -0.219 A  
HETATM    3  H2  UNL     1     -11.842  10.491  67.712  1.00  0.00     0.000 HD 
HETATM    4  H1  UNL     1     -11.546  11.294  69.272  1.00  0.00     0.000 HD 
HETATM    5  N   UNL     1     -10.387   8.469  68.218  1.00  0.00    -0.209 NA 
HETATM    6  C   UNL     1      -9.530   7.560  68.715  1.00  0.00    -0.148 A  
HETATM    7  C   UNL     1      -8.886   7.599  69.940  1.00  0.00    -0.143 A  
HETATM    8  N   UNL     1      -8.075   6.488  70.081  1.00  0.00    -0.119 NA 
HETATM    9  C   UNL     1      -9.198   8.691  70.777  1.00  0.00    -0.185 A  
HETATM   10  N   UNL     1     -10.076   9.617  70.294  1.00  0.00    -0.260 NA 
HETATM   11  N   UNL     1      -9.118   6.406  68.111  1.00  0.00    -0.115 NA 
HETATM   12  C   UNL     1      -8.238   5.798  68.967  1.00  0.00    -0.101 A  
ENDROOT
BRANCH   9  13
HETATM   13  N   UNL     1      -8.650   8.876  72.062  1.00  0.00    -0.375 NA 
HETATM   14  H   UNL     1      -7.768   9.371  72.195  1.00  0.00     0.000 HD 
BRANCH  13  15
HETATM   15  C   UNL     1      -9.393   8.332  73.201  1.00  0.00    -0.211 C  
HETATM   16  C   UNL     1     -10.549   7.393  72.981  1.00  0.00    -0.392 C  
HETATM   17  C   UNL     1      -9.292   6.898  73.633  1.00  0.00    -0.207 C  
ENDBRANCH  13  15
ENDBRANCH   9  13
BRANCH  11  18
HETATM   18  C   UNL     1      -9.606   5.935  66.821  1.00  0.00    -0.148 C  
HETATM   19  C   UNL     1      -9.823   4.409  66.773  1.00  0.00    -0.241 C  
HETATM   20  C   UNL     1      -8.801   3.831  65.774  1.00  0.00    -0.124 C  
HETATM   21  C   UNL     1      -8.682   6.188  65.669  1.00  0.00    -0.133 C  
HETATM   22  C   UNL     1      -8.264   5.057  65.092  1.00  0.00    -0.131 C  
BRANCH  20  23
HETATM   23  C   UNL     1      -7.704   3.013  66.463  1.00  0.00    -0.077 C  
HETATM   24  O   UNL     1      -7.506   1.769  65.798  1.00  0.00    -0.059 OA 
HETATM   25  H   UNL     1      -6.826   1.262  66.225  1.00  0.00     0.000 HD 
ENDBRANCH  20  23
ENDBRANCH  11  18
TORSDOF 4
ENDMDL
MODEL      168
REMARK 921   NORMALIZED FREE ENERGY PREDICTED BY IDOCK:   -3.20 KCAL/MOL
REMARK 922        TOTAL FREE ENERGY PREDICTED BY IDOCK:   -4.46 KCAL/MOL
REMARK 923 INTER-LIGAND FREE ENERGY PREDICTED BY IDOCK:   -3.93 KCAL/MOL
REMARK 924 INTRA-LIGAND FREE ENERGY PREDICTED BY IDOCK:   -0.53 KCAL/MOL
REMARK 927      BINDING AFFINITY PREDICTED BY RF-SCORE:    0.00 PKD
ROOT
HETATM    1  N   UNL     1      -9.424   5.380  70.701  1.00  0.00    -0.160 NA 
HETATM    2  C   UNL     1      -9.285   6.603  70.079  1.00  0.00    -0.158 A  
HETATM    3  H2  UNL     1      -9.004   4.536  70.311  1.00  0.00     0.000 HD 
HETATM    4  H1  UNL     1      -9.963   5.354  71.566  1.00  0.00     0.000 HD 
HETATM    5  N   UNL     1      -8.579   6.637  68.945  1.00  0.00    -0.126 NA 
HETATM    6  C   UNL     1      -8.556   7.865  68.400  1.00  0.00    -0.128 A  
HETATM    7  C   UNL     1      -9.159   9.010  68.892  1.00  0.00    -0.140 A  
HETATM    8  N   UNL     1      -8.918  10.073  68.040  1.00  0.00    -0.128 NA 
HETATM    9  C   UNL     1      -9.834   8.883  70.123  1.00  0.00    -0.178 A  
HETATM   10  N   UNL     1      -9.857   7.646  70.698  1.00  0.00    -0.182 NA 
HETATM   11  N   UNL     1      -7.930   8.238  67.245  1.00  0.00    -0.105 NA 
HETATM   12  C   UNL     1      -8.181   9.573  67.064  1.00  0.00    -0.113 A  
ENDROOT
BRANCH   9  13
HETATM   13  N   UNL     1     -10.485   9.950  70.776  1.00  0.00    -0.357 NA 
HETATM   14  H   UNL     1      -9.975  10.581  71.395  1.00  0.00     0.000 HD 
BRANCH  13  15
HETATM   15  C   UNL     1     -11.919  10.120  70.534  1.00  0.00    -0.311 C  
HETATM   16  C   UNL     1     -12.918   9.845  71.627  1.00  0.00    -0.536 C  
HETATM   17  C   UNL     1     -12.720  11.245  71.124  1.00  0.00    -0.492 C  
ENDBRANCH  13  15
ENDBRANCH   9  13
BRANCH  11  18
HETATM   18  C   UNL     1      -7.112   7.348  66.430  1.00  0.00    -0.074 C  
HETATM   19  C   UNL     1      -6.153   8.098  65.484  1.00  0.00    -0.045 C  
HETATM   20  C   UNL     1      -6.610   7.806  64.041  1.00  0.00    -0.057 C  
HETATM   21  C   UNL     1      -7.883   6.457  65.504  1.00  0.00    -0.103 C  
HETATM   22  C   UNL     1      -7.598   6.689  64.219  1.00  0.00    -0.104 C  
BRANCH  20  23
HETATM   23  C   UNL     1      -7.224   9.033  63.359  1.00  0.00    -0.092 C  
HETATM   24  O   UNL     1      -8.568   8.774  62.966  1.00  0.00    -0.343 OA 
HETATM   25  H   UNL     1      -8.949   9.535  62.544  1.00  0.00     0.000 HD 
ENDBRANCH  20  23
ENDBRANCH  11  18
TORSDOF 4
ENDMDL
MODEL      169
REMARK 921   NORMALIZED FREE ENERGY PREDICTED BY IDOCK:   -3.14 KCAL/MOL
REMARK 922        TOTAL FREE ENERGY PREDICTED BY IDOCK:   -4.40 KCAL/MOL
REMARK 923 INTER-LIGAND FREE ENERGY PREDICTED BY IDOCK:   -3.82 KCAL/MOL
REMARK 924 INTRA-LIGAND FREE ENERGY PREDICTED BY IDOCK:   -0.58 KCAL/MOL
REMARK 927      BINDING AFFINITY PREDICTED BY RF-SCORE:    0.00 PKD
ROOT
HETATM    1  N   UNL     1     -11.547   6.386  66.787  1.00  0.00    -0.628 NA 
HETATM    2  C   UNL     1     -10.475   6.848  67.521  1.00  0.00    -0.247 A  
HETATM    3  H2  UNL     1     -12.033   6.987  66.121  1.00  0.00     0.000 HD 
HETATM    4  H1  UNL     1     -11.835   5.419  66.937  1.00  0.00     0.000 HD 
HETATM    5  N   UNL     1     -10.099   8.115  67.324  1.00  0.00    -0.214 NA 
HETATM    6  C   UNL     1      -9.083   8.472  68.128  1.00  0.00    -0.138 A  
HETATM    7  C   UNL     1      -8.444   7.683  69.069  1.00  0.00    -0.132 A  
HETATM    8  N   UNL     1      -7.457   8.414  69.706  1.00  0.00    -0.070 NA 
HETATM    9  C   UNL     1      -8.877   6.345  69.163  1.00  0.00    -0.126 A  
HETATM   10  N   UNL     1      -9.899   5.960  68.344  1.00  0.00    -0.128 NA 
HETATM   11  N   UNL     1      -8.469   9.691  68.182  1.00  0.00    -0.118 NA 
HETATM   12  C   UNL     1      -7.503   9.612  69.150  1.00  0.00    -0.079 A  
ENDROOT
BRANCH   9  13
HETATM   13  N   UNL     1      -8.324   5.400  70.051  1.00  0.00    -0.105 NA 
HETATM   14  H   UNL     1      -7.405   4.989  69.882  1.00  0.00     0.000 HD 
BRANCH  13  15
HETATM   15  C   UNL     1      -9.116   5.029  71.226  1.00  0.00    -0.143 C  
HETATM   16  C   UNL     1      -8.897   5.721  72.546  1.00  0.00    -0.130 C  
HETATM   17  C   UNL     1     -10.186   5.911  71.802  1.00  0.00    -0.248 C  
ENDBRANCH  13  15
ENDBRANCH   9  13
BRANCH  11  18
HETATM   18  C   UNL     1      -8.789  10.811  67.305  1.00  0.00    -0.133 C  
HETATM   19  C   UNL     1      -7.578  11.722  67.015  1.00  0.00    -0.147 C  
HETATM   20  C   UNL     1      -7.870  13.092  67.659  1.00  0.00    -0.166 C  
HETATM   21  C   UNL     1      -9.813  11.761  67.846  1.00  0.00    -0.186 C  
HETATM   22  C   UNL     1      -9.325  12.993  68.018  1.00  0.00    -0.213 C  
BRANCH  20  23
HETATM   23  C   UNL     1      -6.981  13.370  68.875  1.00  0.00    -0.102 C  
HETATM   24  O   UNL     1      -7.630  14.250  69.787  1.00  0.00    -0.367 OA 
HETATM   25  H   UNL     1      -7.079  14.423  70.540  1.00  0.00     0.000 HD 
ENDBRANCH  20  23
ENDBRANCH  11  18
TORSDOF 4
ENDMDL
MODEL      170
REMARK 921   NORMALIZED FREE ENERGY PREDICTED BY IDOCK:   -3.12 KCAL/MOL
REMARK 922        TOTAL FREE ENERGY PREDICTED BY IDOCK:   -4.37 KCAL/MOL
REMARK 923 INTER-LIGAND FREE ENERGY PREDICTED BY IDOCK:   -4.38 KCAL/MOL
REMARK 924 INTRA-LIGAND FREE ENERGY PREDICTED BY IDOCK:    0.01 KCAL/MOL
REMARK 927      BINDING AFFINITY PREDICTED BY RF-SCORE:    0.00 PKD
ROOT
HETATM    1  N   UNL     1     -11.535   6.465  66.728  1.00  0.00    -0.746 NA 
HETATM    2  C   UNL     1     -10.384   6.179  67.432  1.00  0.00    -0.211 A  
HETATM    3  H2  UNL     1     -12.240   7.102  67.099  1.00  0.00     0.000 HD 
HETATM    4  H1  UNL     1     -11.652   6.014  65.821  1.00  0.00     0.000 HD 
HETATM    5  N   UNL     1     -10.230   6.770  68.621  1.00  0.00    -0.166 NA 
HETATM    6  C   UNL     1      -9.104   6.378  69.239  1.00  0.00    -0.136 A  
HETATM    7  C   UNL     1      -8.160   5.480  68.769  1.00  0.00    -0.099 A  
HETATM    8  N   UNL     1      -7.150   5.327  69.701  1.00  0.00    -0.058 NA 
HETATM    9  C   UNL     1      -8.385   4.953  67.481  1.00  0.00    -0.105 A  
HETATM   10  N   UNL     1      -9.518   5.350  66.832  1.00  0.00    -0.129 NA 
HETATM   11  N   UNL     1      -8.655   6.786  70.463  1.00  0.00    -0.141 NA 
HETATM   12  C   UNL     1      -7.480   6.123  70.702  1.00  0.00    -0.087 A  
ENDROOT
BRANCH   9  13
HETATM   13  N   UNL     1      -7.517   4.044  66.842  1.00  0.00    -0.072 NA 
HETATM   14  H   UNL     1      -6.645   4.356  66.414  1.00  0.00     0.000 HD 
BRANCH  13  15
HETATM   15  C   UNL     1      -7.914   2.634  66.813  1.00  0.00    -0.076 C  
HETATM   16  C   UNL     1      -7.502   1.701  67.921  1.00  0.00    -0.053 C  
HETATM   17  C   UNL     1      -8.948   2.057  67.737  1.00  0.00    -0.183 C  
ENDBRANCH  13  15
ENDBRANCH   9  13
BRANCH  11  18
HETATM   18  C   UNL     1      -9.317   7.789  71.288  1.00  0.00    -0.152 C  
HETATM   19  C   UNL     1      -9.068   7.597  72.797  1.00  0.00    -0.217 C  
HETATM   20  C   UNL     1     -10.419   7.233  73.443  1.00  0.00    -0.423 C  
HETATM   21  C   UNL     1     -10.812   7.801  71.184  1.00  0.00    -0.254 C  
HETATM   22  C   UNL     1     -11.406   7.522  72.348  1.00  0.00    -0.360 C  
BRANCH  20  23
HETATM   23  C   UNL     1     -10.471   5.776  73.914  1.00  0.00    -0.275 C  
HETATM   24  O   UNL     1     -11.702   5.166  73.538  1.00  0.00    -0.435 OA 
HETATM   25  H   UNL     1     -11.734   4.263  73.829  1.00  0.00     0.000 HD 
ENDBRANCH  20  23
ENDBRANCH  11  18
TORSDOF 4
ENDMDL
MODEL      171
REMARK 921   NORMALIZED FREE ENERGY PREDICTED BY IDOCK:   -3.07 KCAL/MOL
REMARK 922        TOTAL FREE ENERGY PREDICTED BY IDOCK:   -4.31 KCAL/MOL
REMARK 923 INTER-LIGAND FREE ENERGY PREDICTED BY IDOCK:   -4.70 KCAL/MOL
REMARK 924 INTRA-LIGAND FREE ENERGY PREDICTED BY IDOCK:    0.39 KCAL/MOL
REMARK 927      BINDING AFFINITY PREDICTED BY RF-SCORE:    0.00 PKD
ROOT
HETATM    1  N   UNL     1      -7.669  10.531  68.338  1.00  0.00    -0.099 NA 
HETATM    2  C   UNL     1      -8.187  10.742  67.078  1.00  0.00    -0.126 A  
HETATM    3  H2  UNL     1      -8.167  10.838  69.174  1.00  0.00     0.000 HD 
HETATM    4  H1  UNL     1      -6.769  10.056  68.401  1.00  0.00     0.000 HD 
HETATM    5  N   UNL     1      -9.366  11.365  66.996  1.00  0.00    -0.172 NA 
HETATM    6  C   UNL     1      -9.746  11.564  65.722  1.00  0.00    -0.235 A  
HETATM    7  C   UNL     1      -9.060  11.195  64.577  1.00  0.00    -0.054 A  
HETATM    8  N   UNL     1      -9.770  11.587  63.456  1.00  0.00    -0.327 NA 
HETATM    9  C   UNL     1      -7.852  10.495  64.769  1.00  0.00    -0.022 A  
HETATM   10  N   UNL     1      -7.457  10.271  66.056  1.00  0.00    -0.122 NA 
HETATM   11  N   UNL     1     -10.891  12.173  65.293  1.00  0.00    -0.284 NA 
HETATM   12  C   UNL     1     -10.859  12.170  63.924  1.00  0.00    -0.406 A  
ENDROOT
BRANCH   9  13
HETATM   13  N   UNL     1      -7.039  10.028  63.716  1.00  0.00    -0.131 NA 
HETATM   14  H   UNL     1      -6.268  10.590  63.354  1.00  0.00     0.000 HD 
BRANCH  13  15
HETATM   15  C   UNL     1      -7.340   8.706  63.161  1.00  0.00    -0.101 C  
HETATM   16  C   UNL     1      -6.262   7.661  63.044  1.00  0.00    -0.063 C  
HETATM   17  C   UNL     1      -7.402   7.462  63.999  1.00  0.00    -0.088 C  
ENDBRANCH  13  15
ENDBRANCH   9  13
BRANCH  11  18
HETATM   18  C   UNL     1     -11.942  12.661  66.178  1.00  0.00    -0.395 C  
HETATM   19  C   UNL     1     -11.881  14.184  66.412  1.00  0.00    -0.440 C  
HETATM   20  C   UNL     1     -11.538  14.407  67.898  1.00  0.00    -0.374 C  
HETATM   21  C   UNL     1     -11.908  12.098  67.565  1.00  0.00    -0.307 C  
HETATM   22  C   UNL     1     -11.711  13.039  68.493  1.00  0.00    -0.377 C  
BRANCH  20  23
HETATM   23  C   UNL     1     -10.124  14.961  68.097  1.00  0.00    -0.222 C  
HETATM   24  O   UNL     1      -9.781  14.991  69.479  1.00  0.00    -0.352 OA 
HETATM   25  H   UNL     1      -8.905  15.335  69.603  1.00  0.00     0.000 HD 
ENDBRANCH  20  23
ENDBRANCH  11  18
TORSDOF 4
ENDMDL
MODEL      172
REMARK 921   NORMALIZED FREE ENERGY PREDICTED BY IDOCK:   -3.03 KCAL/MOL
REMARK 922        TOTAL FREE ENERGY PREDICTED BY IDOCK:   -4.26 KCAL/MOL
REMARK 923 INTER-LIGAND FREE ENERGY PREDICTED BY IDOCK:   -3.70 KCAL/MOL
REMARK 924 INTRA-LIGAND FREE ENERGY PREDICTED BY IDOCK:   -0.56 KCAL/MOL
REMARK 927      BINDING AFFINITY PREDICTED BY RF-SCORE:    0.00 PKD
ROOT
HETATM    1  N   UNL     1     -10.271   8.480  66.225  1.00  0.00    -0.416 NA 
HETATM    2  C   UNL     1      -9.757   8.799  67.464  1.00  0.00    -0.167 A  
HETATM    3  H2  UNL     1     -10.495   7.517  65.975  1.00  0.00     0.000 HD 
HETATM    4  H1  UNL     1     -10.420   9.247  65.569  1.00  0.00     0.000 HD 
HETATM    5  N   UNL     1      -9.562   7.795  68.324  1.00  0.00    -0.153 NA 
HETATM    6  C   UNL     1      -9.009   8.214  69.475  1.00  0.00    -0.151 A  
HETATM    7  C   UNL     1      -8.658   9.511  69.811  1.00  0.00    -0.192 A  
HETATM    8  N   UNL     1      -8.104   9.536  71.078  1.00  0.00    -0.293 NA 
HETATM    9  C   UNL     1      -8.954  10.507  68.858  1.00  0.00    -0.172 A  
HETATM   10  N   UNL     1      -9.529  10.102  67.688  1.00  0.00    -0.147 NA 
HETATM   11  N   UNL     1      -8.679   7.445  70.554  1.00  0.00    -0.146 NA 
HETATM   12  C   UNL     1      -8.131   8.281  71.491  1.00  0.00    -0.130 A  
ENDROOT
BRANCH   9  13
HETATM   13  N   UNL     1      -8.683  11.878  69.044  1.00  0.00    -0.352 NA 
HETATM   14  H   UNL     1      -8.238  12.218  69.897  1.00  0.00     0.000 HD 
BRANCH  13  15
HETATM   15  C   UNL     1      -9.065  12.797  67.970  1.00  0.00    -0.207 C  
HETATM   16  C   UNL     1      -9.494  14.206  68.284  1.00  0.00    -0.211 C  
HETATM   17  C   UNL     1      -8.212  13.958  67.545  1.00  0.00    -0.196 C  
ENDBRANCH  13  15
ENDBRANCH   9  13
BRANCH  11  18
HETATM   18  C   UNL     1      -8.940   6.014  70.653  1.00  0.00    -0.146 C  
HETATM   19  C   UNL     1      -9.598   5.607  71.987  1.00  0.00    -0.173 C  
HETATM   20  C   UNL     1      -8.584   4.732  72.751  1.00  0.00    -0.114 C  
HETATM   21  C   UNL     1      -7.721   5.147  70.591  1.00  0.00    -0.079 C  
HETATM   22  C   UNL     1      -7.540   4.441  71.711  1.00  0.00    -0.071 C  
BRANCH  20  23
HETATM   23  C   UNL     1      -8.010   5.438  73.982  1.00  0.00    -0.107 C  
HETATM   24  O   UNL     1      -6.592   5.539  73.892  1.00  0.00    -0.074 OA 
HETATM   25  H   UNL     1      -6.235   5.977  74.656  1.00  0.00     0.000 HD 
ENDBRANCH  20  23
ENDBRANCH  11  18
TORSDOF 4
ENDMDL
MODEL      173
REMARK 921   NORMALIZED FREE ENERGY PREDICTED BY IDOCK:   -3.01 KCAL/MOL
REMARK 922        TOTAL FREE ENERGY PREDICTED BY IDOCK:   -4.23 KCAL/MOL
REMARK 923 INTER-LIGAND FREE ENERGY PREDICTED BY IDOCK:   -3.60 KCAL/MOL
REMARK 924 INTRA-LIGAND FREE ENERGY PREDICTED BY IDOCK:   -0.64 KCAL/MOL
REMARK 927      BINDING AFFINITY PREDICTED BY RF-SCORE:    0.00 PKD
ROOT
HETATM    1  N   UNL     1      -9.371   3.081  71.797  1.00  0.00    -0.114 NA 
HETATM    2  C   UNL     1      -9.653   4.093  70.903  1.00  0.00    -0.179 A  
HETATM    3  H2  UNL     1      -8.649   2.387  71.603  1.00  0.00     0.000 HD 
HETATM    4  H1  UNL     1      -9.914   3.055  72.660  1.00  0.00     0.000 HD 
HETATM    5  N   UNL     1      -8.941   4.127  69.772  1.00  0.00    -0.087 NA 
HETATM    6  C   UNL     1      -9.336   5.118  68.955  1.00  0.00    -0.121 A  
HETATM    7  C   UNL     1     -10.344   6.039  69.185  1.00  0.00    -0.229 A  
HETATM    8  N   UNL     1     -10.459   6.892  68.102  1.00  0.00    -0.190 NA 
HETATM    9  C   UNL     1     -10.999   5.955  70.431  1.00  0.00    -0.306 A  
HETATM   10  N   UNL     1     -10.602   4.962  71.279  1.00  0.00    -0.092 NA 
HETATM   11  N   UNL     1      -8.822   5.423  67.727  1.00  0.00    -0.106 NA 
HETATM   12  C   UNL     1      -9.533   6.492  67.248  1.00  0.00    -0.125 A  
ENDROOT
BRANCH   9  13
HETATM   13  N   UNL     1     -12.033   6.824  70.836  1.00  0.00    -0.381 NA 
HETATM   14  H   UNL     1     -12.931   6.839  70.352  1.00  0.00     0.000 HD 
BRANCH  13  15
HETATM   15  C   UNL     1     -11.770   7.705  71.976  1.00  0.00    -0.298 C  
HETATM   16  C   UNL     1     -10.700   8.761  71.896  1.00  0.00    -0.429 C  
HETATM   17  C   UNL     1     -12.144   9.159  71.988  1.00  0.00    -0.431 C  
ENDBRANCH  13  15
ENDBRANCH   9  13
BRANCH  11  18
HETATM   18  C   UNL     1      -7.688   4.738  67.119  1.00  0.00    -0.091 C  
HETATM   19  C   UNL     1      -6.664   5.701  66.485  1.00  0.00    -0.058 C  
HETATM   20  C   UNL     1      -6.689   5.460  64.962  1.00  0.00    -0.048 C  
HETATM   21  C   UNL     1      -8.041   3.818  65.991  1.00  0.00    -0.100 C  
HETATM   22  C   UNL     1      -7.487   4.194  64.834  1.00  0.00    -0.073 C  
BRANCH  20  23
HETATM   23  C   UNL     1      -7.312   6.629  64.193  1.00  0.00    -0.078 C  
HETATM   24  O   UNL     1      -7.233   7.833  64.950  1.00  0.00    -0.061 OA 
HETATM   25  H   UNL     1      -7.619   8.558  64.473  1.00  0.00     0.000 HD 
ENDBRANCH  20  23
ENDBRANCH  11  18
TORSDOF 4
ENDMDL
MODEL      174
REMARK 921   NORMALIZED FREE ENERGY PREDICTED BY IDOCK:   -3.00 KCAL/MOL
REMARK 922        TOTAL FREE ENERGY PREDICTED BY IDOCK:   -4.22 KCAL/MOL
REMARK 923 INTER-LIGAND FREE ENERGY PREDICTED BY IDOCK:   -4.53 KCAL/MOL
REMARK 924 INTRA-LIGAND FREE ENERGY PREDICTED BY IDOCK:    0.31 KCAL/MOL
REMARK 927      BINDING AFFINITY PREDICTED BY RF-SCORE:    0.00 PKD
ROOT
HETATM    1  N   UNL     1     -10.151   8.381  66.134  1.00  0.00    -0.444 NA 
HETATM    2  C   UNL     1      -9.973   7.249  66.902  1.00  0.00    -0.232 A  
HETATM    3  H2  UNL     1     -10.625   9.204  66.505  1.00  0.00     0.000 HD 
HETATM    4  H1  UNL     1      -9.788   8.361  65.181  1.00  0.00     0.000 HD 
HETATM    5  N   UNL     1     -10.448   7.274  68.150  1.00  0.00    -0.201 NA 
HETATM    6  C   UNL     1     -10.268   6.103  68.785  1.00  0.00    -0.184 A  
HETATM    7  C   UNL     1      -9.667   4.962  68.280  1.00  0.00    -0.145 A  
HETATM    8  N   UNL     1      -9.684   3.960  69.233  1.00  0.00    -0.154 NA 
HETATM    9  C   UNL     1      -9.149   5.054  66.972  1.00  0.00    -0.117 A  
HETATM   10  N   UNL     1      -9.311   6.240  66.317  1.00  0.00    -0.153 NA 
HETATM   11  N   UNL     1     -10.640   5.797  70.062  1.00  0.00    -0.283 NA 
HETATM   12  C   UNL     1     -10.275   4.495  70.286  1.00  0.00    -0.067 A  
ENDROOT
BRANCH   9  13
HETATM   13  N   UNL     1      -8.489   3.996  66.312  1.00  0.00    -0.108 NA 
HETATM   14  H   UNL     1      -7.507   3.789  66.494  1.00  0.00     0.000 HD 
BRANCH  13  15
HETATM   15  C   UNL     1      -9.266   3.204  65.356  1.00  0.00    -0.148 C  
HETATM   16  C   UNL     1      -8.675   2.815  64.026  1.00  0.00    -0.086 C  
HETATM   17  C   UNL     1      -8.969   1.763  65.055  1.00  0.00    -0.124 C  
ENDBRANCH  13  15
ENDBRANCH   9  13
BRANCH  11  18
HETATM   18  C   UNL     1     -11.255   6.741  70.987  1.00  0.00    -0.290 C  
HETATM   19  C   UNL     1     -11.067   8.213  70.568  1.00  0.00    -0.257 C  
HETATM   20  C   UNL     1     -10.172   8.882  71.629  1.00  0.00    -0.415 C  
HETATM   21  C   UNL     1     -10.705   6.706  72.380  1.00  0.00    -0.252 C  
HETATM   22  C   UNL     1     -10.140   7.865  72.734  1.00  0.00    -0.365 C  
BRANCH  20  23
HETATM   23  C   UNL     1      -8.775   9.215  71.094  1.00  0.00    -0.143 C  
HETATM   24  O   UNL     1      -8.852  10.155  70.027  1.00  0.00    -0.359 OA 
HETATM   25  H   UNL     1      -7.987  10.362  69.695  1.00  0.00     0.000 HD 
ENDBRANCH  20  23
ENDBRANCH  11  18
TORSDOF 4
ENDMDL
MODEL      175
REMARK 921   NORMALIZED FREE ENERGY PREDICTED BY IDOCK:   -2.98 KCAL/MOL
REMARK 922        TOTAL FREE ENERGY PREDICTED BY IDOCK:   -4.19 KCAL/MOL
REMARK 923 INTER-LIGAND FREE ENERGY PREDICTED BY IDOCK:   -4.21 KCAL/MOL
REMARK 924 INTRA-LIGAND FREE ENERGY PREDICTED BY IDOCK:    0.02 KCAL/MOL
REMARK 927      BINDING AFFINITY PREDICTED BY RF-SCORE:    0.00 PKD
ROOT
HETATM    1  N   UNL     1     -10.294  13.651  64.901  1.00  0.00    -0.474 NA 
HETATM    2  C   UNL     1      -9.546  14.000  66.006  1.00  0.00    -0.205 A  
HETATM    3  H2  UNL     1     -10.330  12.688  64.567  1.00  0.00     0.000 HD 
HETATM    4  H1  UNL     1     -10.810  14.396  64.432  1.00  0.00     0.000 HD 
HETATM    5  N   UNL     1      -8.870  13.025  66.620  1.00  0.00    -0.134 NA 
HETATM    6  C   UNL     1      -8.136  13.488  67.647  1.00  0.00    -0.180 A  
HETATM    7  C   UNL     1      -8.040  14.798  68.083  1.00  0.00    -0.134 A  
HETATM    8  N   UNL     1      -7.173  14.875  69.158  1.00  0.00    -0.141 NA 
HETATM    9  C   UNL     1      -8.834  15.745  67.404  1.00  0.00    -0.186 A  
HETATM   10  N   UNL     1      -9.597  15.291  66.367  1.00  0.00    -0.271 NA 
HETATM   11  N   UNL     1      -7.331  12.758  68.474  1.00  0.00    -0.112 NA 
HETATM   12  C   UNL     1      -6.767  13.635  69.363  1.00  0.00    -0.063 A  
ENDROOT
BRANCH   9  13
HETATM   13  N   UNL     1      -8.874  17.116  67.729  1.00  0.00    -0.222 NA 
HETATM   14  H   UNL     1      -9.680  17.524  68.204  1.00  0.00     0.000 HD 
BRANCH  13  15
HETATM   15  C   UNL     1      -7.716  17.934  67.363  1.00  0.00    -0.207 C  
HETATM   16  C   UNL     1      -6.610  17.358  66.519  1.00  0.00    -0.282 C  
HETATM   17  C   UNL     1      -7.485  18.446  65.970  1.00  0.00    -0.256 C  
ENDBRANCH  13  15
ENDBRANCH   9  13
BRANCH  11  18
HETATM   18  C   UNL     1      -7.186  11.309  68.410  1.00  0.00    -0.085 C  
HETATM   19  C   UNL     1      -8.454  10.593  67.901  1.00  0.00    -0.120 C  
HETATM   20  C   UNL     1      -9.006   9.752  69.069  1.00  0.00    -0.154 C  
HETATM   21  C   UNL     1      -6.919  10.644  69.725  1.00  0.00    -0.145 C  
HETATM   22  C   UNL     1      -7.888   9.790  70.071  1.00  0.00    -0.188 C  
BRANCH  20  23
HETATM   23  C   UNL     1     -10.317  10.313  69.627  1.00  0.00    -0.248 C  
HETATM   24  O   UNL     1     -10.453  11.695  69.311  1.00  0.00    -0.405 OA 
HETATM   25  H   UNL     1     -11.265  12.043  69.657  1.00  0.00     0.000 HD 
ENDBRANCH  20  23
ENDBRANCH  11  18
TORSDOF 4
ENDMDL
MODEL      176
REMARK 921   NORMALIZED FREE ENERGY PREDICTED BY IDOCK:   -2.95 KCAL/MOL
REMARK 922        TOTAL FREE ENERGY PREDICTED BY IDOCK:   -4.16 KCAL/MOL
REMARK 923 INTER-LIGAND FREE ENERGY PREDICTED BY IDOCK:   -3.71 KCAL/MOL
REMARK 924 INTRA-LIGAND FREE ENERGY PREDICTED BY IDOCK:   -0.45 KCAL/MOL
REMARK 927      BINDING AFFINITY PREDICTED BY RF-SCORE:    0.00 PKD
ROOT
HETATM    1  N   UNL     1     -11.226  16.031  69.878  1.00  0.00    -0.340 NA 
HETATM    2  C   UNL     1     -10.404  15.333  69.018  1.00  0.00    -0.242 A  
HETATM    3  H2  UNL     1     -11.848  15.548  70.526  1.00  0.00     0.000 HD 
HETATM    4  H1  UNL     1     -11.186  17.050  69.839  1.00  0.00     0.000 HD 
HETATM    5  N   UNL     1     -10.456  13.999  69.068  1.00  0.00    -0.201 NA 
HETATM    6  C   UNL     1      -9.656  13.426  68.153  1.00  0.00    -0.222 A  
HETATM    7  C   UNL     1      -8.841  14.068  67.236  1.00  0.00    -0.218 A  
HETATM    8  N   UNL     1      -8.183  13.134  66.456  1.00  0.00     0.310 NA 
HETATM    9  C   UNL     1      -8.814  15.476  67.299  1.00  0.00    -0.201 A  
HETATM   10  N   UNL     1      -9.610  16.075  68.232  1.00  0.00    -0.208 NA 
HETATM   11  N   UNL     1      -9.481  12.089  67.938  1.00  0.00    -0.190 NA 
HETATM   12  C   UNL     1      -8.592  11.961  66.904  1.00  0.00    -0.185 A  
ENDROOT
BRANCH   9  13
HETATM   13  N   UNL     1      -8.025  16.286  66.456  1.00  0.00    -0.288 NA 
HETATM   14  H   UNL     1      -8.387  16.635  65.568  1.00  0.00     0.000 HD 
BRANCH  13  15
HETATM   15  C   UNL     1      -6.668  16.608  66.900  1.00  0.00    -0.212 C  
HETATM   16  C   UNL     1      -6.396  16.955  68.340  1.00  0.00    -0.140 C  
HETATM   17  C   UNL     1      -5.848  15.686  67.757  1.00  0.00    -0.163 C  
ENDBRANCH  13  15
ENDBRANCH   9  13
BRANCH  11  18
HETATM   18  C   UNL     1     -10.107  11.041  68.735  1.00  0.00    -0.203 C  
HETATM   19  C   UNL     1      -9.119   9.946  69.185  1.00  0.00    -0.175 C  
HETATM   20  C   UNL     1      -9.528   8.639  68.478  1.00  0.00    -0.146 C  
HETATM   21  C   UNL     1     -11.178  10.269  68.028  1.00  0.00    -0.303 C  
HETATM   22  C   UNL     1     -10.877   8.972  67.907  1.00  0.00    -0.118 C  
BRANCH  20  23
HETATM   23  C   UNL     1      -8.522   8.213  67.404  1.00  0.00    -0.126 C  
HETATM   24  O   UNL     1      -9.130   7.335  66.461  1.00  0.00    -0.144 OA 
HETATM   25  H   UNL     1      -8.507   7.071  65.795  1.00  0.00     0.000 HD 
ENDBRANCH  20  23
ENDBRANCH  11  18
TORSDOF 4
ENDMDL
MODEL      177
REMARK 921   NORMALIZED FREE ENERGY PREDICTED BY IDOCK:   -2.93 KCAL/MOL
REMARK 922        TOTAL FREE ENERGY PREDICTED BY IDOCK:   -4.13 KCAL/MOL
REMARK 923 INTER-LIGAND FREE ENERGY PREDICTED BY IDOCK:   -4.31 KCAL/MOL
REMARK 924 INTRA-LIGAND FREE ENERGY PREDICTED BY IDOCK:    0.18 KCAL/MOL
REMARK 927      BINDING AFFINITY PREDICTED BY RF-SCORE:    0.00 PKD
ROOT
HETATM    1  N   UNL     1     -10.340   6.090  66.235  1.00  0.00    -0.436 NA 
HETATM    2  C   UNL     1     -10.181   6.726  67.448  1.00  0.00    -0.197 A  
HETATM    3  H2  UNL     1      -9.866   6.423  65.395  1.00  0.00     0.000 HD 
HETATM    4  H1  UNL     1     -10.951   5.274  66.211  1.00  0.00     0.000 HD 
HETATM    5  N   UNL     1      -9.381   7.795  67.480  1.00  0.00    -0.138 NA 
HETATM    6  C   UNL     1      -9.343   8.364  68.697  1.00  0.00    -0.143 A  
HETATM    7  C   UNL     1     -10.017   7.951  69.834  1.00  0.00    -0.192 A  
HETATM    8  N   UNL     1      -9.732   8.803  70.886  1.00  0.00    -0.203 NA 
HETATM    9  C   UNL     1     -10.793   6.780  69.713  1.00  0.00    -0.272 A  
HETATM   10  N   UNL     1     -10.832   6.182  68.487  1.00  0.00    -0.296 NA 
HETATM   11  N   UNL     1      -8.630   9.469  69.064  1.00  0.00    -0.128 NA 
HETATM   12  C   UNL     1      -8.900   9.700  70.387  1.00  0.00    -0.178 A  
ENDROOT
BRANCH   9  13
HETATM   13  N   UNL     1     -11.526   6.210  70.773  1.00  0.00    -0.304 NA 
HETATM   14  H   UNL     1     -12.536   6.079  70.708  1.00  0.00     0.000 HD 
BRANCH  13  15
HETATM   15  C   UNL     1     -10.786   5.813  71.973  1.00  0.00    -0.251 C  
HETATM   16  C   UNL     1     -10.509   4.359  72.254  1.00  0.00    -0.192 C  
HETATM   17  C   UNL     1      -9.379   5.291  71.929  1.00  0.00    -0.167 C  
ENDBRANCH  13  15
ENDBRANCH   9  13
BRANCH  11  18
HETATM   18  C   UNL     1      -7.721  10.190  68.182  1.00  0.00    -0.088 C  
HETATM   19  C   UNL     1      -8.388  11.381  67.464  1.00  0.00    -0.137 C  
HETATM   20  C   UNL     1      -8.418  11.051  65.958  1.00  0.00    -0.158 C  
HETATM   21  C   UNL     1      -7.162   9.377  67.055  1.00  0.00    -0.087 C  
HETATM   22  C   UNL     1      -7.519   9.851  65.858  1.00  0.00    -0.108 C  
BRANCH  20  23
HETATM   23  C   UNL     1      -9.835  10.770  65.448  1.00  0.00    -0.262 C  
HETATM   24  O   UNL     1     -10.060   9.369  65.321  1.00  0.00    -0.376 OA 
HETATM   25  H   UNL     1     -10.938   9.195  65.005  1.00  0.00     0.000 HD 
ENDBRANCH  20  23
ENDBRANCH  11  18
TORSDOF 4
ENDMDL
MODEL      178
REMARK 921   NORMALIZED FREE ENERGY PREDICTED BY IDOCK:   -2.86 KCAL/MOL
REMARK 922        TOTAL FREE ENERGY PREDICTED BY IDOCK:   -4.05 KCAL/MOL
REMARK 923 INTER-LIGAND FREE ENERGY PREDICTED BY IDOCK:   -4.57 KCAL/MOL
REMARK 924 INTRA-LIGAND FREE ENERGY PREDICTED BY IDOCK:    0.52 KCAL/MOL
REMARK 927      BINDING AFFINITY PREDICTED BY RF-SCORE:    0.00 PKD
ROOT
HETATM    1  N   UNL     1     -10.736   7.881  70.988  1.00  0.00    -0.218 NA 
HETATM    2  C   UNL     1     -10.339   8.732  69.979  1.00  0.00    -0.203 A  
HETATM    3  H2  UNL     1     -10.495   6.889  70.973  1.00  0.00     0.000 HD 
HETATM    4  H1  UNL     1     -11.281   8.282  71.752  1.00  0.00     0.000 HD 
HETATM    5  N   UNL     1      -9.626   8.206  68.979  1.00  0.00    -0.155 NA 
HETATM    6  C   UNL     1      -9.341   9.112  68.029  1.00  0.00    -0.137 A  
HETATM    7  C   UNL     1      -9.700  10.449  68.014  1.00  0.00    -0.150 A  
HETATM    8  N   UNL     1      -9.232  11.050  66.859  1.00  0.00    -0.154 NA 
HETATM    9  C   UNL     1     -10.404  10.922  69.141  1.00  0.00    -0.208 A  
HETATM   10  N   UNL     1     -10.690  10.018  70.122  1.00  0.00    -0.288 NA 
HETATM   11  N   UNL     1      -8.635   8.901  66.878  1.00  0.00    -0.115 NA 
HETATM   12  C   UNL     1      -8.602  10.092  66.203  1.00  0.00    -0.133 A  
ENDROOT
BRANCH   9  13
HETATM   13  N   UNL     1     -10.828  12.257  69.299  1.00  0.00    -0.435 NA 
HETATM   14  H   UNL     1     -11.142  12.609  70.204  1.00  0.00     0.000 HD 
BRANCH  13  15
HETATM   15  C   UNL     1     -10.801  13.122  68.117  1.00  0.00    -0.251 C  
HETATM   16  C   UNL     1     -12.020  13.261  67.244  1.00  0.00    -0.393 C  
HETATM   17  C   UNL     1     -11.533  14.431  68.046  1.00  0.00    -0.336 C  
ENDBRANCH  13  15
ENDBRANCH   9  13
BRANCH  11  18
HETATM   18  C   UNL     1      -8.009   7.634  66.521  1.00  0.00    -0.106 C  
HETATM   19  C   UNL     1      -8.959   6.675  65.775  1.00  0.00    -0.050 C  
HETATM   20  C   UNL     1      -9.197   5.459  66.693  1.00  0.00    -0.132 C  
HETATM   21  C   UNL     1      -7.536   6.816  67.683  1.00  0.00    -0.098 C  
HETATM   22  C   UNL     1      -8.160   5.637  67.765  1.00  0.00    -0.101 C  
BRANCH  20  23
HETATM   23  C   UNL     1     -10.622   5.417  67.253  1.00  0.00    -0.176 C  
HETATM   24  O   UNL     1     -11.383   6.526  66.787  1.00  0.00    -0.729 OA 
HETATM   25  H   UNL     1     -12.267   6.500  67.134  1.00  0.00     0.000 HD 
ENDBRANCH  20  23
ENDBRANCH  11  18
TORSDOF 4
ENDMDL
MODEL      179
REMARK 921   NORMALIZED FREE ENERGY PREDICTED BY IDOCK:   -2.83 KCAL/MOL
REMARK 922        TOTAL FREE ENERGY PREDICTED BY IDOCK:   -4.01 KCAL/MOL
REMARK 923 INTER-LIGAND FREE ENERGY PREDICTED BY IDOCK:   -3.89 KCAL/MOL
REMARK 924 INTRA-LIGAND FREE ENERGY PREDICTED BY IDOCK:   -0.12 KCAL/MOL
REMARK 927      BINDING AFFINITY PREDICTED BY RF-SCORE:    0.00 PKD
ROOT
HETATM    1  N   UNL     1     -10.269   8.491  66.244  1.00  0.00    -0.416 NA 
HETATM    2  C   UNL     1      -9.782   8.807  67.495  1.00  0.00    -0.167 A  
HETATM    3  H2  UNL     1     -10.463   7.525  65.979  1.00  0.00     0.000 HD 
HETATM    4  H1  UNL     1     -10.429   9.262  65.596  1.00  0.00     0.000 HD 
HETATM    5  N   UNL     1      -9.573   7.797  68.344  1.00  0.00    -0.151 NA 
HETATM    6  C   UNL     1      -9.048   8.216  69.509  1.00  0.00    -0.151 A  
HETATM    7  C   UNL     1      -8.736   9.516  69.866  1.00  0.00    -0.210 A  
HETATM    8  N   UNL     1      -8.201   9.539  71.142  1.00  0.00    -0.242 NA 
HETATM    9  C   UNL     1      -9.045  10.517  68.922  1.00  0.00    -0.177 A  
HETATM   10  N   UNL     1      -9.591  10.112  67.739  1.00  0.00    -0.147 NA 
HETATM   11  N   UNL     1      -8.713   7.441  70.583  1.00  0.00    -0.141 NA 
HETATM   12  C   UNL     1      -8.201   8.279  71.538  1.00  0.00    -0.132 A  
ENDROOT
BRANCH   9  13
HETATM   13  N   UNL     1      -8.814  11.892  69.130  1.00  0.00    -0.245 NA 
HETATM   14  H   UNL     1      -8.390  12.233  69.994  1.00  0.00     0.000 HD 
BRANCH  13  15
HETATM   15  C   UNL     1      -9.203  12.815  68.062  1.00  0.00    -0.208 C  
HETATM   16  C   UNL     1      -9.675  14.207  68.388  1.00  0.00    -0.226 C  
HETATM   17  C   UNL     1      -8.376  14.004  67.666  1.00  0.00    -0.191 C  
ENDBRANCH  13  15
ENDBRANCH   9  13
BRANCH  11  18
HETATM   18  C   UNL     1      -8.937   6.003  70.659  1.00  0.00    -0.146 C  
HETATM   19  C   UNL     1      -7.809   5.176  70.009  1.00  0.00    -0.078 C  
HETATM   20  C   UNL     1      -8.410   4.465  68.781  1.00  0.00    -0.091 C  
HETATM   21  C   UNL     1     -10.168   5.520  69.956  1.00  0.00    -0.337 C  
HETATM   22  C   UNL     1      -9.887   4.676  68.958  1.00  0.00    -0.224 C  
BRANCH  20  23
HETATM   23  C   UNL     1      -7.888   5.036  67.459  1.00  0.00    -0.095 C  
HETATM   24  O   UNL     1      -8.961   5.524  66.658  1.00  0.00    -0.115 OA 
HETATM   25  H   UNL     1      -8.637   5.878  65.839  1.00  0.00     0.000 HD 
ENDBRANCH  20  23
ENDBRANCH  11  18
TORSDOF 4
ENDMDL
MODEL      180
REMARK 921   NORMALIZED FREE ENERGY PREDICTED BY IDOCK:   -2.80 KCAL/MOL
REMARK 922        TOTAL FREE ENERGY PREDICTED BY IDOCK:   -3.97 KCAL/MOL
REMARK 923 INTER-LIGAND FREE ENERGY PREDICTED BY IDOCK:   -4.29 KCAL/MOL
REMARK 924 INTRA-LIGAND FREE ENERGY PREDICTED BY IDOCK:    0.32 KCAL/MOL
REMARK 927      BINDING AFFINITY PREDICTED BY RF-SCORE:    0.00 PKD
ROOT
HETATM    1  N   UNL     1      -6.254   8.275  72.713  1.00  0.00    -0.074 NA 
HETATM    2  C   UNL     1      -7.123   8.729  71.743  1.00  0.00    -0.054 A  
HETATM    3  H2  UNL     1      -6.595   7.892  73.595  1.00  0.00     0.000 HD 
HETATM    4  H1  UNL     1      -5.255   8.339  72.513  1.00  0.00     0.000 HD 
HETATM    5  N   UNL     1      -8.430   8.646  72.005  1.00  0.00    -0.318 NA 
HETATM    6  C   UNL     1      -9.179   9.164  71.017  1.00  0.00    -0.252 A  
HETATM    7  C   UNL     1      -8.729   9.730  69.836  1.00  0.00    -0.217 A  
HETATM    8  N   UNL     1      -9.804  10.163  69.081  1.00  0.00    -0.202 NA 
HETATM    9  C   UNL     1      -7.334   9.721  69.628  1.00  0.00    -0.103 A  
HETATM   10  N   UNL     1      -6.559   9.186  70.616  1.00  0.00    -0.062 NA 
HETATM   11  N   UNL     1     -10.542   9.240  70.973  1.00  0.00    -0.289 NA 
HETATM   12  C   UNL     1     -10.873   9.854  69.795  1.00  0.00    -0.269 A  
ENDROOT
BRANCH   9  13
HETATM   13  N   UNL     1      -6.709  10.236  68.475  1.00  0.00    -0.056 NA 
HETATM   14  H   UNL     1      -6.581   9.662  67.641  1.00  0.00     0.000 HD 
BRANCH  13  15
HETATM   15  C   UNL     1      -6.248  11.626  68.516  1.00  0.00    -0.051 C  
HETATM   16  C   UNL     1      -6.526  12.558  67.367  1.00  0.00    -0.153 C  
HETATM   17  C   UNL     1      -7.179  12.790  68.697  1.00  0.00    -0.104 C  
ENDBRANCH  13  15
ENDBRANCH   9  13
BRANCH  11  18
HETATM   18  C   UNL     1     -11.427   8.697  71.996  1.00  0.00    -0.367 C  
HETATM   19  C   UNL     1     -10.703   7.779  73.002  1.00  0.00    -0.446 C  
HETATM   20  C   UNL     1     -11.258   6.354  72.805  1.00  0.00    -0.261 C  
HETATM   21  C   UNL     1     -12.534   7.833  71.476  1.00  0.00    -0.348 C  
HETATM   22  C   UNL     1     -12.456   6.577  71.927  1.00  0.00    -0.291 C  
BRANCH  20  23
HETATM   23  C   UNL     1     -10.232   5.408  72.175  1.00  0.00    -0.203 C  
HETATM   24  O   UNL     1     -10.488   4.058  72.553  1.00  0.00    -0.173 OA 
HETATM   25  H   UNL     1      -9.853   3.471  72.162  1.00  0.00     0.000 HD 
ENDBRANCH  20  23
ENDBRANCH  11  18
TORSDOF 4
ENDMDL
MODEL      181
REMARK 921   NORMALIZED FREE ENERGY PREDICTED BY IDOCK:   -2.78 KCAL/MOL
REMARK 922        TOTAL FREE ENERGY PREDICTED BY IDOCK:   -3.95 KCAL/MOL
REMARK 923 INTER-LIGAND FREE ENERGY PREDICTED BY IDOCK:   -3.50 KCAL/MOL
REMARK 924 INTRA-LIGAND FREE ENERGY PREDICTED BY IDOCK:   -0.45 KCAL/MOL
REMARK 927      BINDING AFFINITY PREDICTED BY RF-SCORE:    0.00 PKD
ROOT
HETATM    1  N   UNL     1      -9.598  10.614  65.354  1.00  0.00    -0.213 NA 
HETATM    2  C   UNL     1      -9.289  10.430  66.686  1.00  0.00    -0.158 A  
HETATM    3  H2  UNL     1     -10.090   9.897  64.820  1.00  0.00     0.000 HD 
HETATM    4  H1  UNL     1      -9.315  11.495  64.926  1.00  0.00     0.000 HD 
HETATM    5  N   UNL     1      -9.660   9.276  67.247  1.00  0.00    -0.149 NA 
HETATM    6  C   UNL     1      -9.261   9.185  68.527  1.00  0.00    -0.136 A  
HETATM    7  C   UNL     1      -8.553  10.128  69.252  1.00  0.00    -0.174 A  
HETATM    8  N   UNL     1      -8.320   9.661  70.533  1.00  0.00    -0.217 NA 
HETATM    9  C   UNL     1      -8.257  11.336  68.588  1.00  0.00    -0.146 A  
HETATM   10  N   UNL     1      -8.667  11.452  67.291  1.00  0.00    -0.144 NA 
HETATM   11  N   UNL     1      -9.473   8.139  69.380  1.00  0.00    -0.162 NA 
HETATM   12  C   UNL     1      -8.883   8.467  70.572  1.00  0.00    -0.148 A  
ENDROOT
BRANCH   9  13
HETATM   13  N   UNL     1      -7.563  12.410  69.181  1.00  0.00    -0.330 NA 
HETATM   14  H   UNL     1      -7.914  12.866  70.024  1.00  0.00     0.000 HD 
BRANCH  13  15
HETATM   15  C   UNL     1      -6.319  12.848  68.545  1.00  0.00    -0.079 C  
HETATM   16  C   UNL     1      -5.969  14.311  68.474  1.00  0.00    -0.093 C  
HETATM   17  C   UNL     1      -5.149  13.382  69.320  1.00  0.00    -0.074 C  
ENDBRANCH  13  15
ENDBRANCH   9  13
BRANCH  11  18
HETATM   18  C   UNL     1     -10.242   6.948  69.043  1.00  0.00    -0.181 C  
HETATM   19  C   UNL     1     -10.541   6.051  70.262  1.00  0.00    -0.338 C  
HETATM   20  C   UNL     1      -9.781   4.727  70.055  1.00  0.00    -0.280 C  
HETATM   21  C   UNL     1      -9.568   6.014  68.085  1.00  0.00    -0.122 C  
HETATM   22  C   UNL     1      -9.338   4.812  68.622  1.00  0.00    -0.187 C  
BRANCH  20  23
HETATM   23  C   UNL     1      -8.607   4.565  71.025  1.00  0.00    -0.105 C  
HETATM   24  O   UNL     1      -7.438   5.199  70.516  1.00  0.00    -0.066 OA 
HETATM   25  H   UNL     1      -6.710   5.100  71.118  1.00  0.00     0.000 HD 
ENDBRANCH  20  23
ENDBRANCH  11  18
TORSDOF 4
ENDMDL
MODEL      182
REMARK 921   NORMALIZED FREE ENERGY PREDICTED BY IDOCK:   -2.76 KCAL/MOL
REMARK 922        TOTAL FREE ENERGY PREDICTED BY IDOCK:   -3.92 KCAL/MOL
REMARK 923 INTER-LIGAND FREE ENERGY PREDICTED BY IDOCK:   -3.42 KCAL/MOL
REMARK 924 INTRA-LIGAND FREE ENERGY PREDICTED BY IDOCK:   -0.50 KCAL/MOL
REMARK 927      BINDING AFFINITY PREDICTED BY RF-SCORE:    0.00 PKD
ROOT
HETATM    1  N   UNL     1      -6.173   8.447  66.357  1.00  0.00    -0.052 NA 
HETATM    2  C   UNL     1      -6.981   8.840  67.404  1.00  0.00    -0.075 A  
HETATM    3  H2  UNL     1      -6.020   7.461  66.146  1.00  0.00     0.000 HD 
HETATM    4  H1  UNL     1      -5.736   9.183  65.803  1.00  0.00     0.000 HD 
HETATM    5  N   UNL     1      -7.554   7.875  68.130  1.00  0.00    -0.113 NA 
HETATM    6  C   UNL     1      -8.273   8.371  69.152  1.00  0.00    -0.120 A  
HETATM    7  C   UNL     1      -8.453   9.704  69.479  1.00  0.00    -0.159 A  
HETATM    8  N   UNL     1      -9.247   9.809  70.607  1.00  0.00    -0.080 NA 
HETATM    9  C   UNL     1      -7.853  10.647  68.619  1.00  0.00    -0.121 A  
HETATM   10  N   UNL     1      -7.130  10.162  67.568  1.00  0.00    -0.086 NA 
HETATM   11  N   UNL     1      -8.976   7.658  70.081  1.00  0.00    -0.146 NA 
HETATM   12  C   UNL     1      -9.539   8.565  70.940  1.00  0.00    -0.185 A  
ENDROOT
BRANCH   9  13
HETATM   13  N   UNL     1      -7.952  12.042  68.792  1.00  0.00    -0.313 NA 
HETATM   14  H   UNL     1      -8.849  12.523  68.714  1.00  0.00     0.000 HD 
BRANCH  13  15
HETATM   15  C   UNL     1      -6.720  12.778  69.087  1.00  0.00    -0.080 C  
HETATM   16  C   UNL     1      -6.144  13.740  68.082  1.00  0.00    -0.120 C  
HETATM   17  C   UNL     1      -6.698  14.251  69.379  1.00  0.00    -0.130 C  
ENDBRANCH  13  15
ENDBRANCH   9  13
BRANCH  11  18
HETATM   18  C   UNL     1      -9.112   6.207  70.072  1.00  0.00    -0.147 C  
HETATM   19  C   UNL     1     -10.563   5.730  70.283  1.00  0.00    -0.369 C  
HETATM   20  C   UNL     1     -10.613   4.995  71.637  1.00  0.00    -0.187 C  
HETATM   21  C   UNL     1      -8.356   5.498  71.154  1.00  0.00    -0.125 C  
HETATM   22  C   UNL     1      -9.161   4.828  71.984  1.00  0.00    -0.152 C  
BRANCH  20  23
HETATM   23  C   UNL     1     -11.387   5.776  72.702  1.00  0.00    -0.300 C  
HETATM   24  O   UNL     1     -12.648   5.166  72.963  1.00  0.00    -0.358 OA 
HETATM   25  H   UNL     1     -13.128   5.650  73.623  1.00  0.00     0.000 HD 
ENDBRANCH  20  23
ENDBRANCH  11  18
TORSDOF 4
ENDMDL
MODEL      183
REMARK 921   NORMALIZED FREE ENERGY PREDICTED BY IDOCK:   -2.70 KCAL/MOL
REMARK 922        TOTAL FREE ENERGY PREDICTED BY IDOCK:   -3.85 KCAL/MOL
REMARK 923 INTER-LIGAND FREE ENERGY PREDICTED BY IDOCK:   -4.24 KCAL/MOL
REMARK 924 INTRA-LIGAND FREE ENERGY PREDICTED BY IDOCK:    0.39 KCAL/MOL
REMARK 927      BINDING AFFINITY PREDICTED BY RF-SCORE:    0.00 PKD
ROOT
HETATM    1  N   UNL     1      -8.019   7.833  74.536  1.00  0.00    -0.201 NA 
HETATM    2  C   UNL     1      -8.893   7.446  73.542  1.00  0.00    -0.187 A  
HETATM    3  H2  UNL     1      -7.054   7.502  74.553  1.00  0.00     0.000 HD 
HETATM    4  H1  UNL     1      -8.377   8.464  75.254  1.00  0.00     0.000 HD 
HETATM    5  N   UNL     1      -8.425   6.619  72.603  1.00  0.00    -0.123 NA 
HETATM    6  C   UNL     1      -9.374   6.267  71.719  1.00  0.00    -0.150 A  
HETATM    7  C   UNL     1     -10.698   6.670  71.710  1.00  0.00    -0.227 A  
HETATM    8  N   UNL     1     -11.363   6.081  70.649  1.00  0.00    -0.288 NA 
HETATM    9  C   UNL     1     -11.082   7.586  72.711  1.00  0.00    -0.366 A  
HETATM   10  N   UNL     1     -10.127   7.966  73.609  1.00  0.00    -0.096 NA 
HETATM   11  N   UNL     1      -9.228   5.436  70.645  1.00  0.00    -0.145 NA 
HETATM   12  C   UNL     1     -10.451   5.348  70.035  1.00  0.00    -0.303 A  
ENDROOT
BRANCH   9  13
HETATM   13  N   UNL     1     -12.383   8.115  72.835  1.00  0.00    -0.647 NA 
HETATM   14  H   UNL     1     -12.981   7.870  73.625  1.00  0.00     0.000 HD 
BRANCH  13  15
HETATM   15  C   UNL     1     -12.846   9.030  71.790  1.00  0.00    -0.374 C  
HETATM   16  C   UNL     1     -13.408  10.381  72.148  1.00  0.00    -0.374 C  
HETATM   17  C   UNL     1     -12.106  10.280  71.411  1.00  0.00    -0.457 C  
ENDBRANCH  13  15
ENDBRANCH   9  13
BRANCH  11  18
HETATM   18  C   UNL     1      -7.964   4.832  70.241  1.00  0.00    -0.068 C  
HETATM   19  C   UNL     1      -7.840   3.350  70.650  1.00  0.00    -0.043 C  
HETATM   20  C   UNL     1      -6.710   3.255  71.694  1.00  0.00    -0.026 C  
HETATM   21  C   UNL     1      -6.745   5.459  70.845  1.00  0.00    -0.044 C  
HETATM   22  C   UNL     1      -6.059   4.606  71.611  1.00  0.00    -0.018 C  
BRANCH  20  23
HETATM   23  C   UNL     1      -7.234   2.940  73.099  1.00  0.00    -0.044 C  
HETATM   24  O   UNL     1      -8.203   1.896  73.056  1.00  0.00    -0.055 OA 
HETATM   25  H   UNL     1      -8.528   1.700  73.926  1.00  0.00     0.000 HD 
ENDBRANCH  20  23
ENDBRANCH  11  18
TORSDOF 4
ENDMDL
MODEL      184
REMARK 921   NORMALIZED FREE ENERGY PREDICTED BY IDOCK:   -2.70 KCAL/MOL
REMARK 922        TOTAL FREE ENERGY PREDICTED BY IDOCK:   -3.85 KCAL/MOL
REMARK 923 INTER-LIGAND FREE ENERGY PREDICTED BY IDOCK:   -3.37 KCAL/MOL
REMARK 924 INTRA-LIGAND FREE ENERGY PREDICTED BY IDOCK:   -0.48 KCAL/MOL
REMARK 927      BINDING AFFINITY PREDICTED BY RF-SCORE:    0.00 PKD
ROOT
HETATM    1  N   UNL     1      -8.424   3.468  70.300  1.00  0.00    -0.055 NA 
HETATM    2  C   UNL     1      -8.445   4.840  70.433  1.00  0.00    -0.090 A  
HETATM    3  H2  UNL     1      -8.565   3.020  69.394  1.00  0.00     0.000 HD 
HETATM    4  H1  UNL     1      -8.260   2.918  71.143  1.00  0.00     0.000 HD 
HETATM    5  N   UNL     1      -8.659   5.560  69.328  1.00  0.00    -0.103 NA 
HETATM    6  C   UNL     1      -8.713   6.878  69.585  1.00  0.00    -0.141 A  
HETATM    7  C   UNL     1      -8.569   7.497  70.815  1.00  0.00    -0.135 A  
HETATM    8  N   UNL     1      -8.702   8.866  70.672  1.00  0.00    -0.177 NA 
HETATM    9  C   UNL     1      -8.291   6.655  71.912  1.00  0.00    -0.114 A  
HETATM   10  N   UNL     1      -8.219   5.314  71.667  1.00  0.00    -0.116 NA 
HETATM   11  N   UNL     1      -8.922   7.882  68.683  1.00  0.00    -0.134 NA 
HETATM   12  C   UNL     1      -8.914   9.059  69.383  1.00  0.00    -0.145 A  
ENDROOT
BRANCH   9  13
HETATM   13  N   UNL     1      -8.095   7.119  73.229  1.00  0.00    -0.099 NA 
HETATM   14  H   UNL     1      -7.173   7.411  73.555  1.00  0.00     0.000 HD 
BRANCH  13  15
HETATM   15  C   UNL     1      -9.262   7.166  74.112  1.00  0.00    -0.238 C  
HETATM   16  C   UNL     1     -10.638   7.410  73.549  1.00  0.00    -0.388 C  
HETATM   17  C   UNL     1     -10.299   6.080  74.155  1.00  0.00    -0.301 C  
ENDBRANCH  13  15
ENDBRANCH   9  13
BRANCH  11  18
HETATM   18  C   UNL     1      -9.061   7.678  67.246  1.00  0.00    -0.127 C  
HETATM   19  C   UNL     1      -7.720   7.758  66.488  1.00  0.00    -0.097 C  
HETATM   20  C   UNL     1      -7.781   9.001  65.578  1.00  0.00    -0.091 C  
HETATM   21  C   UNL     1      -9.914   8.692  66.547  1.00  0.00    -0.353 C  
HETATM   22  C   UNL     1      -9.231   9.390  65.634  1.00  0.00    -0.285 C  
BRANCH  20  23
HETATM   23  C   UNL     1      -6.852  10.122  66.052  1.00  0.00    -0.112 C  
HETATM   24  O   UNL     1      -6.432   9.899  67.395  1.00  0.00    -0.067 OA 
HETATM   25  H   UNL     1      -5.856  10.594  67.689  1.00  0.00     0.000 HD 
ENDBRANCH  20  23
ENDBRANCH  11  18
TORSDOF 4
ENDMDL
MODEL      185
REMARK 921   NORMALIZED FREE ENERGY PREDICTED BY IDOCK:   -2.57 KCAL/MOL
REMARK 922        TOTAL FREE ENERGY PREDICTED BY IDOCK:   -3.69 KCAL/MOL
REMARK 923 INTER-LIGAND FREE ENERGY PREDICTED BY IDOCK:   -3.57 KCAL/MOL
REMARK 924 INTRA-LIGAND FREE ENERGY PREDICTED BY IDOCK:   -0.12 KCAL/MOL
REMARK 927      BINDING AFFINITY PREDICTED BY RF-SCORE:    0.00 PKD
ROOT
HETATM    1  N   UNL     1      -9.491   5.367  70.687  1.00  0.00    -0.160 NA 
HETATM    2  C   UNL     1      -9.249   6.619  70.162  1.00  0.00    -0.155 A  
HETATM    3  H2  UNL     1      -9.039   4.535  70.308  1.00  0.00     0.000 HD 
HETATM    4  H1  UNL     1     -10.142   5.307  71.471  1.00  0.00     0.000 HD 
HETATM    5  N   UNL     1      -8.397   6.698  69.135  1.00  0.00    -0.123 NA 
HETATM    6  C   UNL     1      -8.279   7.954  68.672  1.00  0.00    -0.127 A  
HETATM    7  C   UNL     1      -8.921   9.085  69.146  1.00  0.00    -0.140 A  
HETATM    8  N   UNL     1      -8.549  10.187  68.398  1.00  0.00    -0.116 NA 
HETATM    9  C   UNL     1      -9.757   8.907  70.268  1.00  0.00    -0.185 A  
HETATM   10  N   UNL     1      -9.879   7.640  70.761  1.00  0.00    -0.178 NA 
HETATM   11  N   UNL     1      -7.497   8.374  67.633  1.00  0.00    -0.093 NA 
HETATM   12  C   UNL     1      -7.698   9.723  67.500  1.00  0.00    -0.095 A  
ENDROOT
BRANCH   9  13
HETATM   13  N   UNL     1     -10.469   9.952  70.891  1.00  0.00    -0.357 NA 
HETATM   14  H   UNL     1      -9.986  10.685  71.410  1.00  0.00     0.000 HD 
BRANCH  13  15
HETATM   15  C   UNL     1     -11.928   9.947  70.765  1.00  0.00    -0.323 C  
HETATM   16  C   UNL     1     -12.790   9.418  71.881  1.00  0.00    -0.497 C  
HETATM   17  C   UNL     1     -12.818  10.878  71.537  1.00  0.00    -0.560 C  
ENDBRANCH  13  15
ENDBRANCH   9  13
BRANCH  11  18
HETATM   18  C   UNL     1      -6.595   7.510  66.883  1.00  0.00    -0.061 C  
HETATM   19  C   UNL     1      -7.303   6.709  65.772  1.00  0.00    -0.075 C  
HETATM   20  C   UNL     1      -7.229   5.219  66.161  1.00  0.00    -0.073 C  
HETATM   21  C   UNL     1      -5.919   6.449  67.696  1.00  0.00    -0.017 C  
HETATM   22  C   UNL     1      -6.243   5.216  67.295  1.00  0.00    -0.035 C  
BRANCH  20  23
HETATM   23  C   UNL     1      -8.592   4.648  66.563  1.00  0.00    -0.112 C  
HETATM   24  O   UNL     1      -8.536   4.074  67.866  1.00  0.00    -0.093 OA 
HETATM   25  H   UNL     1      -9.381   3.720  68.115  1.00  0.00     0.000 HD 
ENDBRANCH  20  23
ENDBRANCH  11  18
TORSDOF 4
ENDMDL
MODEL      186
REMARK 921   NORMALIZED FREE ENERGY PREDICTED BY IDOCK:   -2.52 KCAL/MOL
REMARK 922        TOTAL FREE ENERGY PREDICTED BY IDOCK:   -3.62 KCAL/MOL
REMARK 923 INTER-LIGAND FREE ENERGY PREDICTED BY IDOCK:   -3.79 KCAL/MOL
REMARK 924 INTRA-LIGAND FREE ENERGY PREDICTED BY IDOCK:    0.17 KCAL/MOL
REMARK 927      BINDING AFFINITY PREDICTED BY RF-SCORE:    0.00 PKD
ROOT
HETATM    1  N   UNL     1     -10.510  13.878  64.692  1.00  0.00    -0.499 NA 
HETATM    2  C   UNL     1      -9.790  13.591  65.833  1.00  0.00    -0.241 A  
HETATM    3  H2  UNL     1     -10.740  13.152  64.013  1.00  0.00     0.000 HD 
HETATM    4  H1  UNL     1     -10.804  14.845  64.556  1.00  0.00     0.000 HD 
HETATM    5  N   UNL     1      -9.405  12.324  66.012  1.00  0.00    -0.190 NA 
HETATM    6  C   UNL     1      -8.666  12.172  67.124  1.00  0.00    -0.190 A  
HETATM    7  C   UNL     1      -8.307  13.155  68.031  1.00  0.00    -0.162 A  
HETATM    8  N   UNL     1      -7.532  12.607  69.037  1.00  0.00     0.024 NA 
HETATM    9  C   UNL     1      -8.809  14.449  67.783  1.00  0.00    -0.186 A  
HETATM   10  N   UNL     1      -9.572  14.620  66.665  1.00  0.00    -0.264 NA 
HETATM   11  N   UNL     1      -8.117  11.012  67.592  1.00  0.00    -0.114 NA 
HETATM   12  C   UNL     1      -7.438  11.324  68.740  1.00  0.00    -0.123 A  
ENDROOT
BRANCH   9  13
HETATM   13  N   UNL     1      -8.558  15.561  68.613  1.00  0.00    -0.168 NA 
HETATM   14  H   UNL     1      -9.121  15.737  69.446  1.00  0.00     0.000 HD 
BRANCH  13  15
HETATM   15  C   UNL     1      -7.461  16.455  68.237  1.00  0.00    -0.161 C  
HETATM   16  C   UNL     1      -6.348  16.751  69.208  1.00  0.00    -0.213 C  
HETATM   17  C   UNL     1      -6.068  15.968  67.960  1.00  0.00    -0.140 C  
ENDBRANCH  13  15
ENDBRANCH   9  13
BRANCH  11  18
HETATM   18  C   UNL     1      -8.303   9.707  66.970  1.00  0.00    -0.117 C  
HETATM   19  C   UNL     1      -7.019   9.154  66.319  1.00  0.00    -0.086 C  
HETATM   20  C   UNL     1      -7.263   9.099  64.798  1.00  0.00    -0.097 C  
HETATM   21  C   UNL     1      -9.298   9.679  65.850  1.00  0.00    -0.275 C  
HETATM   22  C   UNL     1      -8.743   9.333  64.685  1.00  0.00    -0.223 C  
BRANCH  20  23
HETATM   23  C   UNL     1      -6.442  10.142  64.033  1.00  0.00    -0.119 C  
HETATM   24  O   UNL     1      -6.145  11.261  64.862  1.00  0.00    -0.247 OA 
HETATM   25  H   UNL     1      -5.636  11.907  64.389  1.00  0.00     0.000 HD 
ENDBRANCH  20  23
ENDBRANCH  11  18
TORSDOF 4
ENDMDL
MODEL      187
REMARK 921   NORMALIZED FREE ENERGY PREDICTED BY IDOCK:   -2.46 KCAL/MOL
REMARK 922        TOTAL FREE ENERGY PREDICTED BY IDOCK:   -3.56 KCAL/MOL
REMARK 923 INTER-LIGAND FREE ENERGY PREDICTED BY IDOCK:   -2.98 KCAL/MOL
REMARK 924 INTRA-LIGAND FREE ENERGY PREDICTED BY IDOCK:   -0.58 KCAL/MOL
REMARK 927      BINDING AFFINITY PREDICTED BY RF-SCORE:    0.00 PKD
ROOT
HETATM    1  N   UNL     1      -9.847   1.617  70.889  1.00  0.00    -0.073 NA 
HETATM    2  C   UNL     1      -9.717   2.969  71.129  1.00  0.00    -0.122 A  
HETATM    3  H2  UNL     1     -10.009   1.258  69.948  1.00  0.00     0.000 HD 
HETATM    4  H1  UNL     1      -9.772   0.991  71.691  1.00  0.00     0.000 HD 
HETATM    5  N   UNL     1      -9.815   3.789  70.078  1.00  0.00    -0.130 NA 
HETATM    6  C   UNL     1      -9.728   5.082  70.436  1.00  0.00    -0.209 A  
HETATM    7  C   UNL     1      -9.554   5.586  71.713  1.00  0.00    -0.151 A  
HETATM    8  N   UNL     1      -9.527   6.969  71.674  1.00  0.00    -0.157 NA 
HETATM    9  C   UNL     1      -9.406   4.638  72.747  1.00  0.00    -0.128 A  
HETATM   10  N   UNL     1      -9.478   3.320  72.400  1.00  0.00    -0.114 NA 
HETATM   11  N   UNL     1      -9.794   6.168  69.610  1.00  0.00    -0.157 NA 
HETATM   12  C   UNL     1      -9.676   7.281  70.399  1.00  0.00    -0.172 A  
ENDROOT
BRANCH   9  13
HETATM   13  N   UNL     1      -9.201   4.977  74.100  1.00  0.00    -0.117 NA 
HETATM   14  H   UNL     1      -9.986   5.119  74.735  1.00  0.00     0.000 HD 
BRANCH  13  15
HETATM   15  C   UNL     1      -7.818   5.117  74.561  1.00  0.00    -0.095 C  
HETATM   16  C   UNL     1      -6.670   4.721  73.670  1.00  0.00    -0.068 C  
HETATM   17  C   UNL     1      -6.880   6.162  74.029  1.00  0.00    -0.080 C  
ENDBRANCH  13  15
ENDBRANCH   9  13
BRANCH  11  18
HETATM   18  C   UNL     1      -9.910   6.089  68.159  1.00  0.00    -0.131 C  
HETATM   19  C   UNL     1      -8.567   6.297  67.429  1.00  0.00    -0.107 C  
HETATM   20  C   UNL     1      -8.676   7.613  66.634  1.00  0.00    -0.150 C  
HETATM   21  C   UNL     1     -10.801   7.123  67.542  1.00  0.00    -0.311 C  
HETATM   22  C   UNL     1     -10.142   7.931  66.706  1.00  0.00    -0.352 C  
BRANCH  20  23
HETATM   23  C   UNL     1      -7.802   8.727  67.220  1.00  0.00    -0.097 C  
HETATM   24  O   UNL     1      -6.641   8.186  67.842  1.00  0.00    -0.058 OA 
HETATM   25  H   UNL     1      -6.099   8.875  68.205  1.00  0.00     0.000 HD 
ENDBRANCH  20  23
ENDBRANCH  11  18
TORSDOF 4
ENDMDL
MODEL      188
REMARK 921   NORMALIZED FREE ENERGY PREDICTED BY IDOCK:   -2.29 KCAL/MOL
REMARK 922        TOTAL FREE ENERGY PREDICTED BY IDOCK:   -3.34 KCAL/MOL
REMARK 923 INTER-LIGAND FREE ENERGY PREDICTED BY IDOCK:   -3.43 KCAL/MOL
REMARK 924 INTRA-LIGAND FREE ENERGY PREDICTED BY IDOCK:    0.09 KCAL/MOL
REMARK 927      BINDING AFFINITY PREDICTED BY RF-SCORE:    0.00 PKD
ROOT
HETATM    1  N   UNL     1      -8.140   5.934  65.726  1.00  0.00    -0.115 NA 
HETATM    2  C   UNL     1      -8.484   6.292  67.012  1.00  0.00    -0.108 A  
HETATM    3  H2  UNL     1      -8.480   6.458  64.920  1.00  0.00     0.000 HD 
HETATM    4  H1  UNL     1      -7.530   5.124  65.613  1.00  0.00     0.000 HD 
HETATM    5  N   UNL     1      -9.283   7.353  67.160  1.00  0.00    -0.131 NA 
HETATM    6  C   UNL     1      -9.595   7.575  68.448  1.00  0.00    -0.150 A  
HETATM    7  C   UNL     1      -9.178   6.846  69.548  1.00  0.00    -0.148 A  
HETATM    8  N   UNL     1      -9.724   7.379  70.702  1.00  0.00    -0.175 NA 
HETATM    9  C   UNL     1      -8.292   5.779  69.293  1.00  0.00    -0.108 A  
HETATM   10  N   UNL     1      -7.953   5.546  67.992  1.00  0.00    -0.096 NA 
HETATM   11  N   UNL     1     -10.391   8.571  68.939  1.00  0.00    -0.211 NA 
HETATM   12  C   UNL     1     -10.446   8.409  70.298  1.00  0.00    -0.218 A  
ENDROOT
BRANCH   9  13
HETATM   13  N   UNL     1      -7.755   4.947  70.297  1.00  0.00    -0.061 NA 
HETATM   14  H   UNL     1      -6.776   5.019  70.576  1.00  0.00     0.000 HD 
BRANCH  13  15
HETATM   15  C   UNL     1      -8.652   3.975  70.925  1.00  0.00    -0.075 C  
HETATM   16  C   UNL     1      -8.540   2.509  70.602  1.00  0.00    -0.103 C  
HETATM   17  C   UNL     1      -8.198   3.004  71.976  1.00  0.00    -0.059 C  
ENDBRANCH  13  15
ENDBRANCH   9  13
BRANCH  11  18
HETATM   18  C   UNL     1     -10.994   9.617  68.122  1.00  0.00    -0.132 C  
HETATM   19  C   UNL     1     -10.095  10.072  66.954  1.00  0.00    -0.287 C  
HETATM   20  C   UNL     1      -9.691  11.534  67.227  1.00  0.00    -0.197 C  
HETATM   21  C   UNL     1     -11.286  10.894  68.849  1.00  0.00    -0.327 C  
HETATM   22  C   UNL     1     -10.601  11.930  68.356  1.00  0.00    -0.239 C  
BRANCH  20  23
HETATM   23  C   UNL     1      -8.209  11.677  67.587  1.00  0.00    -0.141 C  
HETATM   24  O   UNL     1      -8.042  11.824  68.994  1.00  0.00    -0.345 OA 
HETATM   25  H   UNL     1      -7.123  11.912  69.217  1.00  0.00     0.000 HD 
ENDBRANCH  20  23
ENDBRANCH  11  18
TORSDOF 4
ENDMDL
MODEL      189
REMARK 921   NORMALIZED FREE ENERGY PREDICTED BY IDOCK:   -2.22 KCAL/MOL
REMARK 922        TOTAL FREE ENERGY PREDICTED BY IDOCK:   -3.26 KCAL/MOL
REMARK 923 INTER-LIGAND FREE ENERGY PREDICTED BY IDOCK:   -3.55 KCAL/MOL
REMARK 924 INTRA-LIGAND FREE ENERGY PREDICTED BY IDOCK:    0.29 KCAL/MOL
REMARK 927      BINDING AFFINITY PREDICTED BY RF-SCORE:    0.00 PKD
ROOT
HETATM    1  N   UNL     1      -5.599   6.141  70.125  1.00  0.00    -0.013 NA 
HETATM    2  C   UNL     1      -6.917   6.264  69.739  1.00  0.00    -0.070 A  
HETATM    3  H2  UNL     1      -5.341   6.035  71.106  1.00  0.00     0.000 HD 
HETATM    4  H1  UNL     1      -4.893   6.161  69.390  1.00  0.00     0.000 HD 
HETATM    5  N   UNL     1      -7.843   6.239  70.702  1.00  0.00    -0.105 NA 
HETATM    6  C   UNL     1      -9.083   6.421  70.218  1.00  0.00    -0.155 A  
HETATM    7  C   UNL     1      -9.444   6.612  68.895  1.00  0.00    -0.130 A  
HETATM    8  N   UNL     1     -10.815   6.776  68.800  1.00  0.00    -0.238 NA 
HETATM    9  C   UNL     1      -8.401   6.568  67.948  1.00  0.00    -0.115 A  
HETATM   10  N   UNL     1      -7.136   6.370  68.420  1.00  0.00    -0.080 NA 
HETATM   11  N   UNL     1     -10.246   6.453  70.933  1.00  0.00    -0.187 NA 
HETATM   12  C   UNL     1     -11.261   6.677  70.040  1.00  0.00    -0.369 A  
ENDROOT
BRANCH   9  13
HETATM   13  N   UNL     1      -8.593   6.723  66.559  1.00  0.00    -0.123 NA 
HETATM   14  H   UNL     1      -8.997   7.576  66.173  1.00  0.00     0.000 HD 
BRANCH  13  15
HETATM   15  C   UNL     1      -8.192   5.613  65.691  1.00  0.00    -0.126 C  
HETATM   16  C   UNL     1      -8.660   4.210  65.978  1.00  0.00    -0.113 C  
HETATM   17  C   UNL     1      -9.141   4.927  64.751  1.00  0.00    -0.098 C  
ENDBRANCH  13  15
ENDBRANCH   9  13
BRANCH  11  18
HETATM   18  C   UNL     1     -10.333   6.227  72.370  1.00  0.00    -0.191 C  
HETATM   19  C   UNL     1     -10.090   7.503  73.202  1.00  0.00    -0.362 C  
HETATM   20  C   UNL     1      -8.780   7.295  73.988  1.00  0.00    -0.246 C  
HETATM   21  C   UNL     1      -9.327   5.262  72.917  1.00  0.00    -0.147 C  
HETATM   22  C   UNL     1      -8.504   5.830  73.803  1.00  0.00    -0.115 C  
BRANCH  20  23
HETATM   23  C   UNL     1      -7.640   8.179  73.473  1.00  0.00    -0.155 C  
HETATM   24  O   UNL     1      -7.171   9.050  74.498  1.00  0.00    -0.414 OA 
HETATM   25  H   UNL     1      -6.465   9.598  74.180  1.00  0.00     0.000 HD 
ENDBRANCH  20  23
ENDBRANCH  11  18
TORSDOF 4
ENDMDL
MODEL      190
REMARK 921   NORMALIZED FREE ENERGY PREDICTED BY IDOCK:   -2.16 KCAL/MOL
REMARK 922        TOTAL FREE ENERGY PREDICTED BY IDOCK:   -3.19 KCAL/MOL
REMARK 923 INTER-LIGAND FREE ENERGY PREDICTED BY IDOCK:   -2.86 KCAL/MOL
REMARK 924 INTRA-LIGAND FREE ENERGY PREDICTED BY IDOCK:   -0.33 KCAL/MOL
REMARK 927      BINDING AFFINITY PREDICTED BY RF-SCORE:    0.00 PKD
ROOT
HETATM    1  N   UNL     1     -10.461   8.082  66.491  1.00  0.00    -0.430 NA 
HETATM    2  C   UNL     1      -9.602   7.090  66.915  1.00  0.00    -0.168 A  
HETATM    3  H2  UNL     1     -11.053   8.589  67.150  1.00  0.00     0.000 HD 
HETATM    4  H1  UNL     1     -10.481   8.288  65.492  1.00  0.00     0.000 HD 
HETATM    5  N   UNL     1      -9.577   6.819  68.223  1.00  0.00    -0.127 NA 
HETATM    6  C   UNL     1      -8.747   5.803  68.514  1.00  0.00    -0.111 A  
HETATM    7  C   UNL     1      -7.973   5.075  67.626  1.00  0.00    -0.095 A  
HETATM    8  N   UNL     1      -7.264   4.101  68.307  1.00  0.00    -0.059 NA 
HETATM    9  C   UNL     1      -8.028   5.473  66.275  1.00  0.00    -0.105 A  
HETATM   10  N   UNL     1      -8.855   6.512  65.963  1.00  0.00    -0.154 NA 
HETATM   11  N   UNL     1      -8.495   5.277  69.749  1.00  0.00    -0.097 NA 
HETATM   12  C   UNL     1      -7.603   4.252  69.575  1.00  0.00    -0.054 A  
ENDROOT
BRANCH   9  13
HETATM   13  N   UNL     1      -7.291   4.856  65.243  1.00  0.00    -0.071 NA 
HETATM   14  H   UNL     1      -6.341   5.154  65.021  1.00  0.00     0.000 HD 
BRANCH  13  15
HETATM   15  C   UNL     1      -7.938   3.771  64.503  1.00  0.00    -0.086 C  
HETATM   16  C   UNL     1      -9.412   3.507  64.664  1.00  0.00    -0.156 C  
HETATM   17  C   UNL     1      -8.877   4.010  63.356  1.00  0.00    -0.111 C  
ENDBRANCH  13  15
ENDBRANCH   9  13
BRANCH  11  18
HETATM   18  C   UNL     1      -9.057   5.793  70.991  1.00  0.00    -0.146 C  
HETATM   19  C   UNL     1      -8.564   5.038  72.242  1.00  0.00    -0.125 C  
HETATM   20  C   UNL     1      -9.780   4.311  72.849  1.00  0.00    -0.172 C  
HETATM   21  C   UNL     1     -10.548   5.695  71.095  1.00  0.00    -0.312 C  
HETATM   22  C   UNL     1     -10.939   4.914  72.107  1.00  0.00    -0.068 C  
BRANCH  20  23
HETATM   23  C   UNL     1      -9.700   2.791  72.681  1.00  0.00    -0.127 C  
HETATM   24  O   UNL     1     -10.147   2.400  71.387  1.00  0.00    -0.087 OA 
HETATM   25  H   UNL     1     -10.097   1.458  71.282  1.00  0.00     0.000 HD 
ENDBRANCH  20  23
ENDBRANCH  11  18
TORSDOF 4
ENDMDL
MODEL      191
REMARK 921   NORMALIZED FREE ENERGY PREDICTED BY IDOCK:   -2.07 KCAL/MOL
REMARK 922        TOTAL FREE ENERGY PREDICTED BY IDOCK:   -3.07 KCAL/MOL
REMARK 923 INTER-LIGAND FREE ENERGY PREDICTED BY IDOCK:   -3.97 KCAL/MOL
REMARK 924 INTRA-LIGAND FREE ENERGY PREDICTED BY IDOCK:    0.90 KCAL/MOL
REMARK 927      BINDING AFFINITY PREDICTED BY RF-SCORE:    0.00 PKD
ROOT
HETATM    1  N   UNL     1      -7.907   6.261  66.559  1.00  0.00    -0.102 NA 
HETATM    2  C   UNL     1      -8.614   6.885  67.564  1.00  0.00    -0.121 A  
HETATM    3  H2  UNL     1      -7.871   6.648  65.615  1.00  0.00     0.000 HD 
HETATM    4  H1  UNL     1      -7.420   5.396  66.796  1.00  0.00     0.000 HD 
HETATM    5  N   UNL     1      -9.252   8.017  67.253  1.00  0.00    -0.136 NA 
HETATM    6  C   UNL     1      -9.950   8.507  68.292  1.00  0.00    -0.184 A  
HETATM    7  C   UNL     1     -10.045   7.969  69.564  1.00  0.00    -0.196 A  
HETATM    8  N   UNL     1     -10.868   8.757  70.348  1.00  0.00    -0.224 NA 
HETATM    9  C   UNL     1      -9.291   6.803  69.809  1.00  0.00    -0.145 A  
HETATM   10  N   UNL     1      -8.565   6.299  68.769  1.00  0.00    -0.122 NA 
HETATM   11  N   UNL     1     -10.711   9.641  68.306  1.00  0.00    -0.232 NA 
HETATM   12  C   UNL     1     -11.250   9.747  69.561  1.00  0.00    -0.142 A  
ENDROOT
BRANCH   9  13
HETATM   13  N   UNL     1      -9.256   6.137  71.051  1.00  0.00    -0.157 NA 
HETATM   14  H   UNL     1      -8.600   5.374  71.224  1.00  0.00     0.000 HD 
BRANCH  13  15
HETATM   15  C   UNL     1     -10.194   6.579  72.085  1.00  0.00    -0.185 C  
HETATM   16  C   UNL     1     -11.430   5.775  72.391  1.00  0.00    -0.343 C  
HETATM   17  C   UNL     1     -10.335   5.889  73.411  1.00  0.00    -0.246 C  
ENDBRANCH  13  15
ENDBRANCH   9  13
BRANCH  11  18
HETATM   18  C   UNL     1     -10.840  10.558  67.181  1.00  0.00    -0.259 C  
HETATM   19  C   UNL     1      -9.929  10.192  65.991  1.00  0.00    -0.322 C  
HETATM   20  C   UNL     1      -8.888  11.319  65.846  1.00  0.00    -0.174 C  
HETATM   21  C   UNL     1     -10.463  11.977  67.479  1.00  0.00    -0.234 C  
HETATM   22  C   UNL     1      -9.426  12.394  66.747  1.00  0.00    -0.228 C  
BRANCH  20  23
HETATM   23  C   UNL     1      -7.478  10.870  66.242  1.00  0.00    -0.129 C  
HETATM   24  O   UNL     1      -7.117  11.397  67.515  1.00  0.00    -0.093 OA 
HETATM   25  H   UNL     1      -6.243  11.119  67.761  1.00  0.00     0.000 HD 
ENDBRANCH  20  23
ENDBRANCH  11  18
TORSDOF 4
ENDMDL
MODEL      192
REMARK 921   NORMALIZED FREE ENERGY PREDICTED BY IDOCK:   -1.95 KCAL/MOL
REMARK 922        TOTAL FREE ENERGY PREDICTED BY IDOCK:   -2.92 KCAL/MOL
REMARK 923 INTER-LIGAND FREE ENERGY PREDICTED BY IDOCK:   -2.93 KCAL/MOL
REMARK 924 INTRA-LIGAND FREE ENERGY PREDICTED BY IDOCK:    0.00 KCAL/MOL
REMARK 927      BINDING AFFINITY PREDICTED BY RF-SCORE:    0.00 PKD
ROOT
HETATM    1  N   UNL     1     -11.006   6.112  70.194  1.00  0.00    -0.326 NA 
HETATM    2  C   UNL     1     -10.153   6.293  69.125  1.00  0.00    -0.168 A  
HETATM    3  H2  UNL     1     -10.796   5.441  70.933  1.00  0.00     0.000 HD 
HETATM    4  H1  UNL     1     -11.855   6.678  70.215  1.00  0.00     0.000 HD 
HETATM    5  N   UNL     1      -9.041   5.552  69.097  1.00  0.00    -0.107 NA 
HETATM    6  C   UNL     1      -8.315   5.772  67.987  1.00  0.00    -0.103 A  
HETATM    7  C   UNL     1      -8.609   6.646  66.954  1.00  0.00    -0.115 A  
HETATM    8  N   UNL     1      -7.625   6.577  65.985  1.00  0.00    -0.084 NA 
HETATM    9  C   UNL     1      -9.776   7.423  67.104  1.00  0.00    -0.171 A  
HETATM   10  N   UNL     1     -10.520   7.223  68.231  1.00  0.00    -0.203 NA 
HETATM   11  N   UNL     1      -7.133   5.177  67.650  1.00  0.00    -0.065 NA 
HETATM   12  C   UNL     1      -6.760   5.687  66.434  1.00  0.00    -0.057 A  
ENDROOT
BRANCH   9  13
HETATM   13  N   UNL     1     -10.213   8.374  66.160  1.00  0.00    -0.385 NA 
HETATM   14  H   UNL     1     -10.356   8.122  65.181  1.00  0.00     0.000 HD 
BRANCH  13  15
HETATM   15  C   UNL     1     -10.455   9.739  66.634  1.00  0.00    -0.163 C  
HETATM   16  C   UNL     1      -9.318  10.584  67.144  1.00  0.00    -0.173 C  
HETATM   17  C   UNL     1     -10.022  10.958  65.873  1.00  0.00    -0.294 C  
ENDBRANCH  13  15
ENDBRANCH   9  13
BRANCH  11  18
HETATM   18  C   UNL     1      -6.421   4.227  68.496  1.00  0.00    -0.037 C  
HETATM   19  C   UNL     1      -6.849   2.764  68.260  1.00  0.00    -0.048 C  
HETATM   20  C   UNL     1      -7.540   2.275  69.549  1.00  0.00    -0.043 C  
HETATM   21  C   UNL     1      -6.631   4.415  69.967  1.00  0.00    -0.033 C  
HETATM   22  C   UNL     1      -7.214   3.357  70.538  1.00  0.00    -0.037 C  
BRANCH  20  23
HETATM   23  C   UNL     1      -9.048   2.077  69.367  1.00  0.00    -0.109 C  
HETATM   24  O   UNL     1      -9.515   2.769  68.213  1.00  0.00    -0.202 OA 
HETATM   25  H   UNL     1     -10.449   2.647  68.100  1.00  0.00     0.000 HD 
ENDBRANCH  20  23
ENDBRANCH  11  18
TORSDOF 4
ENDMDL
MODEL      193
REMARK 921   NORMALIZED FREE ENERGY PREDICTED BY IDOCK:   -1.94 KCAL/MOL
REMARK 922        TOTAL FREE ENERGY PREDICTED BY IDOCK:   -2.91 KCAL/MOL
REMARK 923 INTER-LIGAND FREE ENERGY PREDICTED BY IDOCK:   -3.25 KCAL/MOL
REMARK 924 INTRA-LIGAND FREE ENERGY PREDICTED BY IDOCK:    0.34 KCAL/MOL
REMARK 927      BINDING AFFINITY PREDICTED BY RF-SCORE:    0.00 PKD
ROOT
HETATM    1  N   UNL     1      -5.680   6.344  69.746  1.00  0.00    -0.014 NA 
HETATM    2  C   UNL     1      -7.037   6.561  69.631  1.00  0.00    -0.072 A  
HETATM    3  H2  UNL     1      -5.254   6.117  70.645  1.00  0.00     0.000 HD 
HETATM    4  H1  UNL     1      -5.121   6.419  68.897  1.00  0.00     0.000 HD 
HETATM    5  N   UNL     1      -7.770   6.463  70.743  1.00  0.00    -0.100 NA 
HETATM    6  C   UNL     1      -9.065   6.747  70.523  1.00  0.00    -0.156 A  
HETATM    7  C   UNL     1      -9.651   7.101  69.319  1.00  0.00    -0.155 A  
HETATM    8  N   UNL     1     -11.003   7.328  69.502  1.00  0.00    -0.205 NA 
HETATM    9  C   UNL     1      -8.803   7.123  68.192  1.00  0.00    -0.126 A  
HETATM   10  N   UNL     1      -7.487   6.824  68.395  1.00  0.00    -0.093 NA 
HETATM   11  N   UNL     1     -10.074   6.744  71.444  1.00  0.00    -0.183 NA 
HETATM   12  C   UNL     1     -11.220   7.107  70.786  1.00  0.00    -0.279 A  
ENDROOT
BRANCH   9  13
HETATM   13  N   UNL     1      -9.237   7.442  66.889  1.00  0.00    -0.145 NA 
HETATM   14  H   UNL     1      -9.328   6.722  66.171  1.00  0.00     0.000 HD 
BRANCH  13  15
HETATM   15  C   UNL     1      -9.552   8.843  66.603  1.00  0.00    -0.219 C  
HETATM   16  C   UNL     1      -8.468   9.801  66.185  1.00  0.00    -0.130 C  
HETATM   17  C   UNL     1      -9.545   9.415  65.215  1.00  0.00    -0.251 C  
ENDBRANCH  13  15
ENDBRANCH   9  13
BRANCH  11  18
HETATM   18  C   UNL     1      -9.910   6.361  72.840  1.00  0.00    -0.167 C  
HETATM   19  C   UNL     1      -8.584   5.622  73.116  1.00  0.00    -0.117 C  
HETATM   20  C   UNL     1      -8.938   4.178  73.522  1.00  0.00    -0.095 C  
HETATM   21  C   UNL     1     -10.947   5.412  73.359  1.00  0.00    -0.349 C  
HETATM   22  C   UNL     1     -10.422   4.245  73.745  1.00  0.00    -0.277 C  
BRANCH  20  23
HETATM   23  C   UNL     1      -8.549   3.155  72.451  1.00  0.00    -0.079 C  
HETATM   24  O   UNL     1      -7.414   2.398  72.862  1.00  0.00    -0.039 OA 
HETATM   25  H   UNL     1      -7.172   1.763  72.199  1.00  0.00     0.000 HD 
ENDBRANCH  20  23
ENDBRANCH  11  18
TORSDOF 4
ENDMDL
MODEL      194
REMARK 921   NORMALIZED FREE ENERGY PREDICTED BY IDOCK:   -1.79 KCAL/MOL
REMARK 922        TOTAL FREE ENERGY PREDICTED BY IDOCK:   -2.73 KCAL/MOL
REMARK 923 INTER-LIGAND FREE ENERGY PREDICTED BY IDOCK:   -2.92 KCAL/MOL
REMARK 924 INTRA-LIGAND FREE ENERGY PREDICTED BY IDOCK:    0.19 KCAL/MOL
REMARK 927      BINDING AFFINITY PREDICTED BY RF-SCORE:    0.00 PKD
ROOT
HETATM    1  N   UNL     1      -8.909   4.077  67.197  1.00  0.00    -0.113 NA 
HETATM    2  C   UNL     1      -8.581   5.375  67.527  1.00  0.00    -0.108 A  
HETATM    3  H2  UNL     1      -9.561   3.534  67.763  1.00  0.00     0.000 HD 
HETATM    4  H1  UNL     1      -8.474   3.682  66.363  1.00  0.00     0.000 HD 
HETATM    5  N   UNL     1      -9.150   5.892  68.619  1.00  0.00    -0.116 NA 
HETATM    6  C   UNL     1      -8.717   7.139  68.874  1.00  0.00    -0.128 A  
HETATM    7  C   UNL     1      -7.799   7.871  68.141  1.00  0.00    -0.127 A  
HETATM    8  N   UNL     1      -7.604   9.107  68.730  1.00  0.00    -0.082 NA 
HETATM    9  C   UNL     1      -7.296   7.259  66.974  1.00  0.00    -0.093 A  
HETATM   10  N   UNL     1      -7.735   5.998  66.693  1.00  0.00    -0.101 NA 
HETATM   11  N   UNL     1      -9.096   7.943  69.911  1.00  0.00    -0.146 NA 
HETATM   12  C   UNL     1      -8.395   9.113  69.788  1.00  0.00    -0.136 A  
ENDROOT
BRANCH   9  13
HETATM   13  N   UNL     1      -6.371   7.869  66.103  1.00  0.00    -0.045 NA 
HETATM   14  H   UNL     1      -5.367   7.730  66.216  1.00  0.00     0.000 HD 
BRANCH  13  15
HETATM   15  C   UNL     1      -6.905   8.709  65.028  1.00  0.00    -0.072 C  
HETATM   16  C   UNL     1      -7.543   8.086  63.815  1.00  0.00    -0.129 C  
HETATM   17  C   UNL     1      -8.375   8.880  64.778  1.00  0.00    -0.184 C  
ENDBRANCH  13  15
ENDBRANCH   9  13
BRANCH  11  18
HETATM   18  C   UNL     1     -10.106   7.586  70.900  1.00  0.00    -0.191 C  
HETATM   19  C   UNL     1      -9.607   7.715  72.353  1.00  0.00    -0.220 C  
HETATM   20  C   UNL     1      -9.570   6.296  72.954  1.00  0.00    -0.155 C  
HETATM   21  C   UNL     1     -10.587   6.169  70.825  1.00  0.00    -0.299 C  
HETATM   22  C   UNL     1     -10.318   5.480  71.937  1.00  0.00    -0.270 C  
BRANCH  20  23
HETATM   23  C   UNL     1      -8.142   5.791  73.180  1.00  0.00    -0.117 C  
HETATM   24  O   UNL     1      -7.243   6.378  72.245  1.00  0.00    -0.084 OA 
HETATM   25  H   UNL     1      -6.357   6.066  72.385  1.00  0.00     0.000 HD 
ENDBRANCH  20  23
ENDBRANCH  11  18
TORSDOF 4
ENDMDL
MODEL      195
REMARK 921   NORMALIZED FREE ENERGY PREDICTED BY IDOCK:   -1.58 KCAL/MOL
REMARK 922        TOTAL FREE ENERGY PREDICTED BY IDOCK:   -2.47 KCAL/MOL
REMARK 923 INTER-LIGAND FREE ENERGY PREDICTED BY IDOCK:   -2.43 KCAL/MOL
REMARK 924 INTRA-LIGAND FREE ENERGY PREDICTED BY IDOCK:   -0.04 KCAL/MOL
REMARK 927      BINDING AFFINITY PREDICTED BY RF-SCORE:    0.00 PKD
ROOT
HETATM    1  N   UNL     1      -5.150   6.270  69.768  1.00  0.00    -0.012 NA 
HETATM    2  C   UNL     1      -6.458   5.939  70.055  1.00  0.00    -0.039 A  
HETATM    3  H2  UNL     1      -4.488   6.507  70.507  1.00  0.00     0.000 HD 
HETATM    4  H1  UNL     1      -4.871   6.266  68.787  1.00  0.00     0.000 HD 
HETATM    5  N   UNL     1      -6.823   5.944  71.340  1.00  0.00    -0.061 NA 
HETATM    6  C   UNL     1      -8.128   5.661  71.497  1.00  0.00    -0.118 A  
HETATM    7  C   UNL     1      -9.048   5.382  70.501  1.00  0.00    -0.142 A  
HETATM    8  N   UNL     1     -10.293   5.157  71.060  1.00  0.00    -0.224 NA 
HETATM    9  C   UNL     1      -8.553   5.347  69.181  1.00  0.00    -0.102 A  
HETATM   10  N   UNL     1      -7.227   5.619  69.005  1.00  0.00    -0.071 NA 
HETATM   11  N   UNL     1      -8.816   5.590  72.674  1.00  0.00    -0.124 NA 
HETATM   12  C   UNL     1     -10.116   5.292  72.362  1.00  0.00    -0.182 A  
ENDROOT
BRANCH   9  13
HETATM   13  N   UNL     1      -9.346   5.059  68.052  1.00  0.00    -0.120 NA 
HETATM   14  H   UNL     1      -9.516   4.098  67.756  1.00  0.00     0.000 HD 
BRANCH  13  15
HETATM   15  C   UNL     1      -9.917   6.191  67.318  1.00  0.00    -0.144 C  
HETATM   16  C   UNL     1     -10.040   7.542  67.971  1.00  0.00    -0.221 C  
HETATM   17  C   UNL     1      -9.093   7.345  66.825  1.00  0.00    -0.178 C  
ENDBRANCH  13  15
ENDBRANCH   9  13
BRANCH  11  18
HETATM   18  C   UNL     1      -8.211   5.755  73.990  1.00  0.00    -0.108 C  
HETATM   19  C   UNL     1      -8.072   7.230  74.416  1.00  0.00    -0.199 C  
HETATM   20  C   UNL     1      -6.566   7.547  74.491  1.00  0.00    -0.096 C  
HETATM   21  C   UNL     1      -6.813   5.229  74.110  1.00  0.00    -0.077 C  
HETATM   22  C   UNL     1      -5.930   6.189  74.399  1.00  0.00    -0.064 C  
BRANCH  20  23
HETATM   23  C   UNL     1      -6.108   8.489  73.373  1.00  0.00    -0.110 C  
HETATM   24  O   UNL     1      -5.133   7.859  72.547  1.00  0.00    -0.036 OA 
HETATM   25  H   UNL     1      -4.849   8.442  71.854  1.00  0.00     0.000 HD 
ENDBRANCH  20  23
ENDBRANCH  11  18
TORSDOF 4
ENDMDL
MODEL      196
REMARK 921   NORMALIZED FREE ENERGY PREDICTED BY IDOCK:   -1.48 KCAL/MOL
REMARK 922        TOTAL FREE ENERGY PREDICTED BY IDOCK:   -2.35 KCAL/MOL
REMARK 923 INTER-LIGAND FREE ENERGY PREDICTED BY IDOCK:   -4.12 KCAL/MOL
REMARK 924 INTRA-LIGAND FREE ENERGY PREDICTED BY IDOCK:    1.77 KCAL/MOL
REMARK 927      BINDING AFFINITY PREDICTED BY RF-SCORE:    0.00 PKD
ROOT
HETATM    1  N   UNL     1      -6.449  13.715  69.512  1.00  0.00    -0.151 NA 
HETATM    2  C   UNL     1      -7.463  13.778  68.579  1.00  0.00    -0.119 A  
HETATM    3  H2  UNL     1      -6.377  12.934  70.164  1.00  0.00     0.000 HD 
HETATM    4  H1  UNL     1      -5.775  14.480  69.522  1.00  0.00     0.000 HD 
HETATM    5  N   UNL     1      -8.347  12.776  68.565  1.00  0.00    -0.104 NA 
HETATM    6  C   UNL     1      -9.317  12.969  67.656  1.00  0.00    -0.202 A  
HETATM    7  C   UNL     1      -9.455  14.045  66.795  1.00  0.00    -0.282 A  
HETATM    8  N   UNL     1     -10.590  13.887  66.021  1.00  0.00    -0.288 NA 
HETATM    9  C   UNL     1      -8.441  15.024  66.848  1.00  0.00    -0.236 A  
HETATM   10  N   UNL     1      -7.440  14.837  67.757  1.00  0.00    -0.146 NA 
HETATM   11  N   UNL     1     -10.371  12.141  67.392  1.00  0.00    -0.204 NA 
HETATM   12  C   UNL     1     -11.114  12.737  66.407  1.00  0.00    -0.285 A  
ENDROOT
BRANCH   9  13
HETATM   13  N   UNL     1      -8.414  16.171  66.030  1.00  0.00    -0.261 NA 
HETATM   14  H   UNL     1      -8.803  16.159  65.087  1.00  0.00     0.000 HD 
BRANCH  13  15
HETATM   15  C   UNL     1      -7.806  17.384  66.583  1.00  0.00    -0.257 C  
HETATM   16  C   UNL     1      -7.580  17.518  68.066  1.00  0.00    -0.220 C  
HETATM   17  C   UNL     1      -6.409  17.421  67.132  1.00  0.00    -0.189 C  
ENDBRANCH  13  15
ENDBRANCH   9  13
BRANCH  11  18
HETATM   18  C   UNL     1     -10.579  10.848  68.033  1.00  0.00    -0.202 C  
HETATM   19  C   UNL     1      -9.398  10.413  68.923  1.00  0.00    -0.190 C  
HETATM   20  C   UNL     1      -8.766   9.167  68.272  1.00  0.00    -0.129 C  
HETATM   21  C   UNL     1     -10.741   9.697  67.088  1.00  0.00    -0.258 C  
HETATM   22  C   UNL     1      -9.778   8.782  67.230  1.00  0.00    -0.238 C  
BRANCH  20  23
HETATM   23  C   UNL     1      -7.385   9.452  67.675  1.00  0.00    -0.084 C  
HETATM   24  O   UNL     1      -7.076   8.519  66.644  1.00  0.00    -0.075 OA 
HETATM   25  H   UNL     1      -6.220   8.695  66.274  1.00  0.00     0.000 HD 
ENDBRANCH  20  23
ENDBRANCH  11  18
TORSDOF 4
ENDMDL
MODEL      197
REMARK 921   NORMALIZED FREE ENERGY PREDICTED BY IDOCK:   -0.69 KCAL/MOL
REMARK 922        TOTAL FREE ENERGY PREDICTED BY IDOCK:   -1.37 KCAL/MOL
REMARK 923 INTER-LIGAND FREE ENERGY PREDICTED BY IDOCK:   -2.29 KCAL/MOL
REMARK 924 INTRA-LIGAND FREE ENERGY PREDICTED BY IDOCK:    0.92 KCAL/MOL
REMARK 927      BINDING AFFINITY PREDICTED BY RF-SCORE:    0.00 PKD
ROOT
HETATM    1  N   UNL     1     -11.192  15.213  69.325  1.00  0.00    -0.261 NA 
HETATM    2  C   UNL     1      -9.873  15.614  69.290  1.00  0.00    -0.269 A  
HETATM    3  H2  UNL     1     -11.931  15.780  68.910  1.00  0.00     0.000 HD 
HETATM    4  H1  UNL     1     -11.399  14.325  69.784  1.00  0.00     0.000 HD 
HETATM    5  N   UNL     1      -9.603  16.777  68.690  1.00  0.00    -0.246 NA 
HETATM    6  C   UNL     1      -8.298  17.092  68.762  1.00  0.00    -0.236 A  
HETATM    7  C   UNL     1      -7.292  16.355  69.362  1.00  0.00    -0.150 A  
HETATM    8  N   UNL     1      -6.084  17.019  69.239  1.00  0.00    -0.199 NA 
HETATM    9  C   UNL     1      -7.669  15.116  69.920  1.00  0.00     0.041 A  
HETATM   10  N   UNL     1      -8.988  14.773  69.844  1.00  0.00     0.327 NA 
HETATM   11  N   UNL     1      -7.695  18.208  68.256  1.00  0.00    -0.274 NA 
HETATM   12  C   UNL     1      -6.365  18.125  68.573  1.00  0.00    -0.206 A  
ENDROOT
BRANCH   9  13
HETATM   13  N   UNL     1      -6.770  14.232  70.550  1.00  0.00    -0.399 NA 
HETATM   14  H   UNL     1      -6.964  13.232  70.607  1.00  0.00     0.000 HD 
BRANCH  13  15
HETATM   15  C   UNL     1      -5.547  14.800  71.120  1.00  0.00    -0.095 C  
HETATM   16  C   UNL     1      -5.590  16.099  71.882  1.00  0.00     0.717 C  
HETATM   17  C   UNL     1      -5.264  14.819  72.595  1.00  0.00    -0.112 C  
ENDBRANCH  13  15
ENDBRANCH   9  13
BRANCH  11  18
HETATM   18  C   UNL     1      -8.383  19.233  67.481  1.00  0.00    -0.290 C  
HETATM   19  C   UNL     1      -8.394  18.945  65.966  1.00  0.00    -0.103 C  
HETATM   20  C   UNL     1      -7.545  20.037  65.285  1.00  0.00     0.118 C  
HETATM   21  C   UNL     1      -7.777  20.600  67.567  1.00  0.00    -0.319 C  
HETATM   22  C   UNL     1      -7.344  21.042  66.383  1.00  0.00     0.084 C  
BRANCH  20  23
HETATM   23  C   UNL     1      -6.223  19.494  64.733  1.00  0.00    -0.270 C  
HETATM   24  O   UNL     1      -5.175  20.444  64.903  1.00  0.00    -0.153 OA 
HETATM   25  H   UNL     1      -4.356  20.107  64.562  1.00  0.00     0.000 HD 
ENDBRANCH  20  23
ENDBRANCH  11  18
TORSDOF 4
ENDMDL
MODEL      198
REMARK 921   NORMALIZED FREE ENERGY PREDICTED BY IDOCK:    4.16 KCAL/MOL
REMARK 922        TOTAL FREE ENERGY PREDICTED BY IDOCK:    4.61 KCAL/MOL
REMARK 923 INTER-LIGAND FREE ENERGY PREDICTED BY IDOCK:    1.13 KCAL/MOL
REMARK 924 INTRA-LIGAND FREE ENERGY PREDICTED BY IDOCK:    3.47 KCAL/MOL
REMARK 927      BINDING AFFINITY PREDICTED BY RF-SCORE:    0.00 PKD
ROOT
HETATM    1  N   UNL     1      -8.909  15.607  66.980  1.00  0.00    -0.209 NA 
HETATM    2  C   UNL     1      -9.480  14.393  67.297  1.00  0.00    -0.215 A  
HETATM    3  H2  UNL     1      -7.931  15.677  66.699  1.00  0.00     0.000 HD 
HETATM    4  H1  UNL     1      -9.505  16.433  67.037  1.00  0.00     0.000 HD 
HETATM    5  N   UNL     1      -8.699  13.311  67.223  1.00  0.00    -0.206 NA 
HETATM    6  C   UNL     1      -9.343  12.195  67.604  1.00  0.00    -0.187 A  
HETATM    7  C   UNL     1     -10.656  12.091  68.031  1.00  0.00    -0.208 A  
HETATM    8  N   UNL     1     -10.946  10.777  68.349  1.00  0.00    -0.228 NA 
HETATM    9  C   UNL     1     -11.414  13.280  68.022  1.00  0.00    -0.309 A  
HETATM   10  N   UNL     1     -10.780  14.421  67.624  1.00  0.00    -0.260 NA 
HETATM   11  N   UNL     1      -8.834  10.928  67.649  1.00  0.00    -0.133 NA 
HETATM   12  C   UNL     1      -9.831  10.110  68.110  1.00  0.00    -0.144 A  
ENDROOT
BRANCH   9  13
HETATM   13  N   UNL     1     -12.769  13.352  68.405  1.00  0.00     0.389 NA 
HETATM   14  H   UNL     1     -13.366  14.120  68.097  1.00  0.00     0.000 HD 
BRANCH  13  15
HETATM   15  C   UNL     1     -13.289  12.283  69.260  1.00  0.00     3.237 C  
HETATM   16  C   UNL     1     -12.348  11.365  69.995  1.00  0.00    -0.311 C  
HETATM   17  C   UNL     1     -13.211  12.325  70.759  1.00  0.00     0.394 C  
ENDBRANCH  13  15
ENDBRANCH   9  13
BRANCH  11  18
HETATM   18  C   UNL     1      -7.488  10.569  67.218  1.00  0.00    -0.095 C  
HETATM   19  C   UNL     1      -6.875   9.415  68.037  1.00  0.00    -0.074 C  
HETATM   20  C   UNL     1      -5.680   9.993  68.821  1.00  0.00    -0.034 C  
HETATM   21  C   UNL     1      -6.473  11.663  67.349  1.00  0.00    -0.103 C  
HETATM   22  C   UNL     1      -5.488  11.346  68.195  1.00  0.00    -0.042 C  
BRANCH  20  23
HETATM   23  C   UNL     1      -5.948  10.073  70.326  1.00  0.00    -0.070 C  
HETATM   24  O   UNL     1      -6.842   9.042  70.737  1.00  0.00    -0.057 OA 
HETATM   25  H   UNL     1      -7.008   9.091  71.671  1.00  0.00     0.000 HD 
ENDBRANCH  20  23
ENDBRANCH  11  18
TORSDOF 4
ENDMDL
MODEL      199
REMARK 921   NORMALIZED FREE ENERGY PREDICTED BY IDOCK:    4.89 KCAL/MOL
REMARK 922        TOTAL FREE ENERGY PREDICTED BY IDOCK:    5.52 KCAL/MOL
REMARK 923 INTER-LIGAND FREE ENERGY PREDICTED BY IDOCK:    4.49 KCAL/MOL
REMARK 924 INTRA-LIGAND FREE ENERGY PREDICTED BY IDOCK:    1.02 KCAL/MOL
REMARK 927      BINDING AFFINITY PREDICTED BY RF-SCORE:    0.00 PKD
ROOT
HETATM    1  N   UNL     1     -10.025  15.484  71.988  1.00  0.00     2.068 NA 
HETATM    2  C   UNL     1      -9.456  15.178  70.770  1.00  0.00     1.482 A  
HETATM    3  H2  UNL     1     -11.019  15.335  72.162  1.00  0.00     0.000 HD 
HETATM    4  H1  UNL     1      -9.411  15.864  72.708  1.00  0.00     0.000 HD 
HETATM    5  N   UNL     1     -10.260  14.680  69.826  1.00  0.00     0.031 NA 
HETATM    6  C   UNL     1      -9.612  14.470  68.667  1.00  0.00    -0.219 A  
HETATM    7  C   UNL     1      -8.275  14.709  68.402  1.00  0.00    -0.154 A  
HETATM    8  N   UNL     1      -7.988  14.379  67.090  1.00  0.00    -0.171 NA 
HETATM    9  C   UNL     1      -7.497  15.183  69.479  1.00  0.00    -0.213 A  
HETATM   10  N   UNL     1      -8.136  15.389  70.667  1.00  0.00     1.335 NA 
HETATM   11  N   UNL     1     -10.141  13.976  67.509  1.00  0.00    -0.235 NA 
HETATM   12  C   UNL     1      -9.130  13.946  66.586  1.00  0.00    -0.190 A  
ENDROOT
BRANCH   9  13
HETATM   13  N   UNL     1      -6.117  15.459  69.391  1.00  0.00    -0.114 NA 
HETATM   14  H   UNL     1      -5.675  15.663  68.494  1.00  0.00     0.000 HD 
BRANCH  13  15
HETATM   15  C   UNL     1      -5.342  15.443  70.633  1.00  0.00    -0.138 C  
HETATM   16  C   UNL     1      -6.035  15.350  71.967  1.00  0.00     1.003 C  
HETATM   17  C   UNL     1      -5.183  14.214  71.482  1.00  0.00    -0.175 C  
ENDBRANCH  13  15
ENDBRANCH   9  13
BRANCH  11  18
HETATM   18  C   UNL     1     -11.520  13.526  67.363  1.00  0.00    -0.336 C  
HETATM   19  C   UNL     1     -11.799  12.852  66.004  1.00  0.00    -0.485 C  
HETATM   20  C   UNL     1     -12.783  13.756  65.236  1.00  0.00    -0.481 C  
HETATM   21  C   UNL     1     -12.547  14.616  67.424  1.00  0.00     0.629 C  
HETATM   22  C   UNL     1     -13.241  14.727  66.287  1.00  0.00     1.692 C  
BRANCH  20  23
HETATM   23  C   UNL     1     -12.129  14.451  64.038  1.00  0.00    -0.280 C  
HETATM   24  O   UNL     1     -11.711  13.498  63.065  1.00  0.00    -0.554 OA 
HETATM   25  H   UNL     1     -11.306  13.928  62.322  1.00  0.00     0.000 HD 
ENDBRANCH  20  23
ENDBRANCH  11  18
TORSDOF 4
ENDMDL
MODEL      200
REMARK 921   NORMALIZED FREE ENERGY PREDICTED BY IDOCK:    6.22 KCAL/MOL
REMARK 922        TOTAL FREE ENERGY PREDICTED BY IDOCK:    7.16 KCAL/MOL
REMARK 923 INTER-LIGAND FREE ENERGY PREDICTED BY IDOCK:    7.13 KCAL/MOL
REMARK 924 INTRA-LIGAND FREE ENERGY PREDICTED BY IDOCK:    0.03 KCAL/MOL
REMARK 927      BINDING AFFINITY PREDICTED BY RF-SCORE:    0.00 PKD
ROOT
HETATM    1  N   UNL     1      -6.628  18.006  68.370  1.00  0.00    -0.204 NA 
HETATM    2  C   UNL     1      -6.966  16.720  68.006  1.00  0.00    -0.148 A  
HETATM    3  H2  UNL     1      -6.118  18.197  69.233  1.00  0.00     0.000 HD 
HETATM    4  H1  UNL     1      -6.907  18.760  67.742  1.00  0.00     0.000 HD 
HETATM    5  N   UNL     1      -6.600  15.734  68.829  1.00  0.00    -0.109 NA 
HETATM    6  C   UNL     1      -7.029  14.533  68.403  1.00  0.00    -0.107 A  
HETATM    7  C   UNL     1      -7.760  14.264  67.258  1.00  0.00    -0.120 A  
HETATM    8  N   UNL     1      -8.020  12.909  67.173  1.00  0.00    -0.142 NA 
HETATM    9  C   UNL     1      -8.049  15.366  66.426  1.00  0.00     0.174 A  
HETATM   10  N   UNL     1      -7.611  16.591  66.837  1.00  0.00    -0.210 NA 
HETATM   11  N   UNL     1      -6.829  13.327  69.012  1.00  0.00    -0.107 NA 
HETATM   12  C   UNL     1      -7.449  12.380  68.241  1.00  0.00    -0.124 A  
ENDROOT
BRANCH   9  13
HETATM   13  N   UNL     1      -8.765  15.269  65.215  1.00  0.00     1.041 NA 
HETATM   14  H   UNL     1      -8.304  15.406  64.316  1.00  0.00     0.000 HD 
BRANCH  13  15
HETATM   15  C   UNL     1     -10.196  14.964  65.296  1.00  0.00    -0.373 C  
HETATM   16  C   UNL     1     -10.669  13.538  65.399  1.00  0.00    -0.308 C  
HETATM   17  C   UNL     1     -10.858  14.478  66.553  1.00  0.00    -0.314 C  
ENDBRANCH  13  15
ENDBRANCH   9  13
BRANCH  11  18
HETATM   18  C   UNL     1      -6.043  13.141  70.225  1.00  0.00    -0.079 C  
HETATM   19  C   UNL     1      -5.165  11.873  70.192  1.00  0.00    -0.091 C  
HETATM   20  C   UNL     1      -5.705  10.913  71.270  1.00  0.00     0.141 C  
HETATM   21  C   UNL     1      -6.849  12.970  71.476  1.00  0.00     3.915 C  
HETATM   22  C   UNL     1      -6.652  11.779  72.051  1.00  0.00     4.684 C  
BRANCH  20  23
HETATM   23  C   UNL     1      -6.392   9.682  70.670  1.00  0.00    -0.097 C  
HETATM   24  O   UNL     1      -7.793   9.900  70.533  1.00  0.00    -0.295 OA 
HETATM   25  H   UNL     1      -8.219   9.137  70.161  1.00  0.00     0.000 HD 
ENDBRANCH  20  23
ENDBRANCH  11  18
TORSDOF 4
ENDMDL
MODEL      201
REMARK 921   NORMALIZED FREE ENERGY PREDICTED BY IDOCK:    7.48 KCAL/MOL
REMARK 922        TOTAL FREE ENERGY PREDICTED BY IDOCK:    8.71 KCAL/MOL
REMARK 923 INTER-LIGAND FREE ENERGY PREDICTED BY IDOCK:    8.74 KCAL/MOL
REMARK 924 INTRA-LIGAND FREE ENERGY PREDICTED BY IDOCK:   -0.03 KCAL/MOL
REMARK 927      BINDING AFFINITY PREDICTED BY RF-SCORE:    0.00 PKD
ROOT
HETATM    1  N   UNL     1      -7.762  18.621  64.725  1.00  0.00     1.709 NA 
HETATM    2  C   UNL     1      -8.313  18.123  65.887  1.00  0.00     0.117 A  
HETATM    3  H2  UNL     1      -7.152  18.050  64.139  1.00  0.00     0.000 HD 
HETATM    4  H1  UNL     1      -7.989  19.583  64.475  1.00  0.00     0.000 HD 
HETATM    5  N   UNL     1      -8.014  16.862  66.214  1.00  0.00    -0.310 NA 
HETATM    6  C   UNL     1      -8.560  16.502  67.389  1.00  0.00    -0.178 A  
HETATM    7  C   UNL     1      -9.351  17.279  68.217  1.00  0.00    -0.272 A  
HETATM    8  N   UNL     1      -9.708  16.558  69.341  1.00  0.00    -0.185 NA 
HETATM    9  C   UNL     1      -9.655  18.577  67.756  1.00  0.00    -0.290 A  
HETATM   10  N   UNL     1      -9.120  18.956  66.559  1.00  0.00    -0.320 NA 
HETATM   11  N   UNL     1      -8.446  15.290  68.008  1.00  0.00    -0.145 NA 
HETATM   12  C   UNL     1      -9.147  15.372  69.183  1.00  0.00    -0.243 A  
ENDROOT
BRANCH   9  13
HETATM   13  N   UNL     1     -10.462  19.493  68.462  1.00  0.00    -0.493 NA 
HETATM   14  H   UNL     1     -11.427  19.672  68.183  1.00  0.00     0.000 HD 
BRANCH  13  15
HETATM   15  C   UNL     1      -9.865  20.178  69.610  1.00  0.00     0.266 C  
HETATM   16  C   UNL     1     -10.606  21.288  70.309  1.00  0.00     2.546 C  
HETATM   17  C   UNL     1     -10.352  19.990  71.018  1.00  0.00     2.147 C  
ENDBRANCH  13  15
ENDBRANCH   9  13
BRANCH  11  18
HETATM   18  C   UNL     1      -7.745  14.143  67.446  1.00  0.00    -0.169 C  
HETATM   19  C   UNL     1      -7.774  14.108  65.904  1.00  0.00     3.771 C  
HETATM   20  C   UNL     1      -8.605  12.878  65.489  1.00  0.00     1.559 C  
HETATM   21  C   UNL     1      -8.308  12.810  67.832  1.00  0.00    -0.172 C  
HETATM   22  C   UNL     1      -8.752  12.119  66.777  1.00  0.00    -0.183 C  
BRANCH  20  23
HETATM   23  C   UNL     1      -9.953  13.260  64.872  1.00  0.00    -0.132 C  
HETATM   24  O   UNL     1     -10.693  14.101  65.753  1.00  0.00    -0.285 OA 
HETATM   25  H   UNL     1     -11.529  14.338  65.371  1.00  0.00     0.000 HD 
ENDBRANCH  20  23
ENDBRANCH  11  18
TORSDOF 4
ENDMDL
MODEL      202
REMARK 921   NORMALIZED FREE ENERGY PREDICTED BY IDOCK:    9.23 KCAL/MOL
REMARK 922        TOTAL FREE ENERGY PREDICTED BY IDOCK:   10.87 KCAL/MOL
REMARK 923 INTER-LIGAND FREE ENERGY PREDICTED BY IDOCK:    9.41 KCAL/MOL
REMARK 924 INTRA-LIGAND FREE ENERGY PREDICTED BY IDOCK:    1.45 KCAL/MOL
REMARK 927      BINDING AFFINITY PREDICTED BY RF-SCORE:    0.00 PKD
ROOT
HETATM    1  N   UNL     1     -10.046  15.632  72.418  1.00  0.00     2.813 NA 
HETATM    2  C   UNL     1      -9.485  15.318  71.198  1.00  0.00     2.323 A  
HETATM    3  H2  UNL     1     -11.013  15.388  72.636  1.00  0.00     0.000 HD 
HETATM    4  H1  UNL     1      -9.456  16.117  73.093  1.00  0.00     0.000 HD 
HETATM    5  N   UNL     1     -10.259  14.682  70.313  1.00  0.00     0.345 NA 
HETATM    6  C   UNL     1      -9.627  14.476  69.144  1.00  0.00    -0.027 A  
HETATM    7  C   UNL     1      -8.333  14.842  68.817  1.00  0.00    -0.168 A  
HETATM    8  N   UNL     1      -8.052  14.469  67.515  1.00  0.00    -0.175 NA 
HETATM    9  C   UNL     1      -7.579  15.458  69.837  1.00  0.00     0.005 A  
HETATM   10  N   UNL     1      -8.200  15.663  71.035  1.00  0.00     2.756 NA 
HETATM   11  N   UNL     1     -10.135  13.861  68.035  1.00  0.00    -0.238 NA 
HETATM   12  C   UNL     1      -9.155  13.886  67.078  1.00  0.00    -0.250 A  
ENDROOT
BRANCH   9  13
HETATM   13  N   UNL     1      -6.241  15.875  69.683  1.00  0.00    -0.168 NA 
HETATM   14  H   UNL     1      -5.804  15.920  68.762  1.00  0.00     0.000 HD 
BRANCH  13  15
HETATM   15  C   UNL     1      -5.502  16.243  70.892  1.00  0.00    -0.004 C  
HETATM   16  C   UNL     1      -6.226  16.462  72.195  1.00  0.00     2.939 C  
HETATM   17  C   UNL     1      -5.291  15.299  72.041  1.00  0.00     0.134 C  
ENDBRANCH  13  15
ENDBRANCH   9  13
BRANCH  11  18
HETATM   18  C   UNL     1     -11.460  13.258  67.965  1.00  0.00    -0.309 C  
HETATM   19  C   UNL     1     -11.720  12.229  69.083  1.00  0.00    -0.377 C  
HETATM   20  C   UNL     1     -11.858  10.848  68.412  1.00  0.00    -0.195 C  
HETATM   21  C   UNL     1     -11.733  12.484  66.712  1.00  0.00    -0.453 C  
HETATM   22  C   UNL     1     -11.968  11.190  66.954  1.00  0.00     0.913 C  
BRANCH  20  23
HETATM   23  C   UNL     1     -10.672   9.927  68.714  1.00  0.00    -0.220 C  
HETATM   24  O   UNL     1     -10.595   9.639  70.107  1.00  0.00    -0.231 OA 
HETATM   25  H   UNL     1      -9.860   9.069  70.294  1.00  0.00     0.000 HD 
ENDBRANCH  20  23
ENDBRANCH  11  18
TORSDOF 4
ENDMDL
MODEL      203
REMARK 921   NORMALIZED FREE ENERGY PREDICTED BY IDOCK:    9.39 KCAL/MOL
REMARK 922        TOTAL FREE ENERGY PREDICTED BY IDOCK:   11.06 KCAL/MOL
REMARK 923 INTER-LIGAND FREE ENERGY PREDICTED BY IDOCK:    9.95 KCAL/MOL
REMARK 924 INTRA-LIGAND FREE ENERGY PREDICTED BY IDOCK:    1.11 KCAL/MOL
REMARK 927      BINDING AFFINITY PREDICTED BY RF-SCORE:    0.00 PKD
ROOT
HETATM    1  N   UNL     1      -9.457  12.814  66.401  1.00  0.00    -0.295 NA 
HETATM    2  C   UNL     1      -9.390  14.030  67.048  1.00  0.00    -0.250 A  
HETATM    3  H2  UNL     1     -10.344  12.325  66.279  1.00  0.00     0.000 HD 
HETATM    4  H1  UNL     1      -8.583  12.424  66.049  1.00  0.00     0.000 HD 
HETATM    5  N   UNL     1     -10.535  14.542  67.510  1.00  0.00    -0.252 NA 
HETATM    6  C   UNL     1     -10.344  15.698  68.168  1.00  0.00    -0.246 A  
HETATM    7  C   UNL     1      -9.141  16.350  68.381  1.00  0.00    -0.214 A  
HETATM    8  N   UNL     1      -9.354  17.504  69.113  1.00  0.00    -0.070 NA 
HETATM    9  C   UNL     1      -7.997  15.758  67.807  1.00  0.00    -0.142 A  
HETATM   10  N   UNL     1      -8.175  14.590  67.124  1.00  0.00    -0.205 NA 
HETATM   11  N   UNL     1     -11.300  16.471  68.763  1.00  0.00    -0.283 NA 
HETATM   12  C   UNL     1     -10.658  17.543  69.325  1.00  0.00    -0.001 A  
ENDROOT
BRANCH   9  13
HETATM   13  N   UNL     1      -6.699  16.298  67.908  1.00  0.00    -0.127 NA 
HETATM   14  H   UNL     1      -6.116  16.434  67.082  1.00  0.00     0.000 HD 
BRANCH  13  15
HETATM   15  C   UNL     1      -6.216  16.657  69.244  1.00  0.00    -0.194 C  
HETATM   16  C   UNL     1      -5.183  17.739  69.419  1.00  0.00    -0.182 C  
HETATM   17  C   UNL     1      -6.580  17.944  69.926  1.00  0.00     0.151 C  
ENDBRANCH  13  15
ENDBRANCH   9  13
BRANCH  11  18
HETATM   18  C   UNL     1     -12.729  16.185  68.723  1.00  0.00     1.576 C  
HETATM   19  C   UNL     1     -13.331  15.897  70.113  1.00  0.00     1.083 C  
HETATM   20  C   UNL     1     -13.780  14.423  70.123  1.00  0.00     1.208 C  
HETATM   21  C   UNL     1     -13.106  14.974  67.927  1.00  0.00     2.814 C  
HETATM   22  C   UNL     1     -13.690  14.033  68.675  1.00  0.00     6.237 C  
BRANCH  20  23
HETATM   23  C   UNL     1     -12.903  13.548  71.024  1.00  0.00    -0.267 C  
HETATM   24  O   UNL     1     -11.848  14.311  71.601  1.00  0.00    -0.389 OA 
HETATM   25  H   UNL     1     -11.305  13.769  72.159  1.00  0.00     0.000 HD 
ENDBRANCH  20  23
ENDBRANCH  11  18
TORSDOF 4
ENDMDL
MODEL      204
REMARK 921   NORMALIZED FREE ENERGY PREDICTED BY IDOCK:   19.68 KCAL/MOL
REMARK 922        TOTAL FREE ENERGY PREDICTED BY IDOCK:   23.76 KCAL/MOL
REMARK 923 INTER-LIGAND FREE ENERGY PREDICTED BY IDOCK:   22.49 KCAL/MOL
REMARK 924 INTRA-LIGAND FREE ENERGY PREDICTED BY IDOCK:    1.27 KCAL/MOL
REMARK 927      BINDING AFFINITY PREDICTED BY RF-SCORE:    0.00 PKD
ROOT
HETATM    1  N   UNL     1     -13.297  16.826  66.923  1.00  0.00     6.377 NA 
HETATM    2  C   UNL     1     -12.388  15.800  66.778  1.00  0.00     1.599 A  
HETATM    3  H2  UNL     1     -13.412  17.310  67.814  1.00  0.00     0.000 HD 
HETATM    4  H1  UNL     1     -13.849  17.082  66.105  1.00  0.00     0.000 HD 
HETATM    5  N   UNL     1     -11.664  15.465  67.850  1.00  0.00    -0.269 NA 
HETATM    6  C   UNL     1     -10.853  14.421  67.608  1.00  0.00    -0.273 A  
HETATM    7  C   UNL     1     -10.719  13.724  66.419  1.00  0.00    -0.281 A  
HETATM    8  N   UNL     1      -9.794  12.707  66.571  1.00  0.00    -0.250 NA 
HETATM    9  C   UNL     1     -11.484  14.189  65.330  1.00  0.00    -0.325 A  
HETATM   10  N   UNL     1     -12.304  15.257  65.554  1.00  0.00     0.389 NA 
HETATM   11  N   UNL     1      -9.991  13.831  68.488  1.00  0.00    -0.232 NA 
HETATM   12  C   UNL     1      -9.382  12.800  67.823  1.00  0.00    -0.199 A  
ENDROOT
BRANCH   9  13
HETATM   13  N   UNL     1     -11.454  13.611  64.045  1.00  0.00    -0.593 NA 
HETATM   14  H   UNL     1     -11.992  14.008  63.274  1.00  0.00     0.000 HD 
BRANCH  13  15
HETATM   15  C   UNL     1     -10.622  12.421  63.856  1.00  0.00    -0.437 C  
HETATM   16  C   UNL     1      -9.716  12.304  62.658  1.00  0.00     1.474 C  
HETATM   17  C   UNL     1      -9.131  12.430  64.034  1.00  0.00     1.002 C  
ENDBRANCH  13  15
ENDBRANCH   9  13
BRANCH  11  18
HETATM   18  C   UNL     1      -9.764  14.294  69.851  1.00  0.00     0.902 C  
HETATM   19  C   UNL     1      -8.853  15.536  69.927  1.00  0.00     0.150 C  
HETATM   20  C   UNL     1      -7.553  15.108  70.636  1.00  0.00     1.146 C  
HETATM   21  C   UNL     1      -9.078  13.308  70.746  1.00  0.00     7.489 C  
HETATM   22  C   UNL     1      -7.897  13.753  71.185  1.00  0.00     5.046 C  
BRANCH  20  23
HETATM   23  C   UNL     1      -6.351  15.071  69.687  1.00  0.00    -0.142 C  
HETATM   24  O   UNL     1      -6.221  13.787  69.084  1.00  0.00    -0.089 OA 
HETATM   25  H   UNL     1      -5.477  13.764  68.495  1.00  0.00     0.000 HD 
ENDBRANCH  20  23
ENDBRANCH  11  18
TORSDOF 4
ENDMDL
MODEL      205
REMARK 921   NORMALIZED FREE ENERGY PREDICTED BY IDOCK:   29.16 KCAL/MOL
REMARK 922        TOTAL FREE ENERGY PREDICTED BY IDOCK:   35.46 KCAL/MOL
REMARK 923 INTER-LIGAND FREE ENERGY PREDICTED BY IDOCK:   35.47 KCAL/MOL
REMARK 924 INTRA-LIGAND FREE ENERGY PREDICTED BY IDOCK:   -0.01 KCAL/MOL
REMARK 927      BINDING AFFINITY PREDICTED BY RF-SCORE:    0.00 PKD
ROOT
HETATM    1  N   UNL     1     -10.386  18.068  70.858  1.00  0.00     1.658 NA 
HETATM    2  C   UNL     1      -9.945  18.468  69.615  1.00  0.00     0.430 A  
HETATM    3  H2  UNL     1      -9.732  17.877  71.618  1.00  0.00     0.000 HD 
HETATM    4  H1  UNL     1     -11.393  17.970  70.988  1.00  0.00     0.000 HD 
HETATM    5  N   UNL     1      -8.625  18.595  69.444  1.00  0.00     0.234 NA 
HETATM    6  C   UNL     1      -8.308  18.937  68.184  1.00  0.00    -0.309 A  
HETATM    7  C   UNL     1      -9.181  19.154  67.131  1.00  0.00    -0.297 A  
HETATM    8  N   UNL     1      -8.471  19.474  65.988  1.00  0.00    -0.424 NA 
HETATM    9  C   UNL     1     -10.556  19.049  67.426  1.00  0.00    -0.474 A  
HETATM   10  N   UNL     1     -10.897  18.717  68.704  1.00  0.00     0.327 NA 
HETATM   11  N   UNL     1      -7.055  19.140  67.680  1.00  0.00    -0.223 NA 
HETATM   12  C   UNL     1      -7.202  19.454  66.354  1.00  0.00    -0.241 A  
ENDROOT
BRANCH   9  13
HETATM   13  N   UNL     1     -11.580  19.258  66.480  1.00  0.00     0.864 NA 
HETATM   14  H   UNL     1     -12.135  20.115  66.481  1.00  0.00     0.000 HD 
BRANCH  13  15
HETATM   15  C   UNL     1     -11.820  18.201  65.495  1.00  0.00     3.792 C  
HETATM   16  C   UNL     1     -13.223  17.853  65.072  1.00  0.00    13.517 C  
HETATM   17  C   UNL     1     -12.276  18.480  64.091  1.00  0.00    10.016 C  
ENDBRANCH  13  15
ENDBRANCH   9  13
BRANCH  11  18
HETATM   18  C   UNL     1      -5.832  19.078  68.471  1.00  0.00    -0.216 C  
HETATM   19  C   UNL     1      -5.357  17.637  68.744  1.00  0.00    -0.156 C  
HETATM   20  C   UNL     1      -5.482  17.392  70.261  1.00  0.00    -0.244 C  
HETATM   21  C   UNL     1      -5.939  19.672  69.842  1.00  0.00    -0.325 C  
HETATM   22  C   UNL     1      -5.730  18.770  70.806  1.00  0.00    -0.094 C  
BRANCH  20  23
HETATM   23  C   UNL     1      -6.605  16.410  70.607  1.00  0.00     1.172 C  
HETATM   24  O   UNL     1      -7.359  16.875  71.722  1.00  0.00     6.464 OA 
HETATM   25  H   UNL     1      -8.056  16.267  71.937  1.00  0.00     0.000 HD 
ENDBRANCH  20  23
ENDBRANCH  11  18
TORSDOF 4
ENDMDL
MODEL      206
REMARK 921   NORMALIZED FREE ENERGY PREDICTED BY IDOCK:   29.45 KCAL/MOL
REMARK 922        TOTAL FREE ENERGY PREDICTED BY IDOCK:   35.82 KCAL/MOL
REMARK 923 INTER-LIGAND FREE ENERGY PREDICTED BY IDOCK:   29.38 KCAL/MOL
REMARK 924 INTRA-LIGAND FREE ENERGY PREDICTED BY IDOCK:    6.45 KCAL/MOL
REMARK 927      BINDING AFFINITY PREDICTED BY RF-SCORE:    0.00 PKD
ROOT
HETATM    1  N   UNL     1      -9.777  14.957  70.009  1.00  0.00    -0.431 NA 
HETATM    2  C   UNL     1      -9.130  14.379  68.937  1.00  0.00    -0.069 A  
HETATM    3  H2  UNL     1     -10.690  14.626  70.320  1.00  0.00     0.000 HD 
HETATM    4  H1  UNL     1      -9.305  15.730  70.478  1.00  0.00     0.000 HD 
HETATM    5  N   UNL     1      -9.749  13.366  68.322  1.00  0.00    -0.226 NA 
HETATM    6  C   UNL     1      -9.054  12.917  67.262  1.00  0.00    -0.208 A  
HETATM    7  C   UNL     1      -7.837  13.387  66.801  1.00  0.00     0.452 A  
HETATM    8  N   UNL     1      -7.453  12.676  65.678  1.00  0.00     2.625 NA 
HETATM    9  C   UNL     1      -7.238  14.420  67.550  1.00  0.00    -0.180 A  
HETATM   10  N   UNL     1      -7.923  14.880  68.638  1.00  0.00    -0.136 NA 
HETATM   11  N   UNL     1      -9.408  11.901  66.421  1.00  0.00    -0.222 NA 
HETATM   12  C   UNL     1      -8.419  11.797  65.479  1.00  0.00     0.492 A  
ENDROOT
BRANCH   9  13
HETATM   13  N   UNL     1      -5.993  15.000  67.235  1.00  0.00    -0.269 NA 
HETATM   14  H   UNL     1      -5.686  15.868  67.675  1.00  0.00     0.000 HD 
BRANCH  13  15
HETATM   15  C   UNL     1      -5.154  14.312  66.251  1.00  0.00     4.512 C  
HETATM   16  C   UNL     1      -5.618  13.028  65.615  1.00  0.00     6.235 C  
HETATM   17  C   UNL     1      -5.479  14.270  64.786  1.00  0.00    18.413 C  
ENDBRANCH  13  15
ENDBRANCH   9  13
BRANCH  11  18
HETATM   18  C   UNL     1     -10.601  11.079  66.582  1.00  0.00    -0.262 C  
HETATM   19  C   UNL     1     -11.166  11.102  68.017  1.00  0.00    -0.359 C  
HETATM   20  C   UNL     1     -11.001   9.684  68.598  1.00  0.00    -0.152 C  
HETATM   21  C   UNL     1     -10.400   9.619  66.314  1.00  0.00    -0.230 C  
HETATM   22  C   UNL     1     -10.635   8.866  67.393  1.00  0.00    -0.305 C  
BRANCH  20  23
HETATM   23  C   UNL     1      -9.937   9.620  69.699  1.00  0.00    -0.221 C  
HETATM   24  O   UNL     1     -10.217  10.564  70.728  1.00  0.00    -0.079 OA 
HETATM   25  H   UNL     1      -9.558  10.525  71.411  1.00  0.00     0.000 HD 
ENDBRANCH  20  23
ENDBRANCH  11  18
TORSDOF 4
ENDMDL
MODEL      207
REMARK 921   NORMALIZED FREE ENERGY PREDICTED BY IDOCK:   31.40 KCAL/MOL
REMARK 922        TOTAL FREE ENERGY PREDICTED BY IDOCK:   38.23 KCAL/MOL
REMARK 923 INTER-LIGAND FREE ENERGY PREDICTED BY IDOCK:   37.48 KCAL/MOL
REMARK 924 INTRA-LIGAND FREE ENERGY PREDICTED BY IDOCK:    0.75 KCAL/MOL
REMARK 927      BINDING AFFINITY PREDICTED BY RF-SCORE:    0.00 PKD
ROOT
HETATM    1  N   UNL     1     -10.741  12.894  72.565  1.00  0.00     8.851 NA 
HETATM    2  C   UNL     1     -10.048  13.199  71.413  1.00  0.00     9.006 A  
HETATM    3  H2  UNL     1     -11.726  12.628  72.537  1.00  0.00     0.000 HD 
HETATM    4  H1  UNL     1     -10.230  12.945  73.446  1.00  0.00     0.000 HD 
HETATM    5  N   UNL     1     -10.718  13.133  70.258  1.00  0.00     1.257 NA 
HETATM    6  C   UNL     1      -9.960  13.502  69.211  1.00  0.00     0.424 A  
HETATM    7  C   UNL     1      -8.637  13.910  69.239  1.00  0.00     0.501 A  
HETATM    8  N   UNL     1      -8.214  14.220  67.959  1.00  0.00    -0.141 NA 
HETATM    9  C   UNL     1      -8.002  13.893  70.497  1.00  0.00     2.758 A  
HETATM   10  N   UNL     1      -8.752  13.508  71.570  1.00  0.00     9.584 NA 
HETATM   11  N   UNL     1     -10.340  13.550  67.900  1.00  0.00    -0.243 NA 
HETATM   12  C   UNL     1      -9.260  13.995  67.185  1.00  0.00    -0.235 A  
ENDROOT
BRANCH   9  13
HETATM   13  N   UNL     1      -6.656  14.257  70.703  1.00  0.00    -0.397 NA 
HETATM   14  H   UNL     1      -6.347  15.224  70.596  1.00  0.00     0.000 HD 
BRANCH  13  15
HETATM   15  C   UNL     1      -5.716  13.198  71.076  1.00  0.00    -0.113 C  
HETATM   16  C   UNL     1      -6.178  11.768  71.181  1.00  0.00     1.106 C  
HETATM   17  C   UNL     1      -5.215  12.170  70.103  1.00  0.00    -0.097 C  
ENDBRANCH  13  15
ENDBRANCH   9  13
BRANCH  11  18
HETATM   18  C   UNL     1     -11.649  13.137  67.410  1.00  0.00    -0.356 C  
HETATM   19  C   UNL     1     -12.646  12.807  68.539  1.00  0.00     0.854 C  
HETATM   20  C   UNL     1     -12.951  11.298  68.457  1.00  0.00     2.764 C  
HETATM   21  C   UNL     1     -11.645  11.891  66.579  1.00  0.00    -0.328 C  
HETATM   22  C   UNL     1     -12.362  10.907  67.131  1.00  0.00     2.722 C  
BRANCH  20  23
HETATM   23  C   UNL     1     -12.347  10.512  69.624  1.00  0.00    -0.075 C  
HETATM   24  O   UNL     1     -12.460  11.245  70.841  1.00  0.00    -0.365 OA 
HETATM   25  H   UNL     1     -12.086  10.758  71.565  1.00  0.00     0.000 HD 
ENDBRANCH  20  23
ENDBRANCH  11  18
TORSDOF 4
ENDMDL
MODEL      208
REMARK 921   NORMALIZED FREE ENERGY PREDICTED BY IDOCK:   32.89 KCAL/MOL
REMARK 922        TOTAL FREE ENERGY PREDICTED BY IDOCK:   40.07 KCAL/MOL
REMARK 923 INTER-LIGAND FREE ENERGY PREDICTED BY IDOCK:   40.53 KCAL/MOL
REMARK 924 INTRA-LIGAND FREE ENERGY PREDICTED BY IDOCK:   -0.46 KCAL/MOL
REMARK 927      BINDING AFFINITY PREDICTED BY RF-SCORE:    0.00 PKD
ROOT
HETATM    1  N   UNL     1     -10.317  14.545  70.614  1.00  0.00     0.149 NA 
HETATM    2  C   UNL     1      -9.815  15.817  70.441  1.00  0.00     0.465 A  
HETATM    3  H2  UNL     1     -10.433  13.908  69.826  1.00  0.00     0.000 HD 
HETATM    4  H1  UNL     1     -10.566  14.265  71.563  1.00  0.00     0.000 HD 
HETATM    5  N   UNL     1      -9.488  16.183  69.198  1.00  0.00    -0.247 NA 
HETATM    6  C   UNL     1      -9.063  17.457  69.141  1.00  0.00     0.039 A  
HETATM    7  C   UNL     1      -8.942  18.347  70.195  1.00  0.00     2.224 A  
HETATM    8  N   UNL     1      -8.484  19.567  69.731  1.00  0.00     0.431 NA 
HETATM    9  C   UNL     1      -9.259  17.848  71.475  1.00  0.00     9.201 A  
HETATM   10  N   UNL     1      -9.680  16.553  71.554  1.00  0.00     4.436 NA 
HETATM   11  N   UNL     1      -8.660  18.138  68.028  1.00  0.00    -0.259 NA 
HETATM   12  C   UNL     1      -8.328  19.405  68.430  1.00  0.00    -0.350 A  
ENDROOT
BRANCH   9  13
HETATM   13  N   UNL     1      -9.172  18.610  72.659  1.00  0.00     8.790 NA 
HETATM   14  H   UNL     1      -8.297  18.683  73.178  1.00  0.00     0.000 HD 
BRANCH  13  15
HETATM   15  C   UNL     1     -10.385  19.294  73.115  1.00  0.00     3.542 C  
HETATM   16  C   UNL     1     -11.744  18.810  72.684  1.00  0.00     6.170 C  
HETATM   17  C   UNL     1     -11.328  18.700  74.121  1.00  0.00     2.401 C  
ENDBRANCH  13  15
ENDBRANCH   9  13
BRANCH  11  18
HETATM   18  C   UNL     1      -8.566  17.552  66.696  1.00  0.00    -0.258 C  
HETATM   19  C   UNL     1      -7.118  17.233  66.272  1.00  0.00    -0.311 C  
HETATM   20  C   UNL     1      -6.771  18.160  65.090  1.00  0.00     0.319 C  
HETATM   21  C   UNL     1      -9.066  18.427  65.588  1.00  0.00     0.725 C  
HETATM   22  C   UNL     1      -8.105  18.738  64.712  1.00  0.00     3.446 C  
BRANCH  20  23
HETATM   23  C   UNL     1      -5.749  19.236  65.468  1.00  0.00    -0.171 C  
HETATM   24  O   UNL     1      -6.030  20.460  64.797  1.00  0.00    -0.213 OA 
HETATM   25  H   UNL     1      -5.397  21.127  65.031  1.00  0.00     0.000 HD 
ENDBRANCH  20  23
ENDBRANCH  11  18
TORSDOF 4
ENDMDL
