MODEL        1
REMARK 921   NORMALIZED FREE ENERGY PREDICTED BY IDOCK:   -7.89 KCAL/MOL
REMARK 922        TOTAL FREE ENERGY PREDICTED BY IDOCK:  -11.99 KCAL/MOL
REMARK 923 INTER-LIGAND FREE ENERGY PREDICTED BY IDOCK:  -11.12 KCAL/MOL
REMARK 924 INTRA-LIGAND FREE ENERGY PREDICTED BY IDOCK:   -0.87 KCAL/MOL
REMARK 927      BINDING AFFINITY PREDICTED BY RF-SCORE:    0.00 PKD
ROOT
HETATM    1  C   UNL     1     -10.594   3.828  73.972  1.00  0.00    -0.280 C  
HETATM    2  C   UNL     1     -11.222   4.968  73.179  1.00  0.00    -0.335 C  
ENDROOT
BRANCH   2   3
HETATM    3  N   UNL     1     -10.262   5.987  72.722  1.00  0.00    -0.183 NA 
HETATM    4  C   UNL     1     -10.312   6.106  71.245  1.00  0.00    -0.217 C  
HETATM    5  C   UNL     1     -11.524   6.905  70.703  1.00  0.00    -0.336 C  
HETATM    6  N   UNL     1     -11.697   8.247  71.307  1.00  0.00    -0.279 NA 
HETATM    7  C   UNL     1     -10.474   7.316  73.330  1.00  0.00    -0.370 C  
HETATM    8  C   UNL     1     -11.696   8.091  72.779  1.00  0.00    -0.290 C  
BRANCH   6   9
HETATM    9  C   UNL     1     -10.636   9.189  70.898  1.00  0.00    -0.273 C  
BRANCH   9  10
HETATM   10  C   UNL     1     -10.880   9.817  69.555  1.00  0.00    -0.264 A  
HETATM   11  C   UNL     1     -10.210   9.372  68.421  1.00  0.00    -0.224 A  
HETATM   12  C   UNL     1     -10.456   9.994  67.206  1.00  0.00    -0.313 A  
HETATM   13  C   UNL     1     -11.361  11.056  67.138  1.00  0.00    -0.136 A  
HETATM   14  N   UNL     1     -12.039  11.483  68.223  1.00  0.00    -0.575 NA 
HETATM   15  C   UNL     1     -11.779  10.867  69.399  1.00  0.00    -0.325 A  
BRANCH  13  16
HETATM   16  N   UNL     1     -11.655  11.662  65.921  1.00  0.00    -0.320 NA 
HETATM   17  H   UNL     1     -12.020  11.059  65.183  1.00  0.00     0.000 HD 
BRANCH  16  18
HETATM   18  C   UNL     1     -11.500  13.004  65.613  1.00  0.00    -0.333 A  
HETATM   19  N   UNL     1     -12.418  13.557  64.807  1.00  0.00    -0.582 NA 
HETATM   20  C   UNL     1     -12.217  14.838  64.447  1.00  0.00    -0.428 A  
HETATM   21  C   UNL     1     -11.184  15.606  64.929  1.00  0.00    -0.369 A  
HETATM   22  F   UNL     1     -11.058  16.882  64.539  1.00  0.00    -0.427 F  
HETATM   23  C   UNL     1     -10.317  14.995  65.812  1.00  0.00    -0.335 A  
HETATM   24  N   UNL     1     -10.453  13.684  66.117  1.00  0.00    -0.292 NA 
BRANCH  23  25
HETATM   25  C   UNL     1      -9.224  15.697  66.525  1.00  0.00    -0.325 A  
HETATM   26  C   UNL     1      -8.030  15.022  66.842  1.00  0.00    -0.109 A  
HETATM   27  C   UNL     1      -6.974  15.669  67.480  1.00  0.00    -0.189 A  
HETATM   28  C   UNL     1      -7.079  17.022  67.821  1.00  0.00    -0.148 A  
HETATM   29  F   UNL     1      -5.860  14.972  67.755  1.00  0.00    -0.132 F  
HETATM   30  N   UNL     1      -6.186  17.842  68.446  1.00  0.00    -0.181 NA 
HETATM   31  C   UNL     1      -6.764  19.018  68.548  1.00  0.00    -0.266 A  
HETATM   32  N   UNL     1      -8.031  19.001  67.987  1.00  0.00    -0.280 NA 
HETATM   33  C   UNL     1      -6.098  20.172  69.205  1.00  0.00    -0.361 C  
HETATM   34  C   UNL     1      -9.329  17.074  66.858  1.00  0.00    -0.263 A  
HETATM   35  C   UNL     1      -8.250  17.713  67.510  1.00  0.00    -0.216 A  
BRANCH  32  36
HETATM   36  C   UNL     1      -9.033  20.070  67.951  1.00  0.00    -0.272 C  
HETATM   37  C   UNL     1     -10.191  19.944  68.948  1.00  0.00    -0.399 C  
HETATM   38  C   UNL     1      -9.577  20.270  66.535  1.00  0.00    -0.491 C  
ENDBRANCH  32  36
ENDBRANCH  23  25
ENDBRANCH  16  18
ENDBRANCH  13  16
ENDBRANCH   9  10
ENDBRANCH   6   9
ENDBRANCH   2   3
TORSDOF 7
ENDMDL
MODEL        2
REMARK 921   NORMALIZED FREE ENERGY PREDICTED BY IDOCK:   -7.88 KCAL/MOL
REMARK 922        TOTAL FREE ENERGY PREDICTED BY IDOCK:  -11.98 KCAL/MOL
REMARK 923 INTER-LIGAND FREE ENERGY PREDICTED BY IDOCK:  -11.15 KCAL/MOL
REMARK 924 INTRA-LIGAND FREE ENERGY PREDICTED BY IDOCK:   -0.83 KCAL/MOL
REMARK 927      BINDING AFFINITY PREDICTED BY RF-SCORE:    0.00 PKD
ROOT
HETATM    1  C   UNL     1      -6.064  21.127  66.530  1.00  0.00    -0.348 C  
HETATM    2  C   UNL     1      -7.073  19.987  66.443  1.00  0.00    -0.244 C  
ENDROOT
BRANCH   2   3
HETATM    3  N   UNL     1      -8.191  20.095  67.395  1.00  0.00    -0.331 NA 
HETATM    4  C   UNL     1      -9.462  19.721  66.730  1.00  0.00    -0.382 C  
HETATM    5  C   UNL     1      -9.672  18.197  66.549  1.00  0.00    -0.344 C  
HETATM    6  N   UNL     1      -9.520  17.403  67.791  1.00  0.00    -0.257 NA 
HETATM    7  C   UNL     1      -8.014  19.277  68.612  1.00  0.00    -0.370 C  
HETATM    8  C   UNL     1      -8.219  17.757  68.404  1.00  0.00    -0.298 C  
BRANCH   6   9
HETATM    9  C   UNL     1     -10.614  17.644  68.752  1.00  0.00    -0.190 C  
BRANCH   9  10
HETATM   10  C   UNL     1     -11.142  16.387  69.383  1.00  0.00    -0.300 A  
HETATM   11  C   UNL     1     -11.658  15.355  68.607  1.00  0.00    -0.373 A  
HETATM   12  C   UNL     1     -12.150  14.220  69.237  1.00  0.00    -0.351 A  
HETATM   13  C   UNL     1     -12.126  14.131  70.630  1.00  0.00    -0.351 A  
HETATM   14  N   UNL     1     -11.606  15.112  71.396  1.00  0.00    -0.355 NA 
HETATM   15  C   UNL     1     -11.139  16.212  70.763  1.00  0.00    -0.253 A  
BRANCH  13  16
HETATM   16  N   UNL     1     -12.572  12.984  71.276  1.00  0.00    -0.336 NA 
HETATM   17  H   UNL     1     -13.191  13.118  72.076  1.00  0.00     0.000 HD 
BRANCH  16  18
HETATM   18  C   UNL     1     -12.258  11.677  70.940  1.00  0.00    -0.298 A  
HETATM   19  N   UNL     1     -12.671  10.714  71.777  1.00  0.00    -0.419 NA 
HETATM   20  C   UNL     1     -12.292   9.454  71.488  1.00  0.00    -0.370 A  
HETATM   21  C   UNL     1     -11.593   9.116  70.354  1.00  0.00    -0.146 A  
HETATM   22  F   UNL     1     -11.267   7.838  70.123  1.00  0.00    -0.257 F  
HETATM   23  C   UNL     1     -11.263  10.148  69.499  1.00  0.00    -0.238 A  
HETATM   24  N   UNL     1     -11.558  11.430  69.816  1.00  0.00    -0.310 NA 
BRANCH  23  25
HETATM   25  C   UNL     1     -10.622   9.960  68.176  1.00  0.00    -0.270 A  
HETATM   26  C   UNL     1      -9.825   8.829  67.923  1.00  0.00    -0.207 A  
HETATM   27  C   UNL     1      -9.241   8.611  66.677  1.00  0.00    -0.181 A  
HETATM   28  C   UNL     1      -9.440   9.525  65.636  1.00  0.00    -0.261 A  
HETATM   29  F   UNL     1      -8.491   7.512  66.497  1.00  0.00    -0.112 F  
HETATM   30  N   UNL     1      -8.967   9.516  64.357  1.00  0.00    -0.228 NA 
HETATM   31  C   UNL     1      -9.426  10.604  63.779  1.00  0.00    -0.290 A  
HETATM   32  N   UNL     1     -10.213  11.338  64.652  1.00  0.00    -0.279 NA 
HETATM   33  C   UNL     1      -9.094  10.952  62.374  1.00  0.00    -0.336 C  
HETATM   34  C   UNL     1     -10.837  10.883  67.118  1.00  0.00    -0.337 A  
HETATM   35  C   UNL     1     -10.233  10.649  65.862  1.00  0.00    -0.251 A  
BRANCH  32  36
HETATM   36  C   UNL     1     -10.855  12.637  64.438  1.00  0.00    -0.356 C  
HETATM   37  C   UNL     1     -10.330  13.798  65.291  1.00  0.00    -0.378 C  
HETATM   38  C   UNL     1     -12.375  12.532  64.571  1.00  0.00    -0.545 C  
ENDBRANCH  32  36
ENDBRANCH  23  25
ENDBRANCH  16  18
ENDBRANCH  13  16
ENDBRANCH   9  10
ENDBRANCH   6   9
ENDBRANCH   2   3
TORSDOF 7
ENDMDL
MODEL        3
REMARK 921   NORMALIZED FREE ENERGY PREDICTED BY IDOCK:   -7.81 KCAL/MOL
REMARK 922        TOTAL FREE ENERGY PREDICTED BY IDOCK:  -11.88 KCAL/MOL
REMARK 923 INTER-LIGAND FREE ENERGY PREDICTED BY IDOCK:  -10.93 KCAL/MOL
REMARK 924 INTRA-LIGAND FREE ENERGY PREDICTED BY IDOCK:   -0.96 KCAL/MOL
REMARK 927      BINDING AFFINITY PREDICTED BY RF-SCORE:    0.00 PKD
ROOT
HETATM    1  C   UNL     1     -10.678   3.019  73.392  1.00  0.00    -0.295 C  
HETATM    2  C   UNL     1     -11.153   4.459  73.234  1.00  0.00    -0.279 C  
ENDROOT
BRANCH   2   3
HETATM    3  N   UNL     1     -10.139   5.374  72.686  1.00  0.00    -0.172 NA 
HETATM    4  C   UNL     1     -10.293   5.482  71.216  1.00  0.00    -0.233 C  
HETATM    5  C   UNL     1     -11.461   6.389  70.754  1.00  0.00    -0.353 C  
HETATM    6  N   UNL     1     -11.456   7.748  71.345  1.00  0.00    -0.255 NA 
HETATM    7  C   UNL     1     -10.174   6.724  73.284  1.00  0.00    -0.247 C  
HETATM    8  C   UNL     1     -11.355   7.608  72.815  1.00  0.00    -0.367 C  
BRANCH   6   9
HETATM    9  C   UNL     1     -10.344   8.578  70.839  1.00  0.00    -0.199 C  
BRANCH   9  10
HETATM   10  C   UNL     1     -10.788   9.914  70.314  1.00  0.00    -0.367 A  
HETATM   11  C   UNL     1     -10.129  10.524  69.252  1.00  0.00    -0.244 A  
HETATM   12  C   UNL     1     -10.564  11.766  68.813  1.00  0.00    -0.234 A  
HETATM   13  C   UNL     1     -11.647  12.386  69.442  1.00  0.00    -0.307 A  
HETATM   14  N   UNL     1     -12.313  11.798  70.455  1.00  0.00    -0.325 NA 
HETATM   15  C   UNL     1     -11.868  10.590  70.873  1.00  0.00    -0.355 A  
BRANCH  13  16
HETATM   16  N   UNL     1     -12.126  13.610  68.987  1.00  0.00    -0.340 NA 
HETATM   17  H   UNL     1     -12.780  14.102  69.596  1.00  0.00     0.000 HD 
BRANCH  16  18
HETATM   18  C   UNL     1     -11.803  14.225  67.788  1.00  0.00    -0.379 A  
HETATM   19  N   UNL     1     -12.316  13.692  66.669  1.00  0.00    -0.374 NA 
HETATM   20  C   UNL     1     -11.933  14.245  65.503  1.00  0.00    -0.385 A  
HETATM   21  C   UNL     1     -11.129  15.357  65.420  1.00  0.00    -0.326 A  
HETATM   22  F   UNL     1     -10.804  15.862  64.223  1.00  0.00    -0.340 F  
HETATM   23  C   UNL     1     -10.695  15.897  66.613  1.00  0.00    -0.270 A  
HETATM   24  N   UNL     1     -10.998  15.304  67.792  1.00  0.00    -0.303 NA 
BRANCH  23  25
HETATM   25  C   UNL     1      -9.927  17.159  66.725  1.00  0.00    -0.291 A  
HETATM   26  C   UNL     1     -10.482  18.375  66.283  1.00  0.00    -0.421 A  
HETATM   27  C   UNL     1      -9.794  19.580  66.411  1.00  0.00    -0.418 A  
HETATM   28  C   UNL     1      -8.521  19.607  66.989  1.00  0.00    -0.310 A  
HETATM   29  F   UNL     1     -10.377  20.706  65.970  1.00  0.00    -0.379 F  
HETATM   30  N   UNL     1      -7.676  20.656  67.205  1.00  0.00    -0.321 NA 
HETATM   31  C   UNL     1      -6.595  20.159  67.764  1.00  0.00    -0.249 A  
HETATM   32  N   UNL     1      -6.709  18.789  67.937  1.00  0.00    -0.213 NA 
HETATM   33  C   UNL     1      -5.431  21.008  68.124  1.00  0.00    -0.366 C  
HETATM   34  C   UNL     1      -8.639  17.185  67.325  1.00  0.00    -0.214 A  
HETATM   35  C   UNL     1      -7.954  18.416  67.441  1.00  0.00    -0.238 A  
BRANCH  32  36
HETATM   36  C   UNL     1      -5.715  17.845  68.454  1.00  0.00    -0.164 C  
HETATM   37  C   UNL     1      -5.294  16.720  67.500  1.00  0.00    -0.162 C  
HETATM   38  C   UNL     1      -6.155  17.258  69.796  1.00  0.00    -0.231 C  
ENDBRANCH  32  36
ENDBRANCH  23  25
ENDBRANCH  16  18
ENDBRANCH  13  16
ENDBRANCH   9  10
ENDBRANCH   6   9
ENDBRANCH   2   3
TORSDOF 7
ENDMDL
MODEL        4
REMARK 921   NORMALIZED FREE ENERGY PREDICTED BY IDOCK:   -7.81 KCAL/MOL
REMARK 922        TOTAL FREE ENERGY PREDICTED BY IDOCK:  -11.88 KCAL/MOL
REMARK 923 INTER-LIGAND FREE ENERGY PREDICTED BY IDOCK:  -10.94 KCAL/MOL
REMARK 924 INTRA-LIGAND FREE ENERGY PREDICTED BY IDOCK:   -0.94 KCAL/MOL
REMARK 927      BINDING AFFINITY PREDICTED BY RF-SCORE:    0.00 PKD
ROOT
HETATM    1  C   UNL     1      -9.337   1.822  74.493  1.00  0.00    -0.085 C  
HETATM    2  C   UNL     1      -9.157   3.062  73.624  1.00  0.00    -0.081 C  
ENDROOT
BRANCH   2   3
HETATM    3  N   UNL     1     -10.369   3.472  72.897  1.00  0.00    -0.162 NA 
HETATM    4  C   UNL     1     -11.035   4.589  73.609  1.00  0.00    -0.304 C  
HETATM    5  C   UNL     1     -10.364   5.972  73.410  1.00  0.00    -0.235 C  
HETATM    6  N   UNL     1     -10.150   6.354  71.995  1.00  0.00    -0.178 NA 
HETATM    7  C   UNL     1     -10.117   3.864  71.496  1.00  0.00    -0.078 C  
HETATM    8  C   UNL     1      -9.438   5.244  71.323  1.00  0.00    -0.151 C  
BRANCH   6   9
HETATM    9  C   UNL     1     -11.416   6.642  71.291  1.00  0.00    -0.311 C  
BRANCH   9  10
HETATM   10  C   UNL     1     -11.857   8.073  71.416  1.00  0.00    -0.326 A  
HETATM   11  C   UNL     1     -13.086   8.400  71.979  1.00  0.00    -0.379 A  
HETATM   12  C   UNL     1     -13.456   9.735  72.057  1.00  0.00    -0.498 A  
HETATM   13  C   UNL     1     -12.601  10.725  71.567  1.00  0.00    -0.395 A  
HETATM   14  N   UNL     1     -11.396  10.426  71.041  1.00  0.00    -0.243 NA 
HETATM   15  C   UNL     1     -11.057   9.119  70.968  1.00  0.00    -0.305 A  
BRANCH  13  16
HETATM   16  N   UNL     1     -12.935  12.070  71.677  1.00  0.00    -0.391 NA 
HETATM   17  H   UNL     1     -13.519  12.335  72.470  1.00  0.00     0.000 HD 
BRANCH  16  18
HETATM   18  C   UNL     1     -12.553  13.085  70.815  1.00  0.00    -0.241 A  
HETATM   19  N   UNL     1     -12.360  14.300  71.348  1.00  0.00    -0.347 NA 
HETATM   20  C   UNL     1     -12.069  15.299  70.493  1.00  0.00    -0.354 A  
HETATM   21  C   UNL     1     -11.880  15.109  69.145  1.00  0.00    -0.313 A  
HETATM   22  F   UNL     1     -11.573  16.149  68.358  1.00  0.00    -0.362 F  
HETATM   23  C   UNL     1     -12.022  13.820  68.674  1.00  0.00    -0.366 A  
HETATM   24  N   UNL     1     -12.400  12.820  69.503  1.00  0.00    -0.063 NA 
BRANCH  23  25
HETATM   25  C   UNL     1     -11.737  13.407  67.280  1.00  0.00    -0.424 A  
HETATM   26  C   UNL     1     -12.212  14.170  66.198  1.00  0.00    -0.465 A  
HETATM   27  C   UNL     1     -11.927  13.822  64.879  1.00  0.00    -0.390 A  
HETATM   28  C   UNL     1     -11.151  12.692  64.600  1.00  0.00    -0.313 A  
HETATM   29  F   UNL     1     -12.409  14.590  63.889  1.00  0.00    -0.508 F  
HETATM   30  N   UNL     1     -10.759  12.169  63.403  1.00  0.00    -0.438 NA 
HETATM   31  C   UNL     1     -10.054  11.094  63.675  1.00  0.00    -0.379 A  
HETATM   32  N   UNL     1      -9.957  10.895  65.043  1.00  0.00    -0.275 NA 
HETATM   33  C   UNL     1      -9.478  10.236  62.608  1.00  0.00    -0.309 C  
HETATM   34  C   UNL     1     -10.937  12.266  67.001  1.00  0.00    -0.314 A  
HETATM   35  C   UNL     1     -10.662  11.926  65.657  1.00  0.00    -0.280 A  
BRANCH  32  36
HETATM   36  C   UNL     1      -9.327   9.788  65.767  1.00  0.00    -0.221 C  
HETATM   37  C   UNL     1     -10.245   8.970  66.682  1.00  0.00    -0.333 C  
HETATM   38  C   UNL     1      -8.099  10.264  66.544  1.00  0.00    -0.121 C  
ENDBRANCH  32  36
ENDBRANCH  23  25
ENDBRANCH  16  18
ENDBRANCH  13  16
ENDBRANCH   9  10
ENDBRANCH   6   9
ENDBRANCH   2   3
TORSDOF 7
ENDMDL
MODEL        5
REMARK 921   NORMALIZED FREE ENERGY PREDICTED BY IDOCK:   -7.80 KCAL/MOL
REMARK 922        TOTAL FREE ENERGY PREDICTED BY IDOCK:  -11.86 KCAL/MOL
REMARK 923 INTER-LIGAND FREE ENERGY PREDICTED BY IDOCK:  -11.09 KCAL/MOL
REMARK 924 INTRA-LIGAND FREE ENERGY PREDICTED BY IDOCK:   -0.77 KCAL/MOL
REMARK 927      BINDING AFFINITY PREDICTED BY RF-SCORE:    0.00 PKD
ROOT
HETATM    1  C   UNL     1      -5.314  20.935  69.212  1.00  0.00    -0.402 C  
HETATM    2  C   UNL     1      -6.009  20.053  68.181  1.00  0.00    -0.237 C  
ENDROOT
BRANCH   2   3
HETATM    3  N   UNL     1      -7.432  19.802  68.462  1.00  0.00    -0.328 NA 
HETATM    4  C   UNL     1      -8.276  20.453  67.431  1.00  0.00    -0.323 C  
HETATM    5  C   UNL     1      -8.339  19.699  66.079  1.00  0.00    -0.280 C  
HETATM    6  N   UNL     1      -8.716  18.271  66.188  1.00  0.00    -0.492 NA 
HETATM    7  C   UNL     1      -7.777  18.369  68.545  1.00  0.00    -0.303 C  
HETATM    8  C   UNL     1      -7.824  17.635  67.183  1.00  0.00    -0.209 C  
BRANCH   6   9
HETATM    9  C   UNL     1     -10.127  18.089  66.584  1.00  0.00    -0.372 C  
BRANCH   9  10
HETATM   10  C   UNL     1     -10.639  16.696  66.349  1.00  0.00    -0.200 A  
HETATM   11  C   UNL     1     -10.751  16.179  65.063  1.00  0.00    -0.359 A  
HETATM   12  C   UNL     1     -11.244  14.894  64.894  1.00  0.00    -0.415 A  
HETATM   13  C   UNL     1     -11.626  14.143  66.008  1.00  0.00    -0.361 A  
HETATM   14  N   UNL     1     -11.500  14.619  67.263  1.00  0.00    -0.360 NA 
HETATM   15  C   UNL     1     -11.023  15.877  67.405  1.00  0.00    -0.257 A  
BRANCH  13  16
HETATM   16  N   UNL     1     -12.080  12.837  65.862  1.00  0.00    -0.510 NA 
HETATM   17  H   UNL     1     -13.031  12.717  65.511  1.00  0.00     0.000 HD 
BRANCH  16  18
HETATM   18  C   UNL     1     -11.369  11.683  66.148  1.00  0.00    -0.209 A  
HETATM   19  N   UNL     1     -10.576  11.198  65.181  1.00  0.00    -0.275 NA 
HETATM   20  C   UNL     1      -9.951  10.032  65.436  1.00  0.00    -0.294 A  
HETATM   21  C   UNL     1     -10.024   9.384  66.646  1.00  0.00    -0.258 A  
HETATM   22  F   UNL     1      -9.359   8.236  66.833  1.00  0.00    -0.162 F  
HETATM   23  C   UNL     1     -10.800   9.976  67.621  1.00  0.00    -0.278 A  
HETATM   24  N   UNL     1     -11.505  11.100  67.355  1.00  0.00    -0.512 NA 
BRANCH  23  25
HETATM   25  C   UNL     1     -10.898   9.489  69.016  1.00  0.00    -0.184 A  
HETATM   26  C   UNL     1     -11.557  10.256  69.995  1.00  0.00    -0.349 A  
HETATM   27  C   UNL     1     -11.695   9.803  71.306  1.00  0.00    -0.394 A  
HETATM   28  C   UNL     1     -11.174   8.560  71.681  1.00  0.00    -0.292 A  
HETATM   29  F   UNL     1     -12.334  10.580  72.195  1.00  0.00    -0.354 F  
HETATM   30  N   UNL     1     -11.186   7.931  72.891  1.00  0.00    -0.409 NA 
HETATM   31  C   UNL     1     -10.554   6.790  72.728  1.00  0.00    -0.235 A  
HETATM   32  N   UNL     1     -10.127   6.640  71.418  1.00  0.00    -0.190 NA 
HETATM   33  C   UNL     1     -10.343   5.837  73.847  1.00  0.00    -0.286 C  
HETATM   34  C   UNL     1     -10.380   8.220  69.390  1.00  0.00    -0.223 A  
HETATM   35  C   UNL     1     -10.523   7.780  70.725  1.00  0.00    -0.210 A  
BRANCH  32  36
HETATM   36  C   UNL     1      -9.332   5.559  70.831  1.00  0.00    -0.156 C  
HETATM   37  C   UNL     1      -7.873   5.896  70.503  1.00  0.00    -0.101 C  
HETATM   38  C   UNL     1     -10.024   4.968  69.602  1.00  0.00    -0.311 C  
ENDBRANCH  32  36
ENDBRANCH  23  25
ENDBRANCH  16  18
ENDBRANCH  13  16
ENDBRANCH   9  10
ENDBRANCH   6   9
ENDBRANCH   2   3
TORSDOF 7
ENDMDL
MODEL        6
REMARK 921   NORMALIZED FREE ENERGY PREDICTED BY IDOCK:   -7.79 KCAL/MOL
REMARK 922        TOTAL FREE ENERGY PREDICTED BY IDOCK:  -11.85 KCAL/MOL
REMARK 923 INTER-LIGAND FREE ENERGY PREDICTED BY IDOCK:  -10.81 KCAL/MOL
REMARK 924 INTRA-LIGAND FREE ENERGY PREDICTED BY IDOCK:   -1.04 KCAL/MOL
REMARK 927      BINDING AFFINITY PREDICTED BY RF-SCORE:    0.00 PKD
ROOT
HETATM    1  C   UNL     1      -9.528   2.764  73.640  1.00  0.00    -0.112 C  
HETATM    2  C   UNL     1      -9.239   4.216  74.006  1.00  0.00    -0.098 C  
ENDROOT
BRANCH   2   3
HETATM    3  N   UNL     1     -10.442   5.048  74.170  1.00  0.00    -0.271 NA 
HETATM    4  C   UNL     1     -10.055   6.459  74.412  1.00  0.00    -0.348 C  
HETATM    5  C   UNL     1      -9.609   7.231  73.145  1.00  0.00    -0.193 C  
HETATM    6  N   UNL     1     -10.570   7.176  72.020  1.00  0.00    -0.209 NA 
HETATM    7  C   UNL     1     -11.370   4.983  73.023  1.00  0.00    -0.298 C  
HETATM    8  C   UNL     1     -10.898   5.754  71.766  1.00  0.00    -0.252 C  
BRANCH   6   9
HETATM    9  C   UNL     1     -11.805   7.937  72.295  1.00  0.00    -0.352 C  
BRANCH   9  10
HETATM   10  C   UNL     1     -11.885   9.236  71.544  1.00  0.00    -0.444 A  
HETATM   11  C   UNL     1     -11.051   9.493  70.461  1.00  0.00    -0.342 A  
HETATM   12  C   UNL     1     -11.150  10.713  69.809  1.00  0.00    -0.358 A  
HETATM   13  C   UNL     1     -12.075  11.664  70.247  1.00  0.00    -0.358 A  
HETATM   14  N   UNL     1     -12.909  11.421  71.279  1.00  0.00    -0.407 NA 
HETATM   15  C   UNL     1     -12.791  10.228  71.906  1.00  0.00    -0.426 A  
BRANCH  13  16
HETATM   16  N   UNL     1     -12.221  12.874  69.579  1.00  0.00    -0.185 NA 
HETATM   17  H   UNL     1     -12.808  13.578  70.025  1.00  0.00     0.000 HD 
BRANCH  16  18
HETATM   18  C   UNL     1     -11.646  13.217  68.366  1.00  0.00    -0.337 A  
HETATM   19  N   UNL     1     -12.173  12.668  67.261  1.00  0.00    -0.386 NA 
HETATM   20  C   UNL     1     -11.558  12.942  66.095  1.00  0.00    -0.372 A  
HETATM   21  C   UNL     1     -10.496  13.807  65.984  1.00  0.00    -0.297 A  
HETATM   22  F   UNL     1      -9.947  14.045  64.786  1.00  0.00    -0.400 F  
HETATM   23  C   UNL     1     -10.050  14.393  67.150  1.00  0.00    -0.253 A  
HETATM   24  N   UNL     1     -10.598  14.064  68.343  1.00  0.00    -0.247 NA 
BRANCH  23  25
HETATM   25  C   UNL     1      -9.002  15.439  67.209  1.00  0.00    -0.213 A  
HETATM   26  C   UNL     1      -7.641  15.084  67.262  1.00  0.00    -0.227 A  
HETATM   27  C   UNL     1      -6.636  16.049  67.281  1.00  0.00    -0.184 A  
HETATM   28  C   UNL     1      -6.963  17.408  67.244  1.00  0.00    -0.168 A  
HETATM   29  F   UNL     1      -5.356  15.647  67.332  1.00  0.00    -0.132 F  
HETATM   30  N   UNL     1      -6.155  18.507  67.260  1.00  0.00    -0.165 NA 
HETATM   31  C   UNL     1      -6.946  19.556  67.225  1.00  0.00    -0.202 A  
HETATM   32  N   UNL     1      -8.277  19.175  67.172  1.00  0.00    -0.266 NA 
HETATM   33  C   UNL     1      -6.419  20.945  67.255  1.00  0.00    -0.389 C  
HETATM   34  C   UNL     1      -9.337  16.819  67.158  1.00  0.00    -0.236 A  
HETATM   35  C   UNL     1      -8.305  17.783  67.183  1.00  0.00    -0.223 A  
BRANCH  32  36
HETATM   36  C   UNL     1      -9.475  20.018  67.191  1.00  0.00    -0.386 C  
HETATM   37  C   UNL     1     -10.322  19.960  68.468  1.00  0.00    -0.463 C  
HETATM   38  C   UNL     1     -10.353  19.760  65.966  1.00  0.00    -0.612 C  
ENDBRANCH  32  36
ENDBRANCH  23  25
ENDBRANCH  16  18
ENDBRANCH  13  16
ENDBRANCH   9  10
ENDBRANCH   6   9
ENDBRANCH   2   3
TORSDOF 7
ENDMDL
MODEL        7
REMARK 921   NORMALIZED FREE ENERGY PREDICTED BY IDOCK:   -7.65 KCAL/MOL
REMARK 922        TOTAL FREE ENERGY PREDICTED BY IDOCK:  -11.66 KCAL/MOL
REMARK 923 INTER-LIGAND FREE ENERGY PREDICTED BY IDOCK:  -10.80 KCAL/MOL
REMARK 924 INTRA-LIGAND FREE ENERGY PREDICTED BY IDOCK:   -0.86 KCAL/MOL
REMARK 927      BINDING AFFINITY PREDICTED BY RF-SCORE:    0.00 PKD
ROOT
HETATM    1  C   UNL     1     -11.062   3.342  73.550  1.00  0.00    -0.314 C  
HETATM    2  C   UNL     1     -11.519   4.748  73.181  1.00  0.00    -0.260 C  
ENDROOT
BRANCH   2   3
HETATM    3  N   UNL     1     -10.426   5.659  72.802  1.00  0.00    -0.200 NA 
HETATM    4  C   UNL     1     -10.238   5.643  71.331  1.00  0.00    -0.214 C  
HETATM    5  C   UNL     1     -11.288   6.460  70.538  1.00  0.00    -0.375 C  
HETATM    6  N   UNL     1     -11.450   7.861  70.993  1.00  0.00    -0.278 NA 
HETATM    7  C   UNL     1     -10.629   7.050  73.256  1.00  0.00    -0.344 C  
HETATM    8  C   UNL     1     -11.689   7.843  72.454  1.00  0.00    -0.367 C  
BRANCH   6   9
HETATM    9  C   UNL     1     -10.271   8.694  70.684  1.00  0.00    -0.198 C  
BRANCH   9  10
HETATM   10  C   UNL     1     -10.337   9.343  69.330  1.00  0.00    -0.222 A  
HETATM   11  C   UNL     1     -11.194  10.411  69.087  1.00  0.00    -0.301 A  
HETATM   12  C   UNL     1     -11.232  10.967  67.816  1.00  0.00    -0.374 A  
HETATM   13  C   UNL     1     -10.422  10.449  66.804  1.00  0.00    -0.225 A  
HETATM   14  N   UNL     1      -9.567   9.431  67.030  1.00  0.00    -0.151 NA 
HETATM   15  C   UNL     1      -9.550   8.898  68.273  1.00  0.00    -0.146 A  
BRANCH  13  16
HETATM   16  N   UNL     1     -10.413  11.022  65.538  1.00  0.00    -0.257 NA 
HETATM   17  H   UNL     1     -10.064  10.443  64.773  1.00  0.00     0.000 HD 
BRANCH  16  18
HETATM   18  C   UNL     1     -10.832  12.302  65.212  1.00  0.00    -0.293 A  
HETATM   19  N   UNL     1     -11.758  12.416  64.249  1.00  0.00    -0.355 NA 
HETATM   20  C   UNL     1     -12.100  13.665  63.881  1.00  0.00    -0.411 A  
HETATM   21  C   UNL     1     -11.616  14.795  64.496  1.00  0.00    -0.361 A  
HETATM   22  F   UNL     1     -12.017  16.006  64.087  1.00  0.00    -0.483 F  
HETATM   23  C   UNL     1     -10.721  14.602  65.528  1.00  0.00    -0.349 A  
HETATM   24  N   UNL     1     -10.299  13.359  65.854  1.00  0.00    -0.285 NA 
BRANCH  23  25
HETATM   25  C   UNL     1     -10.191  15.690  66.384  1.00  0.00    -0.300 A  
HETATM   26  C   UNL     1     -10.786  15.975  67.627  1.00  0.00    -0.311 A  
HETATM   27  C   UNL     1     -10.284  16.968  68.466  1.00  0.00    -0.324 A  
HETATM   28  C   UNL     1      -9.162  17.711  68.085  1.00  0.00    -0.282 A  
HETATM   29  F   UNL     1     -10.896  17.193  69.640  1.00  0.00    -0.308 F  
HETATM   30  N   UNL     1      -8.514  18.719  68.736  1.00  0.00    -0.320 NA 
HETATM   31  C   UNL     1      -7.527  19.098  67.954  1.00  0.00    -0.259 A  
HETATM   32  N   UNL     1      -7.497  18.346  66.791  1.00  0.00    -0.212 NA 
HETATM   33  C   UNL     1      -6.608  20.206  68.322  1.00  0.00    -0.329 C  
HETATM   34  C   UNL     1      -9.043  16.433  66.000  1.00  0.00    -0.317 A  
HETATM   35  C   UNL     1      -8.551  17.440  66.861  1.00  0.00    -0.249 A  
BRANCH  32  36
HETATM   36  C   UNL     1      -6.612  18.485  65.632  1.00  0.00    -0.275 C  
HETATM   37  C   UNL     1      -5.185  17.950  65.805  1.00  0.00    -0.225 C  
HETATM   38  C   UNL     1      -6.573  19.931  65.135  1.00  0.00    -0.327 C  
ENDBRANCH  32  36
ENDBRANCH  23  25
ENDBRANCH  16  18
ENDBRANCH  13  16
ENDBRANCH   9  10
ENDBRANCH   6   9
ENDBRANCH   2   3
TORSDOF 7
ENDMDL
MODEL        8
REMARK 921   NORMALIZED FREE ENERGY PREDICTED BY IDOCK:   -7.58 KCAL/MOL
REMARK 922        TOTAL FREE ENERGY PREDICTED BY IDOCK:  -11.56 KCAL/MOL
REMARK 923 INTER-LIGAND FREE ENERGY PREDICTED BY IDOCK:  -10.63 KCAL/MOL
REMARK 924 INTRA-LIGAND FREE ENERGY PREDICTED BY IDOCK:   -0.93 KCAL/MOL
REMARK 927      BINDING AFFINITY PREDICTED BY RF-SCORE:    0.00 PKD
ROOT
HETATM    1  C   UNL     1      -9.019   3.109  69.101  1.00  0.00    -0.181 C  
HETATM    2  C   UNL     1      -9.748   3.530  70.372  1.00  0.00    -0.106 C  
ENDROOT
BRANCH   2   3
HETATM    3  N   UNL     1      -9.255   4.784  70.965  1.00  0.00    -0.135 NA 
HETATM    4  C   UNL     1      -9.808   5.946  70.230  1.00  0.00    -0.185 C  
HETATM    5  C   UNL     1     -11.281   6.283  70.571  1.00  0.00    -0.354 C  
HETATM    6  N   UNL     1     -11.556   6.446  72.017  1.00  0.00    -0.308 NA 
HETATM    7  C   UNL     1      -9.562   4.921  72.403  1.00  0.00    -0.146 C  
HETATM    8  C   UNL     1     -11.041   5.248  72.719  1.00  0.00    -0.286 C  
BRANCH   6   9
HETATM    9  C   UNL     1     -10.937   7.664  72.576  1.00  0.00    -0.324 C  
BRANCH   9  10
HETATM   10  C   UNL     1     -11.364   8.925  71.878  1.00  0.00    -0.446 A  
HETATM   11  C   UNL     1     -12.616   9.485  72.110  1.00  0.00    -0.411 A  
HETATM   12  C   UNL     1     -12.973  10.641  71.430  1.00  0.00    -0.545 A  
HETATM   13  C   UNL     1     -12.081  11.218  70.523  1.00  0.00    -0.387 A  
HETATM   14  N   UNL     1     -10.855  10.702  70.305  1.00  0.00    -0.186 NA 
HETATM   15  C   UNL     1     -10.529   9.572  70.973  1.00  0.00    -0.306 A  
BRANCH  13  16
HETATM   16  N   UNL     1     -12.403  12.400  69.866  1.00  0.00    -0.118 NA 
HETATM   17  H   UNL     1     -13.168  12.950  70.257  1.00  0.00     0.000 HD 
BRANCH  16  18
HETATM   18  C   UNL     1     -11.786  12.905  68.733  1.00  0.00    -0.323 A  
HETATM   19  N   UNL     1     -11.856  12.165  67.616  1.00  0.00    -0.535 NA 
HETATM   20  C   UNL     1     -11.186  12.622  66.542  1.00  0.00    -0.296 A  
HETATM   21  C   UNL     1     -10.524  13.826  66.519  1.00  0.00    -0.282 A  
HETATM   22  F   UNL     1      -9.894  14.224  65.406  1.00  0.00    -0.341 F  
HETATM   23  C   UNL     1     -10.553  14.571  67.679  1.00  0.00    -0.251 A  
HETATM   24  N   UNL     1     -11.146  14.089  68.796  1.00  0.00    -0.253 NA 
BRANCH  23  25
HETATM   25  C   UNL     1     -10.002  15.941  67.803  1.00  0.00    -0.229 A  
HETATM   26  C   UNL     1     -10.831  17.063  67.616  1.00  0.00    -0.244 A  
HETATM   27  C   UNL     1     -10.346  18.361  67.762  1.00  0.00    -0.405 A  
HETATM   28  C   UNL     1      -9.007  18.579  68.105  1.00  0.00    -0.306 A  
HETATM   29  F   UNL     1     -11.186  19.391  67.571  1.00  0.00    -0.545 F  
HETATM   30  N   UNL     1      -8.327  19.746  68.291  1.00  0.00    -0.306 NA 
HETATM   31  C   UNL     1      -7.089  19.416  68.585  1.00  0.00    -0.329 A  
HETATM   32  N   UNL     1      -6.932  18.040  68.611  1.00  0.00    -0.251 NA 
HETATM   33  C   UNL     1      -6.037  20.436  68.832  1.00  0.00    -0.372 C  
HETATM   34  C   UNL     1      -8.646  16.158  68.164  1.00  0.00    -0.177 A  
HETATM   35  C   UNL     1      -8.169  17.481  68.303  1.00  0.00    -0.263 A  
BRANCH  32  36
HETATM   36  C   UNL     1      -5.712  17.259  68.826  1.00  0.00    -0.158 C  
HETATM   37  C   UNL     1      -5.182  16.487  67.611  1.00  0.00    -0.150 C  
HETATM   38  C   UNL     1      -5.860  16.318  70.022  1.00  0.00    -0.185 C  
ENDBRANCH  32  36
ENDBRANCH  23  25
ENDBRANCH  16  18
ENDBRANCH  13  16
ENDBRANCH   9  10
ENDBRANCH   6   9
ENDBRANCH   2   3
TORSDOF 7
ENDMDL
MODEL        9
REMARK 921   NORMALIZED FREE ENERGY PREDICTED BY IDOCK:   -7.55 KCAL/MOL
REMARK 922        TOTAL FREE ENERGY PREDICTED BY IDOCK:  -11.51 KCAL/MOL
REMARK 923 INTER-LIGAND FREE ENERGY PREDICTED BY IDOCK:  -10.43 KCAL/MOL
REMARK 924 INTRA-LIGAND FREE ENERGY PREDICTED BY IDOCK:   -1.08 KCAL/MOL
REMARK 927      BINDING AFFINITY PREDICTED BY RF-SCORE:    0.00 PKD
ROOT
HETATM    1  C   UNL     1     -10.750   2.465  73.609  1.00  0.00    -0.265 C  
HETATM    2  C   UNL     1     -11.097   3.948  73.562  1.00  0.00    -0.249 C  
ENDROOT
BRANCH   2   3
HETATM    3  N   UNL     1     -10.179   4.759  72.745  1.00  0.00    -0.175 NA 
HETATM    4  C   UNL     1     -10.922   5.406  71.637  1.00  0.00    -0.113 C  
HETATM    5  C   UNL     1     -11.754   6.644  72.055  1.00  0.00    -0.313 C  
HETATM    6  N   UNL     1     -10.993   7.675  72.800  1.00  0.00    -0.347 NA 
HETATM    7  C   UNL     1      -9.451   5.787  73.515  1.00  0.00    -0.138 C  
HETATM    8  C   UNL     1     -10.305   7.010  73.930  1.00  0.00    -0.348 C  
BRANCH   6   9
HETATM    9  C   UNL     1     -10.008   8.372  71.949  1.00  0.00    -0.261 C  
BRANCH   9  10
HETATM   10  C   UNL     1     -10.636   9.286  70.935  1.00  0.00    -0.366 A  
HETATM   11  C   UNL     1     -11.683  10.134  71.282  1.00  0.00    -0.426 A  
HETATM   12  C   UNL     1     -12.242  10.947  70.307  1.00  0.00    -0.432 A  
HETATM   13  C   UNL     1     -11.756  10.901  68.999  1.00  0.00    -0.320 A  
HETATM   14  N   UNL     1     -10.725  10.104  68.651  1.00  0.00    -0.211 NA 
HETATM   15  C   UNL     1     -10.199   9.314  69.615  1.00  0.00    -0.208 A  
BRANCH  13  16
HETATM   16  N   UNL     1     -12.273  11.741  68.019  1.00  0.00    -0.425 NA 
HETATM   17  H   UNL     1     -13.278  11.686  67.849  1.00  0.00     0.000 HD 
BRANCH  16  18
HETATM   18  C   UNL     1     -11.558  12.645  67.250  1.00  0.00    -0.364 A  
HETATM   19  N   UNL     1     -11.871  12.725  65.949  1.00  0.00    -0.416 NA 
HETATM   20  C   UNL     1     -11.118  13.545  65.192  1.00  0.00    -0.316 A  
HETATM   21  C   UNL     1     -10.126  14.348  65.703  1.00  0.00    -0.353 A  
HETATM   22  F   UNL     1      -9.429  15.154  64.891  1.00  0.00    -0.120 F  
HETATM   23  C   UNL     1      -9.905  14.269  67.063  1.00  0.00    -0.254 A  
HETATM   24  N   UNL     1     -10.591  13.387  67.825  1.00  0.00    -0.242 NA 
BRANCH  23  25
HETATM   25  C   UNL     1      -8.966  15.143  67.805  1.00  0.00    -0.178 A  
HETATM   26  C   UNL     1      -7.993  14.586  68.656  1.00  0.00    -0.145 A  
HETATM   27  C   UNL     1      -7.075  15.385  69.336  1.00  0.00    -0.193 A  
HETATM   28  C   UNL     1      -7.103  16.775  69.185  1.00  0.00    -0.222 A  
HETATM   29  F   UNL     1      -6.170  14.794  70.133  1.00  0.00    -0.124 F  
HETATM   30  N   UNL     1      -6.318  17.736  69.752  1.00  0.00    -0.180 NA 
HETATM   31  C   UNL     1      -6.754  18.891  69.302  1.00  0.00    -0.280 A  
HETATM   32  N   UNL     1      -7.817  18.717  68.429  1.00  0.00    -0.311 NA 
HETATM   33  C   UNL     1      -6.154  20.182  69.725  1.00  0.00    -0.392 C  
HETATM   34  C   UNL     1      -8.988  16.554  67.639  1.00  0.00    -0.198 A  
HETATM   35  C   UNL     1      -8.054  17.348  68.342  1.00  0.00    -0.264 A  
BRANCH  32  36
HETATM   36  C   UNL     1      -8.633  19.735  67.764  1.00  0.00    -0.324 C  
HETATM   37  C   UNL     1     -10.127  19.734  68.110  1.00  0.00    -0.574 C  
HETATM   38  C   UNL     1      -8.447  19.689  66.246  1.00  0.00    -0.383 C  
ENDBRANCH  32  36
ENDBRANCH  23  25
ENDBRANCH  16  18
ENDBRANCH  13  16
ENDBRANCH   9  10
ENDBRANCH   6   9
ENDBRANCH   2   3
TORSDOF 7
ENDMDL
MODEL       10
REMARK 921   NORMALIZED FREE ENERGY PREDICTED BY IDOCK:   -7.52 KCAL/MOL
REMARK 922        TOTAL FREE ENERGY PREDICTED BY IDOCK:  -11.48 KCAL/MOL
REMARK 923 INTER-LIGAND FREE ENERGY PREDICTED BY IDOCK:  -10.68 KCAL/MOL
REMARK 924 INTRA-LIGAND FREE ENERGY PREDICTED BY IDOCK:   -0.80 KCAL/MOL
REMARK 927      BINDING AFFINITY PREDICTED BY RF-SCORE:    0.00 PKD
ROOT
HETATM    1  C   UNL     1      -5.508  19.924  63.085  1.00  0.00    -0.324 C  
HETATM    2  C   UNL     1      -5.278  20.643  64.410  1.00  0.00    -0.189 C  
ENDROOT
BRANCH   2   3
HETATM    3  N   UNL     1      -5.290  19.759  65.587  1.00  0.00    -0.159 NA 
HETATM    4  C   UNL     1      -5.285  20.567  66.830  1.00  0.00    -0.170 C  
HETATM    5  C   UNL     1      -6.655  21.191  67.198  1.00  0.00    -0.354 C  
HETATM    6  N   UNL     1      -7.777  20.226  67.249  1.00  0.00    -0.308 NA 
HETATM    7  C   UNL     1      -6.432  18.822  65.614  1.00  0.00    -0.272 C  
HETATM    8  C   UNL     1      -7.790  19.470  65.976  1.00  0.00    -0.308 C  
BRANCH   6   9
HETATM    9  C   UNL     1      -7.668  19.293  68.389  1.00  0.00    -0.327 C  
BRANCH   9  10
HETATM   10  C   UNL     1      -8.695  18.197  68.364  1.00  0.00    -0.302 A  
HETATM   11  C   UNL     1      -8.333  16.869  68.561  1.00  0.00    -0.257 A  
HETATM   12  C   UNL     1      -9.314  15.889  68.512  1.00  0.00    -0.206 A  
HETATM   13  C   UNL     1     -10.642  16.245  68.262  1.00  0.00    -0.300 A  
HETATM   14  N   UNL     1     -11.013  17.530  68.094  1.00  0.00    -0.238 NA 
HETATM   15  C   UNL     1     -10.040  18.469  68.138  1.00  0.00    -0.375 A  
BRANCH  13  16
HETATM   16  N   UNL     1     -11.645  15.283  68.254  1.00  0.00    -0.344 NA 
HETATM   17  H   UNL     1     -12.591  15.603  68.467  1.00  0.00     0.000 HD 
BRANCH  16  18
HETATM   18  C   UNL     1     -11.488  13.933  67.986  1.00  0.00    -0.307 A  
HETATM   19  N   UNL     1     -11.134  13.593  66.738  1.00  0.00    -0.303 NA 
HETATM   20  C   UNL     1     -11.062  12.277  66.464  1.00  0.00    -0.299 A  
HETATM   21  C   UNL     1     -11.246  11.296  67.409  1.00  0.00    -0.303 A  
HETATM   22  F   UNL     1     -11.141  10.006  67.065  1.00  0.00    -0.293 F  
HETATM   23  C   UNL     1     -11.537  11.717  68.690  1.00  0.00    -0.309 A  
HETATM   24  N   UNL     1     -11.699  13.032  68.966  1.00  0.00    -0.311 NA 
BRANCH  23  25
HETATM   25  C   UNL     1     -11.646  10.813  69.858  1.00  0.00    -0.410 A  
HETATM   26  C   UNL     1     -12.781  10.854  70.689  1.00  0.00    -0.396 A  
HETATM   27  C   UNL     1     -12.925   9.989  71.773  1.00  0.00    -0.458 A  
HETATM   28  C   UNL     1     -11.930   9.048  72.059  1.00  0.00    -0.363 A  
HETATM   29  F   UNL     1     -14.031  10.077  72.529  1.00  0.00    -0.361 F  
HETATM   30  N   UNL     1     -11.859   8.122  73.058  1.00  0.00    -0.198 NA 
HETATM   31  C   UNL     1     -10.716   7.490  72.903  1.00  0.00    -0.358 A  
HETATM   32  N   UNL     1     -10.024   7.973  71.804  1.00  0.00    -0.177 NA 
HETATM   33  C   UNL     1     -10.276   6.417  73.831  1.00  0.00    -0.330 C  
HETATM   34  C   UNL     1     -10.641   9.849  70.139  1.00  0.00    -0.350 A  
HETATM   35  C   UNL     1     -10.800   8.984  71.245  1.00  0.00    -0.315 A  
BRANCH  32  36
HETATM   36  C   UNL     1      -8.693   7.599  71.322  1.00  0.00    -0.131 C  
HETATM   37  C   UNL     1      -7.636   8.710  71.330  1.00  0.00    -0.136 C  
HETATM   38  C   UNL     1      -8.766   6.954  69.938  1.00  0.00    -0.142 C  
ENDBRANCH  32  36
ENDBRANCH  23  25
ENDBRANCH  16  18
ENDBRANCH  13  16
ENDBRANCH   9  10
ENDBRANCH   6   9
ENDBRANCH   2   3
TORSDOF 7
ENDMDL
MODEL       11
REMARK 921   NORMALIZED FREE ENERGY PREDICTED BY IDOCK:   -7.46 KCAL/MOL
REMARK 922        TOTAL FREE ENERGY PREDICTED BY IDOCK:  -11.38 KCAL/MOL
REMARK 923 INTER-LIGAND FREE ENERGY PREDICTED BY IDOCK:  -10.03 KCAL/MOL
REMARK 924 INTRA-LIGAND FREE ENERGY PREDICTED BY IDOCK:   -1.35 KCAL/MOL
REMARK 927      BINDING AFFINITY PREDICTED BY RF-SCORE:    0.00 PKD
ROOT
HETATM    1  C   UNL     1     -12.446  16.182  74.479  1.00  0.00    -0.626 C  
HETATM    2  C   UNL     1     -12.970  15.119  73.521  1.00  0.00    -0.470 C  
ENDROOT
BRANCH   2   3
HETATM    3  N   UNL     1     -13.284  15.621  72.174  1.00  0.00    -0.447 NA 
HETATM    4  C   UNL     1     -12.115  16.341  71.614  1.00  0.00    -0.297 C  
HETATM    5  C   UNL     1     -10.985  15.422  71.084  1.00  0.00    -0.225 C  
HETATM    6  N   UNL     1     -11.432  14.392  70.117  1.00  0.00    -0.249 NA 
HETATM    7  C   UNL     1     -13.708  14.565  71.231  1.00  0.00    -0.341 C  
HETATM    8  C   UNL     1     -12.564  13.655  70.723  1.00  0.00    -0.325 C  
BRANCH   6   9
HETATM    9  C   UNL     1     -11.842  14.973  68.823  1.00  0.00    -0.301 C  
BRANCH   9  10
HETATM   10  C   UNL     1     -11.360  14.188  67.636  1.00  0.00    -0.342 A  
HETATM   11  C   UNL     1     -12.229  13.829  66.612  1.00  0.00    -0.454 A  
HETATM   12  C   UNL     1     -11.742  13.089  65.544  1.00  0.00    -0.408 A  
HETATM   13  C   UNL     1     -10.398  12.711  65.514  1.00  0.00    -0.286 A  
HETATM   14  N   UNL     1      -9.536  13.073  66.487  1.00  0.00    -0.258 NA 
HETATM   15  C   UNL     1     -10.033  13.788  67.522  1.00  0.00    -0.233 A  
BRANCH  13  16
HETATM   16  N   UNL     1      -9.881  12.009  64.432  1.00  0.00    -0.440 NA 
HETATM   17  H   UNL     1      -9.935  12.464  63.520  1.00  0.00     0.000 HD 
BRANCH  16  18
HETATM   18  C   UNL     1      -9.300  10.751  64.469  1.00  0.00    -0.236 A  
HETATM   19  N   UNL     1      -8.323  10.502  63.586  1.00  0.00    -0.146 NA 
HETATM   20  C   UNL     1      -7.820   9.253  63.573  1.00  0.00    -0.129 A  
HETATM   21  C   UNL     1      -8.197   8.277  64.464  1.00  0.00    -0.135 A  
HETATM   22  F   UNL     1      -7.639   7.061  64.403  1.00  0.00    -0.078 F  
HETATM   23  C   UNL     1      -9.156   8.623  65.394  1.00  0.00    -0.090 A  
HETATM   24  N   UNL     1      -9.736   9.846  65.366  1.00  0.00    -0.290 NA 
BRANCH  23  25
HETATM   25  C   UNL     1      -9.595   7.745  66.504  1.00  0.00    -0.270 A  
HETATM   26  C   UNL     1      -9.879   6.387  66.270  1.00  0.00    -0.049 A  
HETATM   27  C   UNL     1     -10.258   5.532  67.304  1.00  0.00    -0.212 A  
HETATM   28  C   UNL     1     -10.364   6.014  68.613  1.00  0.00    -0.214 A  
HETATM   29  F   UNL     1     -10.516   4.246  67.017  1.00  0.00    -0.165 F  
HETATM   30  N   UNL     1     -10.720   5.368  69.760  1.00  0.00    -0.284 NA 
HETATM   31  C   UNL     1     -10.681   6.262  70.723  1.00  0.00    -0.256 A  
HETATM   32  N   UNL     1     -10.291   7.500  70.237  1.00  0.00    -0.209 NA 
HETATM   33  C   UNL     1     -11.036   5.929  72.126  1.00  0.00    -0.333 C  
HETATM   34  C   UNL     1      -9.688   8.234  67.834  1.00  0.00    -0.192 A  
HETATM   35  C   UNL     1     -10.080   7.355  68.869  1.00  0.00    -0.186 A  
BRANCH  32  36
HETATM   36  C   UNL     1     -10.187   8.774  70.952  1.00  0.00    -0.226 C  
HETATM   37  C   UNL     1     -11.189   9.861  70.544  1.00  0.00    -0.399 C  
HETATM   38  C   UNL     1      -8.762   9.327  70.893  1.00  0.00    -0.234 C  
ENDBRANCH  32  36
ENDBRANCH  23  25
ENDBRANCH  16  18
ENDBRANCH  13  16
ENDBRANCH   9  10
ENDBRANCH   6   9
ENDBRANCH   2   3
TORSDOF 7
ENDMDL
MODEL       12
REMARK 921   NORMALIZED FREE ENERGY PREDICTED BY IDOCK:   -7.44 KCAL/MOL
REMARK 922        TOTAL FREE ENERGY PREDICTED BY IDOCK:  -11.36 KCAL/MOL
REMARK 923 INTER-LIGAND FREE ENERGY PREDICTED BY IDOCK:  -10.53 KCAL/MOL
REMARK 924 INTRA-LIGAND FREE ENERGY PREDICTED BY IDOCK:   -0.83 KCAL/MOL
REMARK 927      BINDING AFFINITY PREDICTED BY RF-SCORE:    0.00 PKD
ROOT
HETATM    1  C   UNL     1      -9.105   1.889  67.315  1.00  0.00    -0.148 C  
HETATM    2  C   UNL     1      -9.295   3.346  67.721  1.00  0.00    -0.194 C  
ENDROOT
BRANCH   2   3
HETATM    3  N   UNL     1      -9.045   4.312  66.638  1.00  0.00    -0.121 NA 
HETATM    4  C   UNL     1     -10.314   4.965  66.237  1.00  0.00    -0.298 C  
HETATM    5  C   UNL     1     -10.804   6.071  67.204  1.00  0.00    -0.329 C  
HETATM    6  N   UNL     1      -9.796   7.112  67.511  1.00  0.00    -0.143 NA 
HETATM    7  C   UNL     1      -8.049   5.346  66.984  1.00  0.00    -0.101 C  
HETATM    8  C   UNL     1      -8.558   6.434  67.959  1.00  0.00    -0.117 C  
BRANCH   6   9
HETATM    9  C   UNL     1      -9.506   7.976  66.349  1.00  0.00    -0.201 C  
BRANCH   9  10
HETATM   10  C   UNL     1     -10.126   9.341  66.450  1.00  0.00    -0.337 A  
HETATM   11  C   UNL     1      -9.942  10.290  65.450  1.00  0.00    -0.371 A  
HETATM   12  C   UNL     1     -10.520  11.542  65.595  1.00  0.00    -0.317 A  
HETATM   13  C   UNL     1     -11.270  11.835  66.737  1.00  0.00    -0.328 A  
HETATM   14  N   UNL     1     -11.480  10.918  67.704  1.00  0.00    -0.518 NA 
HETATM   15  C   UNL     1     -10.901   9.706  67.546  1.00  0.00    -0.198 A  
BRANCH  13  16
HETATM   16  N   UNL     1     -11.895  13.068  66.880  1.00  0.00    -0.382 NA 
HETATM   17  H   UNL     1     -12.588  13.317  66.174  1.00  0.00     0.000 HD 
BRANCH  16  18
HETATM   18  C   UNL     1     -11.668  13.994  67.886  1.00  0.00    -0.362 A  
HETATM   19  N   UNL     1     -12.049  13.655  69.126  1.00  0.00    -0.343 NA 
HETATM   20  C   UNL     1     -11.901  14.590  70.084  1.00  0.00    -0.308 A  
HETATM   21  C   UNL     1     -11.309  15.810  69.864  1.00  0.00    -0.349 A  
HETATM   22  F   UNL     1     -11.178  16.684  70.871  1.00  0.00    -0.371 F  
HETATM   23  C   UNL     1     -10.873  16.065  68.580  1.00  0.00    -0.304 A  
HETATM   24  N   UNL     1     -11.093  15.174  67.585  1.00  0.00    -0.310 NA 
BRANCH  23  25
HETATM   25  C   UNL     1     -10.107  17.270  68.185  1.00  0.00    -0.325 A  
HETATM   26  C   UNL     1     -10.736  18.322  67.494  1.00  0.00    -0.381 A  
HETATM   27  C   UNL     1     -10.046  19.481  67.143  1.00  0.00    -0.400 A  
HETATM   28  C   UNL     1      -8.695  19.625  67.477  1.00  0.00    -0.312 A  
HETATM   29  F   UNL     1     -10.702  20.450  66.485  1.00  0.00    -0.441 F  
HETATM   30  N   UNL     1      -7.835  20.655  67.231  1.00  0.00    -0.329 NA 
HETATM   31  C   UNL     1      -6.673  20.301  67.734  1.00  0.00    -0.279 A  
HETATM   32  N   UNL     1      -6.746  19.050  68.326  1.00  0.00    -0.234 NA 
HETATM   33  C   UNL     1      -5.471  21.169  67.633  1.00  0.00    -0.359 C  
HETATM   34  C   UNL     1      -8.738  17.419  68.537  1.00  0.00    -0.277 A  
HETATM   35  C   UNL     1      -8.053  18.599  68.169  1.00  0.00    -0.294 A  
BRANCH  32  36
HETATM   36  C   UNL     1      -5.674  18.260  68.936  1.00  0.00    -0.206 C  
HETATM   37  C   UNL     1      -5.548  16.809  68.457  1.00  0.00    -0.126 C  
HETATM   38  C   UNL     1      -5.754  18.304  70.463  1.00  0.00    -0.123 C  
ENDBRANCH  32  36
ENDBRANCH  23  25
ENDBRANCH  16  18
ENDBRANCH  13  16
ENDBRANCH   9  10
ENDBRANCH   6   9
ENDBRANCH   2   3
TORSDOF 7
ENDMDL
MODEL       13
REMARK 921   NORMALIZED FREE ENERGY PREDICTED BY IDOCK:   -7.44 KCAL/MOL
REMARK 922        TOTAL FREE ENERGY PREDICTED BY IDOCK:  -11.36 KCAL/MOL
REMARK 923 INTER-LIGAND FREE ENERGY PREDICTED BY IDOCK:  -11.35 KCAL/MOL
REMARK 924 INTRA-LIGAND FREE ENERGY PREDICTED BY IDOCK:   -0.00 KCAL/MOL
REMARK 927      BINDING AFFINITY PREDICTED BY RF-SCORE:    0.00 PKD
ROOT
HETATM    1  C   UNL     1      -8.605   4.154  65.743  1.00  0.00    -0.114 C  
HETATM    2  C   UNL     1      -9.551   4.536  66.876  1.00  0.00    -0.190 C  
ENDROOT
BRANCH   2   3
HETATM    3  N   UNL     1      -9.027   5.575  67.777  1.00  0.00    -0.109 NA 
HETATM    4  C   UNL     1     -10.069   6.598  68.034  1.00  0.00    -0.154 C  
HETATM    5  C   UNL     1     -11.157   6.168  69.049  1.00  0.00    -0.367 C  
HETATM    6  N   UNL     1     -10.631   5.673  70.343  1.00  0.00    -0.286 NA 
HETATM    7  C   UNL     1      -8.528   5.048  69.063  1.00  0.00    -0.082 C  
HETATM    8  C   UNL     1      -9.633   4.617  70.057  1.00  0.00    -0.188 C  
BRANCH   6   9
HETATM    9  C   UNL     1     -10.016   6.746  71.149  1.00  0.00    -0.181 C  
BRANCH   9  10
HETATM   10  C   UNL     1     -10.915   7.933  71.348  1.00  0.00    -0.264 A  
HETATM   11  C   UNL     1     -10.660   9.142  70.710  1.00  0.00    -0.324 A  
HETATM   12  C   UNL     1     -11.509  10.216  70.938  1.00  0.00    -0.444 A  
HETATM   13  C   UNL     1     -12.596  10.073  71.803  1.00  0.00    -0.409 A  
HETATM   14  N   UNL     1     -12.871   8.901  72.411  1.00  0.00    -0.399 NA 
HETATM   15  C   UNL     1     -12.027   7.869  72.181  1.00  0.00    -0.332 A  
BRANCH  13  16
HETATM   16  N   UNL     1     -13.483  11.123  72.009  1.00  0.00    -0.454 NA 
HETATM   17  H   UNL     1     -14.431  10.876  72.292  1.00  0.00     0.000 HD 
BRANCH  16  18
HETATM   18  C   UNL     1     -13.205  12.473  71.868  1.00  0.00    -0.392 A  
HETATM   19  N   UNL     1     -13.692  13.300  72.805  1.00  0.00    -0.618 NA 
HETATM   20  C   UNL     1     -13.488  14.618  72.617  1.00  0.00    -0.483 A  
HETATM   21  C   UNL     1     -12.745  15.128  71.580  1.00  0.00    -0.358 A  
HETATM   22  F   UNL     1     -12.569  16.451  71.468  1.00  0.00    -0.405 F  
HETATM   23  C   UNL     1     -12.212  14.216  70.692  1.00  0.00    -0.362 A  
HETATM   24  N   UNL     1     -12.479  12.895  70.814  1.00  0.00    -0.330 NA 
BRANCH  23  25
HETATM   25  C   UNL     1     -11.288  14.570  69.589  1.00  0.00    -0.314 A  
HETATM   26  C   UNL     1     -10.915  13.607  68.633  1.00  0.00    -0.290 A  
HETATM   27  C   UNL     1     -10.077  13.925  67.566  1.00  0.00    -0.244 A  
HETATM   28  C   UNL     1      -9.584  15.226  67.420  1.00  0.00    -0.207 A  
HETATM   29  F   UNL     1      -9.757  12.962  66.686  1.00  0.00    -0.226 F  
HETATM   30  N   UNL     1      -8.756  15.750  66.471  1.00  0.00    -0.293 NA 
HETATM   31  C   UNL     1      -8.578  17.014  66.785  1.00  0.00    -0.237 A  
HETATM   32  N   UNL     1      -9.287  17.349  67.928  1.00  0.00    -0.261 NA 
HETATM   33  C   UNL     1      -7.705  17.911  65.985  1.00  0.00    -0.216 C  
HETATM   34  C   UNL     1     -10.800  15.896  69.436  1.00  0.00    -0.288 A  
HETATM   35  C   UNL     1      -9.946  16.198  68.352  1.00  0.00    -0.230 A  
BRANCH  32  36
HETATM   36  C   UNL     1      -9.311  18.621  68.653  1.00  0.00    -0.341 C  
HETATM   37  C   UNL     1     -10.246  19.700  68.092  1.00  0.00    -0.580 C  
HETATM   38  C   UNL     1      -7.901  19.186  68.826  1.00  0.00    -0.383 C  
ENDBRANCH  32  36
ENDBRANCH  23  25
ENDBRANCH  16  18
ENDBRANCH  13  16
ENDBRANCH   9  10
ENDBRANCH   6   9
ENDBRANCH   2   3
TORSDOF 7
ENDMDL
MODEL       14
REMARK 921   NORMALIZED FREE ENERGY PREDICTED BY IDOCK:   -7.42 KCAL/MOL
REMARK 922        TOTAL FREE ENERGY PREDICTED BY IDOCK:  -11.33 KCAL/MOL
REMARK 923 INTER-LIGAND FREE ENERGY PREDICTED BY IDOCK:  -10.27 KCAL/MOL
REMARK 924 INTRA-LIGAND FREE ENERGY PREDICTED BY IDOCK:   -1.05 KCAL/MOL
REMARK 927      BINDING AFFINITY PREDICTED BY RF-SCORE:    0.00 PKD
ROOT
HETATM    1  C   UNL     1      -9.187   1.978  70.744  1.00  0.00    -0.181 C  
HETATM    2  C   UNL     1      -9.695   2.582  72.049  1.00  0.00    -0.142 C  
ENDROOT
BRANCH   2   3
HETATM    3  N   UNL     1      -9.133   3.907  72.361  1.00  0.00    -0.108 NA 
HETATM    4  C   UNL     1      -9.442   4.860  71.269  1.00  0.00    -0.156 C  
HETATM    5  C   UNL     1     -10.895   5.399  71.275  1.00  0.00    -0.131 C  
HETATM    6  N   UNL     1     -11.331   5.978  72.567  1.00  0.00    -0.293 NA 
HETATM    7  C   UNL     1      -9.603   4.462  73.646  1.00  0.00    -0.115 C  
HETATM    8  C   UNL     1     -11.059   4.985  73.630  1.00  0.00    -0.267 C  
BRANCH   6   9
HETATM    9  C   UNL     1     -10.644   7.249  72.875  1.00  0.00    -0.301 C  
BRANCH   9  10
HETATM   10  C   UNL     1     -11.103   8.398  72.022  1.00  0.00    -0.397 A  
HETATM   11  C   UNL     1     -12.436   8.792  72.003  1.00  0.00    -0.452 A  
HETATM   12  C   UNL     1     -12.815   9.847  71.186  1.00  0.00    -0.461 A  
HETATM   13  C   UNL     1     -11.862  10.491  70.394  1.00  0.00    -0.340 A  
HETATM   14  N   UNL     1     -10.561  10.138  70.419  1.00  0.00    -0.275 NA 
HETATM   15  C   UNL     1     -10.214   9.102  71.217  1.00  0.00    -0.329 A  
BRANCH  13  16
HETATM   16  N   UNL     1     -12.214  11.580  69.604  1.00  0.00    -0.265 NA 
HETATM   17  H   UNL     1     -12.710  11.376  68.736  1.00  0.00     0.000 HD 
BRANCH  16  18
HETATM   18  C   UNL     1     -11.956  12.913  69.879  1.00  0.00    -0.307 A  
HETATM   19  N   UNL     1     -12.629  13.470  70.896  1.00  0.00    -0.352 NA 
HETATM   20  C   UNL     1     -12.434  14.785  71.105  1.00  0.00    -0.329 A  
HETATM   21  C   UNL     1     -11.532  15.539  70.395  1.00  0.00    -0.345 A  
HETATM   22  F   UNL     1     -11.378  16.840  70.672  1.00  0.00    -0.342 F  
HETATM   23  C   UNL     1     -10.819  14.886  69.410  1.00  0.00    -0.264 A  
HETATM   24  N   UNL     1     -11.064  13.586  69.126  1.00  0.00    -0.249 NA 
BRANCH  23  25
HETATM   25  C   UNL     1      -9.721  15.503  68.629  1.00  0.00    -0.208 A  
HETATM   26  C   UNL     1      -8.546  14.779  68.354  1.00  0.00    -0.166 A  
HETATM   27  C   UNL     1      -7.515  15.324  67.591  1.00  0.00    -0.176 A  
HETATM   28  C   UNL     1      -7.630  16.619  67.074  1.00  0.00    -0.202 A  
HETATM   29  F   UNL     1      -6.419  14.584  67.363  1.00  0.00    -0.184 F  
HETATM   30  N   UNL     1      -6.755  17.344  66.318  1.00  0.00    -0.256 NA 
HETATM   31  C   UNL     1      -7.322  18.510  66.102  1.00  0.00    -0.259 A  
HETATM   32  N   UNL     1      -8.574  18.572  66.694  1.00  0.00    -0.279 NA 
HETATM   33  C   UNL     1      -6.649  19.585  65.329  1.00  0.00    -0.309 C  
HETATM   34  C   UNL     1      -9.846  16.813  68.094  1.00  0.00    -0.264 A  
HETATM   35  C   UNL     1      -8.789  17.352  67.327  1.00  0.00    -0.232 A  
BRANCH  32  36
HETATM   36  C   UNL     1      -9.503  19.703  66.755  1.00  0.00    -0.367 C  
HETATM   37  C   UNL     1      -9.854  20.213  68.158  1.00  0.00    -0.460 C  
HETATM   38  C   UNL     1     -10.782  19.411  65.968  1.00  0.00    -0.512 C  
ENDBRANCH  32  36
ENDBRANCH  23  25
ENDBRANCH  16  18
ENDBRANCH  13  16
ENDBRANCH   9  10
ENDBRANCH   6   9
ENDBRANCH   2   3
TORSDOF 7
ENDMDL
MODEL       15
REMARK 921   NORMALIZED FREE ENERGY PREDICTED BY IDOCK:   -7.42 KCAL/MOL
REMARK 922        TOTAL FREE ENERGY PREDICTED BY IDOCK:  -11.32 KCAL/MOL
REMARK 923 INTER-LIGAND FREE ENERGY PREDICTED BY IDOCK:  -10.25 KCAL/MOL
REMARK 924 INTRA-LIGAND FREE ENERGY PREDICTED BY IDOCK:   -1.07 KCAL/MOL
REMARK 927      BINDING AFFINITY PREDICTED BY RF-SCORE:    0.00 PKD
ROOT
HETATM    1  C   UNL     1     -10.331   4.951  74.544  1.00  0.00    -0.324 C  
HETATM    2  C   UNL     1     -10.700   4.697  73.087  1.00  0.00    -0.239 C  
ENDROOT
BRANCH   2   3
HETATM    3  N   UNL     1      -9.579   4.845  72.145  1.00  0.00    -0.148 NA 
HETATM    4  C   UNL     1     -10.042   4.595  70.759  1.00  0.00    -0.194 C  
HETATM    5  C   UNL     1     -10.826   5.768  70.119  1.00  0.00    -0.313 C  
HETATM    6  N   UNL     1     -10.129   7.074  70.171  1.00  0.00    -0.186 NA 
HETATM    7  C   UNL     1      -8.919   6.165  72.211  1.00  0.00    -0.137 C  
HETATM    8  C   UNL     1      -9.725   7.323  71.573  1.00  0.00    -0.159 C  
BRANCH   6   9
HETATM    9  C   UNL     1      -8.946   7.118  69.289  1.00  0.00    -0.138 C  
BRANCH   9  10
HETATM   10  C   UNL     1      -9.135   7.988  68.079  1.00  0.00    -0.130 A  
HETATM   11  C   UNL     1     -10.401   8.416  67.692  1.00  0.00    -0.317 A  
HETATM   12  C   UNL     1     -10.527   9.204  66.557  1.00  0.00    -0.197 A  
HETATM   13  C   UNL     1      -9.393   9.551  65.820  1.00  0.00    -0.233 A  
HETATM   14  N   UNL     1      -8.156   9.166  66.195  1.00  0.00    -0.106 NA 
HETATM   15  C   UNL     1      -8.055   8.392  67.300  1.00  0.00    -0.105 A  
BRANCH  13  16
HETATM   16  N   UNL     1      -9.494  10.377  64.707  1.00  0.00    -0.246 NA 
HETATM   17  H   UNL     1      -8.908  10.143  63.905  1.00  0.00     0.000 HD 
BRANCH  16  18
HETATM   18  C   UNL     1     -10.313  11.488  64.580  1.00  0.00    -0.302 A  
HETATM   19  N   UNL     1     -11.178  11.497  63.555  1.00  0.00    -0.387 NA 
HETATM   20  C   UNL     1     -11.912  12.613  63.390  1.00  0.00    -0.528 A  
HETATM   21  C   UNL     1     -11.875  13.678  64.257  1.00  0.00    -0.425 A  
HETATM   22  F   UNL     1     -12.649  14.750  64.038  1.00  0.00    -0.489 F  
HETATM   23  C   UNL     1     -11.015  13.573  65.331  1.00  0.00    -0.292 A  
HETATM   24  N   UNL     1     -10.206  12.497  65.466  1.00  0.00    -0.273 NA 
BRANCH  23  25
HETATM   25  C   UNL     1     -10.931  14.563  66.430  1.00  0.00    -0.324 A  
HETATM   26  C   UNL     1     -11.330  14.217  67.735  1.00  0.00    -0.329 A  
HETATM   27  C   UNL     1     -11.226  15.118  68.793  1.00  0.00    -0.284 A  
HETATM   28  C   UNL     1     -10.715  16.402  68.577  1.00  0.00    -0.320 A  
HETATM   29  F   UNL     1     -11.623  14.729  70.015  1.00  0.00    -0.256 F  
HETATM   30  N   UNL     1     -10.533  17.434  69.451  1.00  0.00    -0.216 NA 
HETATM   31  C   UNL     1     -10.037  18.433  68.755  1.00  0.00    -0.363 A  
HETATM   32  N   UNL     1      -9.872  18.080  67.425  1.00  0.00    -0.299 NA 
HETATM   33  C   UNL     1      -9.730  19.749  69.371  1.00  0.00    -0.162 C  
HETATM   34  C   UNL     1     -10.399  15.862  66.211  1.00  0.00    -0.324 A  
HETATM   35  C   UNL     1     -10.306  16.764  67.294  1.00  0.00    -0.304 A  
BRANCH  32  36
HETATM   36  C   UNL     1      -9.419  18.909  66.306  1.00  0.00    -0.297 C  
HETATM   37  C   UNL     1      -8.070  19.615  66.491  1.00  0.00    -0.338 C  
HETATM   38  C   UNL     1     -10.490  19.922  65.899  1.00  0.00    -0.567 C  
ENDBRANCH  32  36
ENDBRANCH  23  25
ENDBRANCH  16  18
ENDBRANCH  13  16
ENDBRANCH   9  10
ENDBRANCH   6   9
ENDBRANCH   2   3
TORSDOF 7
ENDMDL
MODEL       16
REMARK 921   NORMALIZED FREE ENERGY PREDICTED BY IDOCK:   -7.41 KCAL/MOL
REMARK 922        TOTAL FREE ENERGY PREDICTED BY IDOCK:  -11.31 KCAL/MOL
REMARK 923 INTER-LIGAND FREE ENERGY PREDICTED BY IDOCK:  -10.19 KCAL/MOL
REMARK 924 INTRA-LIGAND FREE ENERGY PREDICTED BY IDOCK:   -1.13 KCAL/MOL
REMARK 927      BINDING AFFINITY PREDICTED BY RF-SCORE:    0.00 PKD
ROOT
HETATM    1  C   UNL     1      -7.262   2.088  68.879  1.00  0.00    -0.043 C  
HETATM    2  C   UNL     1      -7.824   2.699  70.158  1.00  0.00    -0.042 C  
ENDROOT
BRANCH   2   3
HETATM    3  N   UNL     1      -9.264   2.999  70.103  1.00  0.00    -0.131 NA 
HETATM    4  C   UNL     1      -9.783   3.251  71.468  1.00  0.00    -0.163 C  
HETATM    5  C   UNL     1      -9.443   4.651  72.039  1.00  0.00    -0.142 C  
HETATM    6  N   UNL     1      -9.816   5.782  71.159  1.00  0.00    -0.175 NA 
HETATM    7  C   UNL     1      -9.598   4.143  69.231  1.00  0.00    -0.186 C  
HETATM    8  C   UNL     1      -9.241   5.529  69.818  1.00  0.00    -0.137 C  
BRANCH   6   9
HETATM    9  C   UNL     1     -11.279   5.957  71.056  1.00  0.00    -0.210 C  
BRANCH   9  10
HETATM   10  C   UNL     1     -11.720   7.388  71.184  1.00  0.00    -0.322 A  
HETATM   11  C   UNL     1     -13.058   7.713  71.378  1.00  0.00    -0.339 A  
HETATM   12  C   UNL     1     -13.419   9.049  71.474  1.00  0.00    -0.397 A  
HETATM   13  C   UNL     1     -12.444  10.043  71.369  1.00  0.00    -0.411 A  
HETATM   14  N   UNL     1     -11.139   9.745  71.207  1.00  0.00    -0.350 NA 
HETATM   15  C   UNL     1     -10.809   8.436  71.109  1.00  0.00    -0.237 A  
BRANCH  13  16
HETATM   16  N   UNL     1     -12.780  11.385  71.508  1.00  0.00    -0.382 NA 
HETATM   17  H   UNL     1     -13.294  11.646  72.350  1.00  0.00     0.000 HD 
BRANCH  16  18
HETATM   18  C   UNL     1     -12.486  12.403  70.615  1.00  0.00    -0.234 A  
HETATM   19  N   UNL     1     -12.442  13.651  71.102  1.00  0.00    -0.366 NA 
HETATM   20  C   UNL     1     -12.236  14.642  70.215  1.00  0.00    -0.331 A  
HETATM   21  C   UNL     1     -11.989  14.424  68.881  1.00  0.00    -0.302 A  
HETATM   22  F   UNL     1     -11.775  15.461  68.059  1.00  0.00    -0.338 F  
HETATM   23  C   UNL     1     -11.978  13.111  68.459  1.00  0.00    -0.289 A  
HETATM   24  N   UNL     1     -12.269  12.106  69.319  1.00  0.00    -0.139 NA 
BRANCH  23  25
HETATM   25  C   UNL     1     -11.611  12.678  67.091  1.00  0.00    -0.434 A  
HETATM   26  C   UNL     1     -12.078  13.388  65.968  1.00  0.00    -0.487 A  
HETATM   27  C   UNL     1     -11.717  13.023  64.672  1.00  0.00    -0.361 A  
HETATM   28  C   UNL     1     -10.871  11.930  64.458  1.00  0.00    -0.316 A  
HETATM   29  F   UNL     1     -12.195  13.740  63.643  1.00  0.00    -0.506 F  
HETATM   30  N   UNL     1     -10.400  11.399  63.293  1.00  0.00    -0.373 NA 
HETATM   31  C   UNL     1      -9.652  10.370  63.624  1.00  0.00    -0.310 A  
HETATM   32  N   UNL     1      -9.605  10.211  65.000  1.00  0.00    -0.277 NA 
HETATM   33  C   UNL     1      -8.985   9.518  62.606  1.00  0.00    -0.249 C  
HETATM   34  C   UNL     1     -10.740  11.576  66.876  1.00  0.00    -0.304 A  
HETATM   35  C   UNL     1     -10.389  11.217  65.556  1.00  0.00    -0.266 A  
BRANCH  32  36
HETATM   36  C   UNL     1      -8.949   9.158  65.779  1.00  0.00    -0.193 C  
HETATM   37  C   UNL     1      -9.875   8.240  66.586  1.00  0.00    -0.337 C  
HETATM   38  C   UNL     1      -7.862   9.736  66.686  1.00  0.00    -0.109 C  
ENDBRANCH  32  36
ENDBRANCH  23  25
ENDBRANCH  16  18
ENDBRANCH  13  16
ENDBRANCH   9  10
ENDBRANCH   6   9
ENDBRANCH   2   3
TORSDOF 7
ENDMDL
MODEL       17
REMARK 921   NORMALIZED FREE ENERGY PREDICTED BY IDOCK:   -7.35 KCAL/MOL
REMARK 922        TOTAL FREE ENERGY PREDICTED BY IDOCK:  -11.23 KCAL/MOL
REMARK 923 INTER-LIGAND FREE ENERGY PREDICTED BY IDOCK:  -10.33 KCAL/MOL
REMARK 924 INTRA-LIGAND FREE ENERGY PREDICTED BY IDOCK:   -0.89 KCAL/MOL
REMARK 927      BINDING AFFINITY PREDICTED BY RF-SCORE:    0.00 PKD
ROOT
HETATM    1  C   UNL     1     -10.835   4.483  74.069  1.00  0.00    -0.316 C  
HETATM    2  C   UNL     1     -11.017   4.971  72.637  1.00  0.00    -0.216 C  
ENDROOT
BRANCH   2   3
HETATM    3  N   UNL     1     -11.531   6.346  72.528  1.00  0.00    -0.267 NA 
HETATM    4  C   UNL     1     -10.599   7.292  73.187  1.00  0.00    -0.355 C  
HETATM    5  C   UNL     1      -9.330   7.627  72.362  1.00  0.00    -0.160 C  
HETATM    6  N   UNL     1      -9.599   8.090  70.981  1.00  0.00    -0.159 NA 
HETATM    7  C   UNL     1     -11.770   6.781  71.136  1.00  0.00    -0.345 C  
HETATM    8  C   UNL     1     -10.488   7.101  70.330  1.00  0.00    -0.218 C  
BRANCH   6   9
HETATM    9  C   UNL     1     -10.221   9.429  70.946  1.00  0.00    -0.303 C  
BRANCH   9  10
HETATM   10  C   UNL     1     -10.166  10.077  69.592  1.00  0.00    -0.267 A  
HETATM   11  C   UNL     1     -11.287  10.691  69.043  1.00  0.00    -0.340 A  
HETATM   12  C   UNL     1     -11.193  11.262  67.782  1.00  0.00    -0.354 A  
HETATM   13  C   UNL     1      -9.985  11.208  67.082  1.00  0.00    -0.186 A  
HETATM   14  N   UNL     1      -8.882  10.640  67.610  1.00  0.00    -0.131 NA 
HETATM   15  C   UNL     1      -8.997  10.083  68.837  1.00  0.00    -0.152 A  
BRANCH  13  16
HETATM   16  N   UNL     1      -9.859  11.814  65.837  1.00  0.00    -0.232 NA 
HETATM   17  H   UNL     1      -9.283  11.331  65.147  1.00  0.00     0.000 HD 
BRANCH  16  18
HETATM   18  C   UNL     1     -10.438  13.009  65.442  1.00  0.00    -0.296 A  
HETATM   19  N   UNL     1     -11.491  12.935  64.614  1.00  0.00    -0.313 NA 
HETATM   20  C   UNL     1     -11.997  14.101  64.170  1.00  0.00    -0.393 A  
HETATM   21  C   UNL     1     -11.547  15.329  64.588  1.00  0.00    -0.333 A  
HETATM   22  F   UNL     1     -12.112  16.448  64.116  1.00  0.00    -0.317 F  
HETATM   23  C   UNL     1     -10.508  15.333  65.497  1.00  0.00    -0.374 A  
HETATM   24  N   UNL     1      -9.929  14.174  65.888  1.00  0.00    -0.310 NA 
BRANCH  23  25
HETATM   25  C   UNL     1      -9.977  16.552  66.150  1.00  0.00    -0.363 A  
HETATM   26  C   UNL     1     -10.651  17.781  66.024  1.00  0.00    -0.229 A  
HETATM   27  C   UNL     1     -10.191  18.933  66.658  1.00  0.00    -0.405 A  
HETATM   28  C   UNL     1      -9.035  18.891  67.445  1.00  0.00    -0.276 A  
HETATM   29  F   UNL     1     -10.878  20.076  66.500  1.00  0.00    -0.559 F  
HETATM   30  N   UNL     1      -8.409  19.884  68.140  1.00  0.00    -0.280 NA 
HETATM   31  C   UNL     1      -7.354  19.340  68.704  1.00  0.00    -0.338 A  
HETATM   32  N   UNL     1      -7.270  17.989  68.405  1.00  0.00    -0.245 NA 
HETATM   33  C   UNL     1      -6.404  20.129  69.530  1.00  0.00    -0.362 C  
HETATM   34  C   UNL     1      -8.810  16.503  66.959  1.00  0.00    -0.217 A  
HETATM   35  C   UNL     1      -8.355  17.682  67.590  1.00  0.00    -0.226 A  
BRANCH  32  36
HETATM   36  C   UNL     1      -6.222  17.033  68.770  1.00  0.00    -0.167 C  
HETATM   37  C   UNL     1      -5.392  16.466  67.611  1.00  0.00    -0.158 C  
HETATM   38  C   UNL     1      -6.784  15.893  69.619  1.00  0.00    -0.173 C  
ENDBRANCH  32  36
ENDBRANCH  23  25
ENDBRANCH  16  18
ENDBRANCH  13  16
ENDBRANCH   9  10
ENDBRANCH   6   9
ENDBRANCH   2   3
TORSDOF 7
ENDMDL
MODEL       18
REMARK 921   NORMALIZED FREE ENERGY PREDICTED BY IDOCK:   -7.31 KCAL/MOL
REMARK 922        TOTAL FREE ENERGY PREDICTED BY IDOCK:  -11.17 KCAL/MOL
REMARK 923 INTER-LIGAND FREE ENERGY PREDICTED BY IDOCK:  -10.57 KCAL/MOL
REMARK 924 INTRA-LIGAND FREE ENERGY PREDICTED BY IDOCK:   -0.60 KCAL/MOL
REMARK 927      BINDING AFFINITY PREDICTED BY RF-SCORE:    0.00 PKD
ROOT
HETATM    1  C   UNL     1      -9.309   2.247  69.395  1.00  0.00    -0.169 C  
HETATM    2  C   UNL     1      -9.280   3.575  68.648  1.00  0.00    -0.165 C  
ENDROOT
BRANCH   2   3
HETATM    3  N   UNL     1      -8.820   4.715  69.458  1.00  0.00    -0.082 NA 
HETATM    4  C   UNL     1      -9.473   5.963  68.996  1.00  0.00    -0.127 C  
HETATM    5  C   UNL     1     -10.940   6.135  69.463  1.00  0.00    -0.393 C  
HETATM    6  N   UNL     1     -11.142   5.990  70.924  1.00  0.00    -0.296 NA 
HETATM    7  C   UNL     1      -9.053   4.545  70.906  1.00  0.00    -0.131 C  
HETATM    8  C   UNL     1     -10.527   4.712  71.348  1.00  0.00    -0.013 C  
BRANCH   6   9
HETATM    9  C   UNL     1     -10.556   7.110  71.687  1.00  0.00    -0.207 C  
BRANCH   9  10
HETATM   10  C   UNL     1     -11.374   8.369  71.624  1.00  0.00    -0.349 A  
HETATM   11  C   UNL     1     -12.588   8.471  72.295  1.00  0.00    -0.438 A  
HETATM   12  C   UNL     1     -13.316   9.648  72.193  1.00  0.00    -0.545 A  
HETATM   13  C   UNL     1     -12.829  10.704  71.419  1.00  0.00    -0.451 A  
HETATM   14  N   UNL     1     -11.642  10.630  70.783  1.00  0.00    -0.332 NA 
HETATM   15  C   UNL     1     -10.951   9.472  70.890  1.00  0.00    -0.337 A  
BRANCH  13  16
HETATM   16  N   UNL     1     -13.522  11.906  71.342  1.00  0.00     0.110 NA 
HETATM   17  H   UNL     1     -14.533  11.847  71.214  1.00  0.00     0.000 HD 
BRANCH  16  18
HETATM   18  C   UNL     1     -12.975  13.177  71.420  1.00  0.00    -0.298 A  
HETATM   19  N   UNL     1     -13.084  13.819  72.593  1.00  0.00    -0.437 NA 
HETATM   20  C   UNL     1     -12.624  15.083  72.638  1.00  0.00    -0.370 A  
HETATM   21  C   UNL     1     -11.985  15.693  71.585  1.00  0.00    -0.430 A  
HETATM   22  F   UNL     1     -11.536  16.949  71.710  1.00  0.00    -0.415 F  
HETATM   23  C   UNL     1     -11.842  14.950  70.432  1.00  0.00    -0.300 A  
HETATM   24  N   UNL     1     -12.376  13.710  70.338  1.00  0.00    -0.351 NA 
BRANCH  23  25
HETATM   25  C   UNL     1     -11.078  15.395  69.243  1.00  0.00    -0.280 A  
HETATM   26  C   UNL     1     -11.491  15.028  67.949  1.00  0.00    -0.354 A  
HETATM   27  C   UNL     1     -10.810  15.464  66.814  1.00  0.00    -0.306 A  
HETATM   28  C   UNL     1      -9.687  16.288  66.940  1.00  0.00    -0.238 A  
HETATM   29  F   UNL     1     -11.253  15.079  65.607  1.00  0.00    -0.328 F  
HETATM   30  N   UNL     1      -8.876  16.820  65.981  1.00  0.00    -0.502 NA 
HETATM   31  C   UNL     1      -7.952  17.512  66.610  1.00  0.00    -0.253 A  
HETATM   32  N   UNL     1      -8.141  17.461  67.982  1.00  0.00    -0.220 NA 
HETATM   33  C   UNL     1      -6.865  18.220  65.887  1.00  0.00    -0.325 C  
HETATM   34  C   UNL     1      -9.946  16.244  69.374  1.00  0.00    -0.232 A  
HETATM   35  C   UNL     1      -9.264  16.672  68.212  1.00  0.00    -0.217 A  
BRANCH  32  36
HETATM   36  C   UNL     1      -7.307  18.029  69.044  1.00  0.00    -0.190 C  
HETATM   37  C   UNL     1      -7.161  19.556  69.043  1.00  0.00    -0.399 C  
HETATM   38  C   UNL     1      -5.928  17.370  69.078  1.00  0.00    -0.198 C  
ENDBRANCH  32  36
ENDBRANCH  23  25
ENDBRANCH  16  18
ENDBRANCH  13  16
ENDBRANCH   9  10
ENDBRANCH   6   9
ENDBRANCH   2   3
TORSDOF 7
ENDMDL
MODEL       19
REMARK 921   NORMALIZED FREE ENERGY PREDICTED BY IDOCK:   -7.30 KCAL/MOL
REMARK 922        TOTAL FREE ENERGY PREDICTED BY IDOCK:  -11.16 KCAL/MOL
REMARK 923 INTER-LIGAND FREE ENERGY PREDICTED BY IDOCK:  -10.14 KCAL/MOL
REMARK 924 INTRA-LIGAND FREE ENERGY PREDICTED BY IDOCK:   -1.02 KCAL/MOL
REMARK 927      BINDING AFFINITY PREDICTED BY RF-SCORE:    0.00 PKD
ROOT
HETATM    1  C   UNL     1      -5.747  21.108  67.888  1.00  0.00    -0.389 C  
HETATM    2  C   UNL     1      -7.080  20.880  67.184  1.00  0.00    -0.351 C  
ENDROOT
BRANCH   2   3
HETATM    3  N   UNL     1      -8.032  20.054  67.944  1.00  0.00    -0.293 NA 
HETATM    4  C   UNL     1      -9.415  20.310  67.475  1.00  0.00    -0.406 C  
HETATM    5  C   UNL     1      -9.780  19.621  66.136  1.00  0.00    -0.406 C  
HETATM    6  N   UNL     1      -9.515  18.164  66.102  1.00  0.00    -0.504 NA 
HETATM    7  C   UNL     1      -7.749  18.606  67.873  1.00  0.00    -0.256 C  
HETATM    8  C   UNL     1      -8.113  17.942  66.523  1.00  0.00    -0.272 C  
BRANCH   6   9
HETATM    9  C   UNL     1     -10.431  17.404  66.975  1.00  0.00    -0.284 C  
BRANCH   9  10
HETATM   10  C   UNL     1     -10.710  16.012  66.481  1.00  0.00    -0.238 A  
HETATM   11  C   UNL     1     -10.834  15.743  65.123  1.00  0.00    -0.444 A  
HETATM   12  C   UNL     1     -11.108  14.445  64.716  1.00  0.00    -0.402 A  
HETATM   13  C   UNL     1     -11.261  13.435  65.667  1.00  0.00    -0.292 A  
HETATM   14  N   UNL     1     -11.118  13.673  66.987  1.00  0.00    -0.296 NA 
HETATM   15  C   UNL     1     -10.858  14.946  67.363  1.00  0.00    -0.304 A  
BRANCH  13  16
HETATM   16  N   UNL     1     -11.490  12.120  65.277  1.00  0.00    -0.344 NA 
HETATM   17  H   UNL     1     -12.438  11.888  64.979  1.00  0.00     0.000 HD 
BRANCH  16  18
HETATM   18  C   UNL     1     -10.558  11.095  65.252  1.00  0.00    -0.238 A  
HETATM   19  N   UNL     1      -9.516  11.236  64.420  1.00  0.00    -0.211 NA 
HETATM   20  C   UNL     1      -8.658  10.201  64.341  1.00  0.00    -0.191 A  
HETATM   21  C   UNL     1      -8.758   9.075  65.122  1.00  0.00    -0.189 A  
HETATM   22  F   UNL     1      -7.856   8.092  65.001  1.00  0.00    -0.093 F  
HETATM   23  C   UNL     1      -9.814   9.027  66.009  1.00  0.00    -0.242 A  
HETATM   24  N   UNL     1     -10.736  10.017  66.040  1.00  0.00     0.044 NA 
BRANCH  23  25
HETATM   25  C   UNL     1     -10.012   7.954  67.011  1.00  0.00    -0.322 A  
HETATM   26  C   UNL     1     -10.109   6.609  66.608  1.00  0.00    -0.202 A  
HETATM   27  C   UNL     1     -10.259   5.578  67.534  1.00  0.00    -0.199 A  
HETATM   28  C   UNL     1     -10.314   5.863  68.902  1.00  0.00    -0.228 A  
HETATM   29  F   UNL     1     -10.346   4.315  67.087  1.00  0.00    -0.188 F  
HETATM   30  N   UNL     1     -10.461   5.026  69.969  1.00  0.00    -0.241 NA 
HETATM   31  C   UNL     1     -10.468   5.783  71.043  1.00  0.00    -0.244 A  
HETATM   32  N   UNL     1     -10.315   7.119  70.712  1.00  0.00    -0.206 NA 
HETATM   33  C   UNL     1     -10.638   5.218  72.406  1.00  0.00    -0.280 C  
HETATM   34  C   UNL     1     -10.054   8.245  68.401  1.00  0.00    -0.227 A  
HETATM   35  C   UNL     1     -10.212   7.188  69.325  1.00  0.00    -0.190 A  
BRANCH  32  36
HETATM   36  C   UNL     1     -10.337   8.291  71.591  1.00  0.00    -0.224 C  
HETATM   37  C   UNL     1      -9.331   8.285  72.748  1.00  0.00    -0.338 C  
HETATM   38  C   UNL     1     -11.747   8.558  72.121  1.00  0.00    -0.448 C  
ENDBRANCH  32  36
ENDBRANCH  23  25
ENDBRANCH  16  18
ENDBRANCH  13  16
ENDBRANCH   9  10
ENDBRANCH   6   9
ENDBRANCH   2   3
TORSDOF 7
ENDMDL
MODEL       20
REMARK 921   NORMALIZED FREE ENERGY PREDICTED BY IDOCK:   -7.24 KCAL/MOL
REMARK 922        TOTAL FREE ENERGY PREDICTED BY IDOCK:  -11.08 KCAL/MOL
REMARK 923 INTER-LIGAND FREE ENERGY PREDICTED BY IDOCK:  -10.30 KCAL/MOL
REMARK 924 INTRA-LIGAND FREE ENERGY PREDICTED BY IDOCK:   -0.78 KCAL/MOL
REMARK 927      BINDING AFFINITY PREDICTED BY RF-SCORE:    0.00 PKD
ROOT
HETATM    1  C   UNL     1      -5.241  21.090  68.891  1.00  0.00    -0.354 C  
HETATM    2  C   UNL     1      -5.148  20.287  67.598  1.00  0.00    -0.181 C  
ENDROOT
BRANCH   2   3
HETATM    3  N   UNL     1      -5.392  18.845  67.763  1.00  0.00    -0.169 NA 
HETATM    4  C   UNL     1      -6.643  18.624  68.527  1.00  0.00    -0.236 C  
HETATM    5  C   UNL     1      -7.943  18.820  67.707  1.00  0.00    -0.254 C  
HETATM    6  N   UNL     1      -7.998  18.044  66.446  1.00  0.00    -0.298 NA 
HETATM    7  C   UNL     1      -5.459  18.105  66.487  1.00  0.00    -0.152 C  
HETATM    8  C   UNL     1      -6.762  18.323  65.681  1.00  0.00    -0.256 C  
BRANCH   6   9
HETATM    9  C   UNL     1      -8.127  16.592  66.684  1.00  0.00    -0.278 C  
BRANCH   9  10
HETATM   10  C   UNL     1      -9.299  16.231  67.552  1.00  0.00    -0.217 A  
HETATM   11  C   UNL     1     -10.579  16.117  67.021  1.00  0.00    -0.292 A  
HETATM   12  C   UNL     1     -11.633  15.798  67.865  1.00  0.00    -0.153 A  
HETATM   13  C   UNL     1     -11.399  15.604  69.228  1.00  0.00    -0.345 A  
HETATM   14  N   UNL     1     -10.160  15.686  69.756  1.00  0.00    -0.284 NA 
HETATM   15  C   UNL     1      -9.148  16.004  68.916  1.00  0.00    -0.235 A  
BRANCH  13  16
HETATM   16  N   UNL     1     -12.434  15.240  70.082  1.00  0.00    -0.514 NA 
HETATM   17  H   UNL     1     -13.094  15.973  70.343  1.00  0.00     0.000 HD 
BRANCH  16  18
HETATM   18  C   UNL     1     -12.657  13.979  70.612  1.00  0.00    -0.344 A  
HETATM   19  N   UNL     1     -13.503  13.892  71.649  1.00  0.00    -0.357 NA 
HETATM   20  C   UNL     1     -13.652  12.677  72.211  1.00  0.00    -0.409 A  
HETATM   21  C   UNL     1     -13.056  11.540  71.723  1.00  0.00    -0.398 A  
HETATM   22  F   UNL     1     -13.265  10.361  72.324  1.00  0.00    -0.522 F  
HETATM   23  C   UNL     1     -12.254  11.689  70.609  1.00  0.00    -0.366 A  
HETATM   24  N   UNL     1     -12.023  12.915  70.084  1.00  0.00    -0.337 NA 
BRANCH  23  25
HETATM   25  C   UNL     1     -11.631  10.563  69.875  1.00  0.00    -0.384 A  
HETATM   26  C   UNL     1     -11.387  10.661  68.492  1.00  0.00    -0.348 A  
HETATM   27  C   UNL     1     -10.769   9.631  67.786  1.00  0.00    -0.257 A  
HETATM   28  C   UNL     1     -10.373   8.463  68.446  1.00  0.00    -0.200 A  
HETATM   29  F   UNL     1     -10.563   9.783  66.468  1.00  0.00    -0.293 F  
HETATM   30  N   UNL     1      -9.767   7.341  67.960  1.00  0.00    -0.139 NA 
HETATM   31  C   UNL     1      -9.619   6.523  68.978  1.00  0.00    -0.132 A  
HETATM   32  N   UNL     1     -10.107   7.087  70.146  1.00  0.00    -0.186 NA 
HETATM   33  C   UNL     1      -9.013   5.175  68.826  1.00  0.00    -0.120 C  
HETATM   34  C   UNL     1     -11.218   9.384  70.551  1.00  0.00    -0.329 A  
HETATM   35  C   UNL     1     -10.598   8.347  69.817  1.00  0.00    -0.221 A  
BRANCH  32  36
HETATM   36  C   UNL     1     -10.200   6.494  71.482  1.00  0.00    -0.192 C  
HETATM   37  C   UNL     1     -11.616   6.280  72.028  1.00  0.00    -0.372 C  
HETATM   38  C   UNL     1      -9.358   7.273  72.493  1.00  0.00    -0.174 C  
ENDBRANCH  32  36
ENDBRANCH  23  25
ENDBRANCH  16  18
ENDBRANCH  13  16
ENDBRANCH   9  10
ENDBRANCH   6   9
ENDBRANCH   2   3
TORSDOF 7
ENDMDL
MODEL       21
REMARK 921   NORMALIZED FREE ENERGY PREDICTED BY IDOCK:   -7.24 KCAL/MOL
REMARK 922        TOTAL FREE ENERGY PREDICTED BY IDOCK:  -11.07 KCAL/MOL
REMARK 923 INTER-LIGAND FREE ENERGY PREDICTED BY IDOCK:  -10.28 KCAL/MOL
REMARK 924 INTRA-LIGAND FREE ENERGY PREDICTED BY IDOCK:   -0.79 KCAL/MOL
REMARK 927      BINDING AFFINITY PREDICTED BY RF-SCORE:    0.00 PKD
ROOT
HETATM    1  C   UNL     1      -5.385  21.178  67.549  1.00  0.00    -0.327 C  
HETATM    2  C   UNL     1      -6.756  20.966  66.917  1.00  0.00    -0.316 C  
ENDROOT
BRANCH   2   3
HETATM    3  N   UNL     1      -7.742  20.338  67.811  1.00  0.00    -0.286 NA 
HETATM    4  C   UNL     1      -9.117  20.647  67.349  1.00  0.00    -0.259 C  
HETATM    5  C   UNL     1      -9.589  19.817  66.129  1.00  0.00    -0.398 C  
HETATM    6  N   UNL     1      -9.448  18.351  66.291  1.00  0.00    -0.449 NA 
HETATM    7  C   UNL     1      -7.583  18.874  67.934  1.00  0.00    -0.259 C  
HETATM    8  C   UNL     1      -8.054  18.067  66.701  1.00  0.00    -0.260 C  
BRANCH   6   9
HETATM    9  C   UNL     1     -10.389  17.800  67.287  1.00  0.00    -0.363 C  
BRANCH   9  10
HETATM   10  C   UNL     1     -10.781  16.375  67.014  1.00  0.00    -0.217 A  
HETATM   11  C   UNL     1     -11.237  15.547  68.034  1.00  0.00    -0.332 A  
HETATM   12  C   UNL     1     -11.571  14.234  67.737  1.00  0.00    -0.383 A  
HETATM   13  C   UNL     1     -11.440  13.761  66.429  1.00  0.00    -0.336 A  
HETATM   14  N   UNL     1     -11.023  14.557  65.423  1.00  0.00    -0.323 NA 
HETATM   15  C   UNL     1     -10.696  15.832  65.736  1.00  0.00    -0.327 A  
BRANCH  13  16
HETATM   16  N   UNL     1     -11.812  12.462  66.103  1.00  0.00    -0.540 NA 
HETATM   17  H   UNL     1     -12.799  12.304  65.896  1.00  0.00     0.000 HD 
BRANCH  16  18
HETATM   18  C   UNL     1     -10.975  11.360  66.032  1.00  0.00    -0.226 A  
HETATM   19  N   UNL     1     -10.439  11.075  64.836  1.00  0.00    -0.314 NA 
HETATM   20  C   UNL     1      -9.693   9.957  64.756  1.00  0.00    -0.235 A  
HETATM   21  C   UNL     1      -9.394   9.168  65.841  1.00  0.00    -0.243 A  
HETATM   22  F   UNL     1      -8.629   8.079  65.688  1.00  0.00    -0.130 F  
HETATM   23  C   UNL     1      -9.919   9.560  67.055  1.00  0.00    -0.213 A  
HETATM   24  N   UNL     1     -10.743  10.630  67.140  1.00  0.00    -0.268 NA 
BRANCH  23  25
HETATM   25  C   UNL     1      -9.605   8.906  68.347  1.00  0.00    -0.157 A  
HETATM   26  C   UNL     1      -8.336   8.341  68.573  1.00  0.00    -0.129 A  
HETATM   27  C   UNL     1      -8.005   7.752  69.792  1.00  0.00    -0.115 A  
HETATM   28  C   UNL     1      -8.940   7.712  70.831  1.00  0.00    -0.148 A  
HETATM   29  F   UNL     1      -6.778   7.231  69.946  1.00  0.00    -0.045 F  
HETATM   30  N   UNL     1      -8.836   7.188  72.086  1.00  0.00    -0.128 NA 
HETATM   31  C   UNL     1      -9.994   7.390  72.675  1.00  0.00    -0.194 A  
HETATM   32  N   UNL     1     -10.872   8.055  71.834  1.00  0.00    -0.242 NA 
HETATM   33  C   UNL     1     -10.268   6.926  74.059  1.00  0.00    -0.384 C  
HETATM   34  C   UNL     1     -10.553   8.878  69.406  1.00  0.00    -0.226 A  
HETATM   35  C   UNL     1     -10.202   8.272  70.633  1.00  0.00    -0.193 A  
BRANCH  32  36
HETATM   36  C   UNL     1     -12.273   8.410  72.066  1.00  0.00    -0.362 C  
HETATM   37  C   UNL     1     -13.319   7.453  71.481  1.00  0.00    -0.435 C  
HETATM   38  C   UNL     1     -12.563   9.843  71.616  1.00  0.00    -0.519 C  
ENDBRANCH  32  36
ENDBRANCH  23  25
ENDBRANCH  16  18
ENDBRANCH  13  16
ENDBRANCH   9  10
ENDBRANCH   6   9
ENDBRANCH   2   3
TORSDOF 7
ENDMDL
MODEL       22
REMARK 921   NORMALIZED FREE ENERGY PREDICTED BY IDOCK:   -7.20 KCAL/MOL
REMARK 922        TOTAL FREE ENERGY PREDICTED BY IDOCK:  -11.03 KCAL/MOL
REMARK 923 INTER-LIGAND FREE ENERGY PREDICTED BY IDOCK:  -10.12 KCAL/MOL
REMARK 924 INTRA-LIGAND FREE ENERGY PREDICTED BY IDOCK:   -0.91 KCAL/MOL
REMARK 927      BINDING AFFINITY PREDICTED BY RF-SCORE:    0.00 PKD
ROOT
HETATM    1  C   UNL     1      -8.106   2.440  70.907  1.00  0.00    -0.059 C  
HETATM    2  C   UNL     1      -8.395   2.754  72.370  1.00  0.00    -0.066 C  
ENDROOT
BRANCH   2   3
HETATM    3  N   UNL     1      -8.172   4.161  72.742  1.00  0.00    -0.095 NA 
HETATM    4  C   UNL     1      -8.815   5.056  71.751  1.00  0.00    -0.133 C  
HETATM    5  C   UNL     1     -10.351   5.188  71.901  1.00  0.00    -0.212 C  
HETATM    6  N   UNL     1     -10.807   5.559  73.261  1.00  0.00    -0.274 NA 
HETATM    7  C   UNL     1      -8.655   4.500  74.097  1.00  0.00    -0.104 C  
HETATM    8  C   UNL     1     -10.193   4.616  74.224  1.00  0.00    -0.237 C  
BRANCH   6   9
HETATM    9  C   UNL     1     -10.451   6.947  73.616  1.00  0.00    -0.369 C  
BRANCH   9  10
HETATM   10  C   UNL     1     -10.912   7.959  72.606  1.00  0.00    -0.440 A  
HETATM   11  C   UNL     1     -12.257   8.080  72.272  1.00  0.00    -0.366 A  
HETATM   12  C   UNL     1     -12.633   9.017  71.321  1.00  0.00    -0.336 A  
HETATM   13  C   UNL     1     -11.664   9.816  70.710  1.00  0.00    -0.328 A  
HETATM   14  N   UNL     1     -10.359   9.730  71.040  1.00  0.00    -0.216 NA 
HETATM   15  C   UNL     1     -10.013   8.805  71.964  1.00  0.00    -0.321 A  
BRANCH  13  16
HETATM   16  N   UNL     1     -12.026  10.792  69.788  1.00  0.00    -0.337 NA 
HETATM   17  H   UNL     1     -12.280  10.470  68.853  1.00  0.00     0.000 HD 
BRANCH  16  18
HETATM   18  C   UNL     1     -12.077  12.158  70.014  1.00  0.00    -0.277 A  
HETATM   19  N   UNL     1     -12.663  12.570  71.148  1.00  0.00    -0.317 NA 
HETATM   20  C   UNL     1     -12.781  13.900  71.322  1.00  0.00    -0.367 A  
HETATM   21  C   UNL     1     -12.262  14.826  70.450  1.00  0.00    -0.336 A  
HETATM   22  F   UNL     1     -12.403  16.135  70.698  1.00  0.00    -0.387 F  
HETATM   23  C   UNL     1     -11.608  14.333  69.339  1.00  0.00    -0.306 A  
HETATM   24  N   UNL     1     -11.555  13.002  69.102  1.00  0.00    -0.298 NA 
BRANCH  23  25
HETATM   25  C   UNL     1     -10.882  15.174  68.359  1.00  0.00    -0.255 A  
HETATM   26  C   UNL     1     -11.272  15.192  67.007  1.00  0.00    -0.308 A  
HETATM   27  C   UNL     1     -10.630  16.002  66.072  1.00  0.00    -0.316 A  
HETATM   28  C   UNL     1      -9.570  16.826  66.465  1.00  0.00    -0.266 A  
HETATM   29  F   UNL     1     -11.048  15.975  64.797  1.00  0.00    -0.414 F  
HETATM   30  N   UNL     1      -8.803  17.682  65.730  1.00  0.00    -0.426 NA 
HETATM   31  C   UNL     1      -7.931  18.211  66.559  1.00  0.00    -0.262 A  
HETATM   32  N   UNL     1      -8.110  17.730  67.845  1.00  0.00    -0.230 NA 
HETATM   33  C   UNL     1      -6.901  19.182  66.107  1.00  0.00    -0.254 C  
HETATM   34  C   UNL     1      -9.815  16.020  68.764  1.00  0.00    -0.223 A  
HETATM   35  C   UNL     1      -9.171  16.831  67.802  1.00  0.00    -0.222 A  
BRANCH  32  36
HETATM   36  C   UNL     1      -7.316  18.003  69.046  1.00  0.00    -0.190 C  
HETATM   37  C   UNL     1      -6.985  19.476  69.315  1.00  0.00    -0.385 C  
HETATM   38  C   UNL     1      -6.037  17.165  69.066  1.00  0.00    -0.185 C  
ENDBRANCH  32  36
ENDBRANCH  23  25
ENDBRANCH  16  18
ENDBRANCH  13  16
ENDBRANCH   9  10
ENDBRANCH   6   9
ENDBRANCH   2   3
TORSDOF 7
ENDMDL
MODEL       23
REMARK 921   NORMALIZED FREE ENERGY PREDICTED BY IDOCK:   -7.19 KCAL/MOL
REMARK 922        TOTAL FREE ENERGY PREDICTED BY IDOCK:  -11.01 KCAL/MOL
REMARK 923 INTER-LIGAND FREE ENERGY PREDICTED BY IDOCK:  -10.73 KCAL/MOL
REMARK 924 INTRA-LIGAND FREE ENERGY PREDICTED BY IDOCK:   -0.27 KCAL/MOL
REMARK 927      BINDING AFFINITY PREDICTED BY RF-SCORE:    0.00 PKD
ROOT
HETATM    1  C   UNL     1      -5.659   4.354  72.111  1.00  0.00    -0.008 C  
HETATM    2  C   UNL     1      -7.178   4.450  72.184  1.00  0.00    -0.062 C  
ENDROOT
BRANCH   2   3
HETATM    3  N   UNL     1      -7.790   5.215  71.085  1.00  0.00    -0.099 NA 
HETATM    4  C   UNL     1      -9.120   4.653  70.753  1.00  0.00    -0.130 C  
HETATM    5  C   UNL     1     -10.249   5.038  71.741  1.00  0.00    -0.207 C  
HETATM    6  N   UNL     1     -10.382   6.493  71.987  1.00  0.00    -0.198 NA 
HETATM    7  C   UNL     1      -7.924   6.658  71.371  1.00  0.00    -0.107 C  
HETATM    8  C   UNL     1      -9.052   7.018  72.368  1.00  0.00    -0.132 C  
BRANCH   6   9
HETATM    9  C   UNL     1     -10.893   7.219  70.806  1.00  0.00    -0.241 C  
BRANCH   9  10
HETATM   10  C   UNL     1     -11.655   8.466  71.155  1.00  0.00    -0.317 A  
HETATM   11  C   UNL     1     -12.781   8.415  71.971  1.00  0.00    -0.399 A  
HETATM   12  C   UNL     1     -13.462   9.590  72.252  1.00  0.00    -0.521 A  
HETATM   13  C   UNL     1     -13.018  10.799  71.712  1.00  0.00    -0.463 A  
HETATM   14  N   UNL     1     -11.914  10.870  70.940  1.00  0.00    -0.329 NA 
HETATM   15  C   UNL     1     -11.269   9.711  70.673  1.00  0.00    -0.320 A  
BRANCH  13  16
HETATM   16  N   UNL     1     -13.661  11.993  72.019  1.00  0.00    -0.324 NA 
HETATM   17  H   UNL     1     -14.639  11.929  72.301  1.00  0.00     0.000 HD 
BRANCH  16  18
HETATM   18  C   UNL     1     -13.103  13.260  71.978  1.00  0.00    -0.377 A  
HETATM   19  N   UNL     1     -13.304  14.052  73.042  1.00  0.00    -0.616 NA 
HETATM   20  C   UNL     1     -12.830  15.309  72.962  1.00  0.00    -0.469 A  
HETATM   21  C   UNL     1     -12.091  15.773  71.899  1.00  0.00    -0.465 A  
HETATM   22  F   UNL     1     -11.636  17.032  71.897  1.00  0.00    -0.357 F  
HETATM   23  C   UNL     1     -11.860  14.883  70.870  1.00  0.00    -0.321 A  
HETATM   24  N   UNL     1     -12.403  13.643  70.893  1.00  0.00    -0.366 NA 
BRANCH  23  25
HETATM   25  C   UNL     1     -10.987  15.165  69.707  1.00  0.00    -0.293 A  
HETATM   26  C   UNL     1     -10.711  14.159  68.761  1.00  0.00    -0.265 A  
HETATM   27  C   UNL     1      -9.923  14.409  67.639  1.00  0.00    -0.224 A  
HETATM   28  C   UNL     1      -9.384  15.682  67.427  1.00  0.00    -0.210 A  
HETATM   29  F   UNL     1      -9.696  13.409  66.773  1.00  0.00    -0.231 F  
HETATM   30  N   UNL     1      -8.591  16.143  66.417  1.00  0.00    -0.304 NA 
HETATM   31  C   UNL     1      -8.341  17.406  66.681  1.00  0.00    -0.263 A  
HETATM   32  N   UNL     1      -8.968  17.803  67.851  1.00  0.00    -0.250 NA 
HETATM   33  C   UNL     1      -7.478  18.240  65.806  1.00  0.00    -0.126 C  
HETATM   34  C   UNL     1     -10.452  16.462  69.486  1.00  0.00    -0.301 A  
HETATM   35  C   UNL     1      -9.650  16.696  68.347  1.00  0.00    -0.233 A  
BRANCH  32  36
HETATM   36  C   UNL     1      -8.896  19.096  68.537  1.00  0.00    -0.367 C  
HETATM   37  C   UNL     1      -9.430  20.304  67.758  1.00  0.00    -0.453 C  
HETATM   38  C   UNL     1      -7.479  19.378  69.038  1.00  0.00    -0.385 C  
ENDBRANCH  32  36
ENDBRANCH  23  25
ENDBRANCH  16  18
ENDBRANCH  13  16
ENDBRANCH   9  10
ENDBRANCH   6   9
ENDBRANCH   2   3
TORSDOF 7
ENDMDL
MODEL       24
REMARK 921   NORMALIZED FREE ENERGY PREDICTED BY IDOCK:   -7.15 KCAL/MOL
REMARK 922        TOTAL FREE ENERGY PREDICTED BY IDOCK:  -10.95 KCAL/MOL
REMARK 923 INTER-LIGAND FREE ENERGY PREDICTED BY IDOCK:  -10.44 KCAL/MOL
REMARK 924 INTRA-LIGAND FREE ENERGY PREDICTED BY IDOCK:   -0.51 KCAL/MOL
REMARK 927      BINDING AFFINITY PREDICTED BY RF-SCORE:    0.00 PKD
ROOT
HETATM    1  C   UNL     1     -10.168   4.493  74.450  1.00  0.00    -0.282 C  
HETATM    2  C   UNL     1     -10.458   4.258  72.972  1.00  0.00    -0.180 C  
ENDROOT
BRANCH   2   3
HETATM    3  N   UNL     1      -9.331   4.568  72.078  1.00  0.00    -0.135 NA 
HETATM    4  C   UNL     1      -9.704   4.283  70.672  1.00  0.00    -0.204 C  
HETATM    5  C   UNL     1     -10.611   5.354  70.015  1.00  0.00    -0.284 C  
HETATM    6  N   UNL     1     -10.095   6.739  70.111  1.00  0.00    -0.177 NA 
HETATM    7  C   UNL     1      -8.855   5.962  72.186  1.00  0.00    -0.136 C  
HETATM    8  C   UNL     1      -9.781   7.014  71.531  1.00  0.00    -0.165 C  
BRANCH   6   9
HETATM    9  C   UNL     1      -8.895   6.953  69.277  1.00  0.00    -0.138 C  
BRANCH   9  10
HETATM   10  C   UNL     1      -9.134   7.870  68.111  1.00  0.00    -0.133 A  
HETATM   11  C   UNL     1     -10.423   8.172  67.686  1.00  0.00    -0.300 A  
HETATM   12  C   UNL     1     -10.593   9.011  66.594  1.00  0.00    -0.158 A  
HETATM   13  C   UNL     1      -9.477   9.531  65.935  1.00  0.00    -0.244 A  
HETATM   14  N   UNL     1      -8.221   9.268  66.349  1.00  0.00    -0.110 NA 
HETATM   15  C   UNL     1      -8.077   8.443  67.412  1.00  0.00    -0.106 A  
BRANCH  13  16
HETATM   16  N   UNL     1      -9.628  10.408  64.867  1.00  0.00    -0.262 NA 
HETATM   17  H   UNL     1      -9.078  10.213  64.031  1.00  0.00     0.000 HD 
BRANCH  16  18
HETATM   18  C   UNL     1     -10.452  11.522  64.828  1.00  0.00    -0.299 A  
HETATM   19  N   UNL     1     -11.239  11.664  63.751  1.00  0.00    -0.409 NA 
HETATM   20  C   UNL     1     -11.976  12.788  63.682  1.00  0.00    -0.539 A  
HETATM   21  C   UNL     1     -12.020  13.727  64.684  1.00  0.00    -0.416 A  
HETATM   22  F   UNL     1     -12.792  14.814  64.553  1.00  0.00    -0.403 F  
HETATM   23  C   UNL     1     -11.241  13.483  65.797  1.00  0.00    -0.297 A  
HETATM   24  N   UNL     1     -10.427  12.403  65.847  1.00  0.00    -0.250 NA 
BRANCH  23  25
HETATM   25  C   UNL     1     -11.253  14.316  67.021  1.00  0.00    -0.332 A  
HETATM   26  C   UNL     1     -10.906  15.679  66.962  1.00  0.00    -0.294 A  
HETATM   27  C   UNL     1     -10.946  16.493  68.092  1.00  0.00    -0.336 A  
HETATM   28  C   UNL     1     -11.338  15.965  69.327  1.00  0.00    -0.355 A  
HETATM   29  F   UNL     1     -10.603  17.785  67.971  1.00  0.00    -0.346 F  
HETATM   30  N   UNL     1     -11.441  16.566  70.547  1.00  0.00    -0.144 NA 
HETATM   31  C   UNL     1     -11.836  15.639  71.391  1.00  0.00    -0.421 A  
HETATM   32  N   UNL     1     -12.012  14.424  70.749  1.00  0.00    -0.316 NA 
HETATM   33  C   UNL     1     -12.035  15.920  72.836  1.00  0.00    -0.609 C  
HETATM   34  C   UNL     1     -11.665  13.781  68.271  1.00  0.00    -0.394 A  
HETATM   35  C   UNL     1     -11.694  14.619  69.408  1.00  0.00    -0.316 A  
BRANCH  32  36
HETATM   36  C   UNL     1     -12.373  13.126  71.326  1.00  0.00    -0.125 C  
HETATM   37  C   UNL     1     -12.339  11.929  70.368  1.00  0.00    -0.334 C  
HETATM   38  C   UNL     1     -13.726  13.193  72.035  1.00  0.00    -0.486 C  
ENDBRANCH  32  36
ENDBRANCH  23  25
ENDBRANCH  16  18
ENDBRANCH  13  16
ENDBRANCH   9  10
ENDBRANCH   6   9
ENDBRANCH   2   3
TORSDOF 7
ENDMDL
MODEL       25
REMARK 921   NORMALIZED FREE ENERGY PREDICTED BY IDOCK:   -7.13 KCAL/MOL
REMARK 922        TOTAL FREE ENERGY PREDICTED BY IDOCK:  -10.92 KCAL/MOL
REMARK 923 INTER-LIGAND FREE ENERGY PREDICTED BY IDOCK:  -10.23 KCAL/MOL
REMARK 924 INTRA-LIGAND FREE ENERGY PREDICTED BY IDOCK:   -0.69 KCAL/MOL
REMARK 927      BINDING AFFINITY PREDICTED BY RF-SCORE:    0.00 PKD
ROOT
HETATM    1  C   UNL     1      -5.520  21.376  67.132  1.00  0.00    -0.382 C  
HETATM    2  C   UNL     1      -6.857  20.816  67.603  1.00  0.00    -0.336 C  
ENDROOT
BRANCH   2   3
HETATM    3  N   UNL     1      -7.737  20.358  66.515  1.00  0.00    -0.233 NA 
HETATM    4  C   UNL     1      -7.383  18.973  66.123  1.00  0.00    -0.270 C  
HETATM    5  C   UNL     1      -7.894  17.877  67.092  1.00  0.00    -0.208 C  
HETATM    6  N   UNL     1      -9.344  17.944  67.387  1.00  0.00    -0.255 NA 
HETATM    7  C   UNL     1      -9.175  20.421  66.850  1.00  0.00    -0.319 C  
HETATM    8  C   UNL     1      -9.660  19.323  67.826  1.00  0.00    -0.318 C  
BRANCH   6   9
HETATM    9  C   UNL     1     -10.174  17.584  66.220  1.00  0.00    -0.355 C  
BRANCH   9  10
HETATM   10  C   UNL     1     -10.637  16.154  66.235  1.00  0.00    -0.276 A  
HETATM   11  C   UNL     1     -11.096  15.560  67.406  1.00  0.00    -0.285 A  
HETATM   12  C   UNL     1     -11.497  14.232  67.374  1.00  0.00    -0.368 A  
HETATM   13  C   UNL     1     -11.430  13.513  66.179  1.00  0.00    -0.325 A  
HETATM   14  N   UNL     1     -11.011  14.080  65.030  1.00  0.00    -0.353 NA 
HETATM   15  C   UNL     1     -10.618  15.374  65.084  1.00  0.00    -0.434 A  
BRANCH  13  16
HETATM   16  N   UNL     1     -11.869  12.195  66.118  1.00  0.00    -0.582 NA 
HETATM   17  H   UNL     1     -12.825  12.044  65.795  1.00  0.00     0.000 HD 
BRANCH  16  18
HETATM   18  C   UNL     1     -11.137  11.068  66.453  1.00  0.00    -0.068 A  
HETATM   19  N   UNL     1     -10.273  10.605  65.537  1.00  0.00    -0.271 NA 
HETATM   20  C   UNL     1      -9.624   9.464  65.836  1.00  0.00    -0.270 A  
HETATM   21  C   UNL     1      -9.744   8.820  67.044  1.00  0.00    -0.198 A  
HETATM   22  F   UNL     1      -9.053   7.697  67.278  1.00  0.00    -0.123 F  
HETATM   23  C   UNL     1     -10.596   9.390  67.968  1.00  0.00    -0.226 A  
HETATM   24  N   UNL     1     -11.322  10.487  67.654  1.00  0.00    -0.424 NA 
BRANCH  23  25
HETATM   25  C   UNL     1     -10.758   8.907  69.360  1.00  0.00    -0.192 A  
HETATM   26  C   UNL     1     -11.482   9.665  70.299  1.00  0.00    -0.288 A  
HETATM   27  C   UNL     1     -11.679   9.216  71.603  1.00  0.00    -0.378 A  
HETATM   28  C   UNL     1     -11.155   7.985  72.011  1.00  0.00    -0.293 A  
HETATM   29  F   UNL     1     -12.379   9.985  72.453  1.00  0.00    -0.321 F  
HETATM   30  N   UNL     1     -11.219   7.361  73.222  1.00  0.00    -0.267 NA 
HETATM   31  C   UNL     1     -10.558   6.232  73.099  1.00  0.00    -0.250 A  
HETATM   32  N   UNL     1     -10.060   6.084  71.814  1.00  0.00    -0.185 NA 
HETATM   33  C   UNL     1     -10.389   5.287  74.233  1.00  0.00    -0.308 C  
HETATM   34  C   UNL     1     -10.236   7.650  69.767  1.00  0.00    -0.210 A  
HETATM   35  C   UNL     1     -10.441   7.213  71.095  1.00  0.00    -0.210 A  
BRANCH  32  36
HETATM   36  C   UNL     1      -9.215   5.016  71.275  1.00  0.00    -0.145 C  
HETATM   37  C   UNL     1      -9.862   3.629  71.174  1.00  0.00    -0.200 C  
HETATM   38  C   UNL     1      -7.890   4.922  72.034  1.00  0.00    -0.108 C  
ENDBRANCH  32  36
ENDBRANCH  23  25
ENDBRANCH  16  18
ENDBRANCH  13  16
ENDBRANCH   9  10
ENDBRANCH   6   9
ENDBRANCH   2   3
TORSDOF 7
ENDMDL
MODEL       26
REMARK 921   NORMALIZED FREE ENERGY PREDICTED BY IDOCK:   -7.10 KCAL/MOL
REMARK 922        TOTAL FREE ENERGY PREDICTED BY IDOCK:  -10.88 KCAL/MOL
REMARK 923 INTER-LIGAND FREE ENERGY PREDICTED BY IDOCK:   -9.93 KCAL/MOL
REMARK 924 INTRA-LIGAND FREE ENERGY PREDICTED BY IDOCK:   -0.95 KCAL/MOL
REMARK 927      BINDING AFFINITY PREDICTED BY RF-SCORE:    0.00 PKD
ROOT
HETATM    1  C   UNL     1      -6.223  20.847  68.019  1.00  0.00    -0.389 C  
HETATM    2  C   UNL     1      -7.464  20.113  67.522  1.00  0.00    -0.297 C  
ENDROOT
BRANCH   2   3
HETATM    3  N   UNL     1      -8.168  19.344  68.561  1.00  0.00    -0.351 NA 
HETATM    4  C   UNL     1      -9.610  19.686  68.558  1.00  0.00    -0.382 C  
HETATM    5  C   UNL     1     -10.427  19.026  67.418  1.00  0.00    -0.457 C  
HETATM    6  N   UNL     1     -10.275  17.556  67.324  1.00  0.00    -0.324 NA 
HETATM    7  C   UNL     1      -8.010  17.882  68.426  1.00  0.00    -0.298 C  
HETATM    8  C   UNL     1      -8.827  17.247  67.276  1.00  0.00    -0.222 C  
BRANCH   6   9
HETATM    9  C   UNL     1     -10.905  16.850  68.457  1.00  0.00    -0.335 C  
BRANCH   9  10
HETATM   10  C   UNL     1     -11.170  15.397  68.183  1.00  0.00    -0.326 A  
HETATM   11  C   UNL     1     -10.983  14.434  69.169  1.00  0.00    -0.288 A  
HETATM   12  C   UNL     1     -11.225  13.102  68.864  1.00  0.00    -0.324 A  
HETATM   13  C   UNL     1     -11.642  12.747  67.579  1.00  0.00    -0.356 A  
HETATM   14  N   UNL     1     -11.852  13.670  66.619  1.00  0.00    -0.385 NA 
HETATM   15  C   UNL     1     -11.604  14.962  66.935  1.00  0.00    -0.277 A  
BRANCH  13  16
HETATM   16  N   UNL     1     -11.933  11.423  67.267  1.00  0.00    -0.471 NA 
HETATM   17  H   UNL     1     -12.919  11.162  67.244  1.00  0.00     0.000 HD 
BRANCH  16  18
HETATM   18  C   UNL     1     -11.014  10.425  66.985  1.00  0.00    -0.154 A  
HETATM   19  N   UNL     1     -10.148  10.654  65.988  1.00  0.00    -0.241 NA 
HETATM   20  C   UNL     1      -9.313   9.648  65.666  1.00  0.00    -0.237 A  
HETATM   21  C   UNL     1      -9.256   8.462  66.358  1.00  0.00    -0.201 A  
HETATM   22  F   UNL     1      -8.385   7.512  65.991  1.00  0.00    -0.108 F  
HETATM   23  C   UNL     1     -10.126   8.321  67.419  1.00  0.00    -0.233 A  
HETATM   24  N   UNL     1     -11.032   9.285  67.703  1.00  0.00    -0.120 NA 
BRANCH  23  25
HETATM   25  C   UNL     1     -10.123   7.168  68.350  1.00  0.00    -0.182 A  
HETATM   26  C   UNL     1      -9.947   5.859  67.866  1.00  0.00    -0.157 A  
HETATM   27  C   UNL     1      -9.904   4.762  68.724  1.00  0.00    -0.148 A  
HETATM   28  C   UNL     1     -10.036   4.943  70.105  1.00  0.00    -0.261 A  
HETATM   29  F   UNL     1      -9.733   3.538  68.201  1.00  0.00    -0.233 F  
HETATM   30  N   UNL     1     -10.032   4.027  71.116  1.00  0.00    -0.167 NA 
HETATM   31  C   UNL     1     -10.205   4.698  72.233  1.00  0.00    -0.193 A  
HETATM   32  N   UNL     1     -10.313   6.057  71.985  1.00  0.00    -0.198 NA 
HETATM   33  C   UNL     1     -10.281   4.026  73.555  1.00  0.00    -0.210 C  
HETATM   34  C   UNL     1     -10.244   7.357  69.753  1.00  0.00    -0.210 A  
HETATM   35  C   UNL     1     -10.204   6.233  70.609  1.00  0.00    -0.194 A  
BRANCH  32  36
HETATM   36  C   UNL     1     -10.581   7.143  72.931  1.00  0.00    -0.281 C  
HETATM   37  C   UNL     1     -11.823   7.996  72.646  1.00  0.00    -0.380 C  
HETATM   38  C   UNL     1      -9.355   8.042  73.103  1.00  0.00    -0.346 C  
ENDBRANCH  32  36
ENDBRANCH  23  25
ENDBRANCH  16  18
ENDBRANCH  13  16
ENDBRANCH   9  10
ENDBRANCH   6   9
ENDBRANCH   2   3
TORSDOF 7
ENDMDL
MODEL       27
REMARK 921   NORMALIZED FREE ENERGY PREDICTED BY IDOCK:   -7.00 KCAL/MOL
REMARK 922        TOTAL FREE ENERGY PREDICTED BY IDOCK:  -10.73 KCAL/MOL
REMARK 923 INTER-LIGAND FREE ENERGY PREDICTED BY IDOCK:  -10.13 KCAL/MOL
REMARK 924 INTRA-LIGAND FREE ENERGY PREDICTED BY IDOCK:   -0.60 KCAL/MOL
REMARK 927      BINDING AFFINITY PREDICTED BY RF-SCORE:    0.00 PKD
ROOT
HETATM    1  C   UNL     1      -5.963  20.862  66.913  1.00  0.00    -0.301 C  
HETATM    2  C   UNL     1      -7.475  20.919  67.098  1.00  0.00    -0.274 C  
ENDROOT
BRANCH   2   3
HETATM    3  N   UNL     1      -8.201  19.793  66.486  1.00  0.00    -0.320 NA 
HETATM    4  C   UNL     1      -7.784  18.517  67.115  1.00  0.00    -0.225 C  
HETATM    5  C   UNL     1      -8.406  18.251  68.509  1.00  0.00    -0.310 C  
HETATM    6  N   UNL     1      -9.883  18.357  68.554  1.00  0.00    -0.359 NA 
HETATM    7  C   UNL     1      -9.670  19.923  66.565  1.00  0.00    -0.433 C  
HETATM    8  C   UNL     1     -10.268  19.662  67.969  1.00  0.00    -0.457 C  
BRANCH   6   9
HETATM    9  C   UNL     1     -10.549  17.260  67.824  1.00  0.00    -0.367 C  
BRANCH   9  10
HETATM   10  C   UNL     1     -11.116  16.200  68.726  1.00  0.00    -0.354 A  
HETATM   11  C   UNL     1     -11.745  15.074  68.205  1.00  0.00    -0.338 A  
HETATM   12  C   UNL     1     -12.268  14.131  69.078  1.00  0.00    -0.274 A  
HETATM   13  C   UNL     1     -12.163  14.325  70.457  1.00  0.00    -0.356 A  
HETATM   14  N   UNL     1     -11.535  15.399  70.979  1.00  0.00    -0.332 NA 
HETATM   15  C   UNL     1     -11.039  16.309  70.110  1.00  0.00    -0.341 A  
BRANCH  13  16
HETATM   16  N   UNL     1     -12.641  13.370  71.347  1.00  0.00    -0.322 NA 
HETATM   17  H   UNL     1     -13.103  13.715  72.188  1.00  0.00     0.000 HD 
BRANCH  16  18
HETATM   18  C   UNL     1     -12.550  11.994  71.203  1.00  0.00    -0.271 A  
HETATM   19  N   UNL     1     -13.274  11.242  72.044  1.00  0.00    -0.459 NA 
HETATM   20  C   UNL     1     -13.119   9.908  71.952  1.00  0.00    -0.459 A  
HETATM   21  C   UNL     1     -12.337   9.301  70.999  1.00  0.00    -0.233 A  
HETATM   22  F   UNL     1     -12.245   7.966  70.956  1.00  0.00    -0.309 F  
HETATM   23  C   UNL     1     -11.676  10.133  70.118  1.00  0.00    -0.256 A  
HETATM   24  N   UNL     1     -11.751  11.478  70.250  1.00  0.00    -0.320 NA 
BRANCH  23  25
HETATM   25  C   UNL     1     -10.891   9.659  68.955  1.00  0.00    -0.201 A  
HETATM   26  C   UNL     1     -10.823  10.427  67.778  1.00  0.00    -0.351 A  
HETATM   27  C   UNL     1     -10.062  10.021  66.683  1.00  0.00    -0.227 A  
HETATM   28  C   UNL     1      -9.338   8.825  66.734  1.00  0.00    -0.179 A  
HETATM   29  F   UNL     1     -10.038  10.798  65.589  1.00  0.00    -0.268 F  
HETATM   30  N   UNL     1      -8.545   8.238  65.792  1.00  0.00    -0.153 NA 
HETATM   31  C   UNL     1      -8.103   7.118  66.318  1.00  0.00    -0.118 A  
HETATM   32  N   UNL     1      -8.582   6.950  67.608  1.00  0.00    -0.122 NA 
HETATM   33  C   UNL     1      -7.221   6.186  65.569  1.00  0.00    -0.074 C  
HETATM   34  C   UNL     1     -10.146   8.450  69.014  1.00  0.00    -0.209 A  
HETATM   35  C   UNL     1      -9.384   8.051  67.893  1.00  0.00    -0.138 A  
BRANCH  32  36
HETATM   36  C   UNL     1      -8.393   5.817  68.516  1.00  0.00    -0.107 C  
HETATM   37  C   UNL     1      -9.669   5.102  68.978  1.00  0.00    -0.227 C  
HETATM   38  C   UNL     1      -7.546   6.213  69.726  1.00  0.00    -0.085 C  
ENDBRANCH  32  36
ENDBRANCH  23  25
ENDBRANCH  16  18
ENDBRANCH  13  16
ENDBRANCH   9  10
ENDBRANCH   6   9
ENDBRANCH   2   3
TORSDOF 7
ENDMDL
MODEL       28
REMARK 921   NORMALIZED FREE ENERGY PREDICTED BY IDOCK:   -6.93 KCAL/MOL
REMARK 922        TOTAL FREE ENERGY PREDICTED BY IDOCK:  -10.64 KCAL/MOL
REMARK 923 INTER-LIGAND FREE ENERGY PREDICTED BY IDOCK:   -9.87 KCAL/MOL
REMARK 924 INTRA-LIGAND FREE ENERGY PREDICTED BY IDOCK:   -0.77 KCAL/MOL
REMARK 927      BINDING AFFINITY PREDICTED BY RF-SCORE:    0.00 PKD
ROOT
HETATM    1  C   UNL     1      -9.792   2.898  73.424  1.00  0.00    -0.160 C  
HETATM    2  C   UNL     1      -9.278   4.242  73.927  1.00  0.00    -0.099 C  
ENDROOT
BRANCH   2   3
HETATM    3  N   UNL     1     -10.336   5.220  74.228  1.00  0.00    -0.265 NA 
HETATM    4  C   UNL     1      -9.745   6.567  74.412  1.00  0.00    -0.306 C  
HETATM    5  C   UNL     1      -9.358   7.287  73.096  1.00  0.00    -0.173 C  
HETATM    6  N   UNL     1     -10.446   7.365  72.094  1.00  0.00    -0.204 NA 
HETATM    7  C   UNL     1     -11.394   5.285  73.199  1.00  0.00    -0.291 C  
HETATM    8  C   UNL     1     -10.981   6.000  71.891  1.00  0.00    -0.264 C  
BRANCH   6   9
HETATM    9  C   UNL     1     -11.531   8.276  72.510  1.00  0.00    -0.384 C  
BRANCH   9  10
HETATM   10  C   UNL     1     -11.661   9.490  71.633  1.00  0.00    -0.460 A  
HETATM   11  C   UNL     1     -12.709  10.388  71.800  1.00  0.00    -0.525 A  
HETATM   12  C   UNL     1     -12.797  11.485  70.955  1.00  0.00    -0.358 A  
HETATM   13  C   UNL     1     -11.844  11.669  69.951  1.00  0.00    -0.358 A  
HETATM   14  N   UNL     1     -10.807  10.821  69.791  1.00  0.00    -0.250 NA 
HETATM   15  C   UNL     1     -10.744   9.754  70.621  1.00  0.00    -0.326 A  
BRANCH  13  16
HETATM   16  N   UNL     1     -11.889  12.785  69.124  1.00  0.00    -0.309 NA 
HETATM   17  H   UNL     1     -12.056  13.685  69.575  1.00  0.00     0.000 HD 
BRANCH  16  18
HETATM   18  C   UNL     1     -11.731  12.796  67.748  1.00  0.00    -0.359 A  
HETATM   19  N   UNL     1     -12.267  13.826  67.077  1.00  0.00    -0.386 NA 
HETATM   20  C   UNL     1     -12.180  13.788  65.734  1.00  0.00    -0.462 A  
HETATM   21  C   UNL     1     -11.506  12.807  65.048  1.00  0.00    -0.321 A  
HETATM   22  F   UNL     1     -11.445  12.845  63.710  1.00  0.00    -0.399 F  
HETATM   23  C   UNL     1     -10.915  11.815  65.803  1.00  0.00    -0.301 A  
HETATM   24  N   UNL     1     -11.066  11.789  67.148  1.00  0.00    -0.279 NA 
BRANCH  23  25
HETATM   25  C   UNL     1     -10.049  10.749  65.248  1.00  0.00    -0.353 A  
HETATM   26  C   UNL     1      -9.320  10.966  64.064  1.00  0.00    -0.266 A  
HETATM   27  C   UNL     1      -8.470   9.993  63.542  1.00  0.00    -0.187 A  
HETATM   28  C   UNL     1      -8.321   8.764  64.193  1.00  0.00    -0.149 A  
HETATM   29  F   UNL     1      -7.801  10.260  62.409  1.00  0.00    -0.125 F  
HETATM   30  N   UNL     1      -7.561   7.681  63.863  1.00  0.00    -0.111 NA 
HETATM   31  C   UNL     1      -7.779   6.773  64.787  1.00  0.00    -0.111 A  
HETATM   32  N   UNL     1      -8.668   7.238  65.743  1.00  0.00    -0.141 NA 
HETATM   33  C   UNL     1      -7.137   5.434  64.746  1.00  0.00    -0.054 C  
HETATM   34  C   UNL     1      -9.890   9.508  65.920  1.00  0.00    -0.360 A  
HETATM   35  C   UNL     1      -9.028   8.530  65.373  1.00  0.00    -0.099 A  
BRANCH  32  36
HETATM   36  C   UNL     1      -9.231   6.529  66.895  1.00  0.00    -0.140 C  
HETATM   37  C   UNL     1     -10.757   6.381  66.916  1.00  0.00    -0.408 C  
HETATM   38  C   UNL     1      -8.743   7.136  68.211  1.00  0.00    -0.128 C  
ENDBRANCH  32  36
ENDBRANCH  23  25
ENDBRANCH  16  18
ENDBRANCH  13  16
ENDBRANCH   9  10
ENDBRANCH   6   9
ENDBRANCH   2   3
TORSDOF 7
ENDMDL
MODEL       29
REMARK 921   NORMALIZED FREE ENERGY PREDICTED BY IDOCK:   -6.92 KCAL/MOL
REMARK 922        TOTAL FREE ENERGY PREDICTED BY IDOCK:  -10.63 KCAL/MOL
REMARK 923 INTER-LIGAND FREE ENERGY PREDICTED BY IDOCK:  -10.12 KCAL/MOL
REMARK 924 INTRA-LIGAND FREE ENERGY PREDICTED BY IDOCK:   -0.51 KCAL/MOL
REMARK 927      BINDING AFFINITY PREDICTED BY RF-SCORE:    0.00 PKD
ROOT
HETATM    1  C   UNL     1      -6.689  20.974  67.054  1.00  0.00    -0.409 C  
HETATM    2  C   UNL     1      -8.139  20.587  67.319  1.00  0.00    -0.309 C  
ENDROOT
BRANCH   2   3
HETATM    3  N   UNL     1      -8.720  19.688  66.309  1.00  0.00    -0.366 NA 
HETATM    4  C   UNL     1      -8.058  18.362  66.368  1.00  0.00    -0.260 C  
HETATM    5  C   UNL     1      -8.524  17.461  67.539  1.00  0.00    -0.214 C  
HETATM    6  N   UNL     1      -9.992  17.278  67.628  1.00  0.00    -0.286 NA 
HETATM    7  C   UNL     1     -10.181  19.514  66.439  1.00  0.00    -0.479 C  
HETATM    8  C   UNL     1     -10.622  18.617  67.620  1.00  0.00    -0.409 C  
BRANCH   6   9
HETATM    9  C   UNL     1     -10.526  16.461  66.521  1.00  0.00    -0.282 C  
BRANCH   9  10
HETATM   10  C   UNL     1     -10.681  15.008  66.871  1.00  0.00    -0.308 A  
HETATM   11  C   UNL     1     -11.700  14.240  66.318  1.00  0.00    -0.404 A  
HETATM   12  C   UNL     1     -11.812  12.906  66.684  1.00  0.00    -0.461 A  
HETATM   13  C   UNL     1     -10.913  12.358  67.601  1.00  0.00    -0.236 A  
HETATM   14  N   UNL     1      -9.904  13.081  68.127  1.00  0.00    -0.224 NA 
HETATM   15  C   UNL     1      -9.816  14.381  67.762  1.00  0.00    -0.221 A  
BRANCH  13  16
HETATM   16  N   UNL     1     -10.982  11.013  67.946  1.00  0.00    -0.242 NA 
HETATM   17  H   UNL     1     -10.665  10.341  67.246  1.00  0.00     0.000 HD 
BRANCH  16  18
HETATM   18  C   UNL     1     -11.440  10.494  69.146  1.00  0.00    -0.247 A  
HETATM   19  N   UNL     1     -12.287  11.253  69.857  1.00  0.00    -0.265 NA 
HETATM   20  C   UNL     1     -12.663  10.779  71.060  1.00  0.00    -0.415 A  
HETATM   21  C   UNL     1     -12.293   9.544  71.536  1.00  0.00    -0.380 A  
HETATM   22  F   UNL     1     -12.722   9.131  72.736  1.00  0.00    -0.425 F  
HETATM   23  C   UNL     1     -11.478   8.785  70.721  1.00  0.00    -0.270 A  
HETATM   24  N   UNL     1     -11.019   9.280  69.549  1.00  0.00    -0.198 NA 
BRANCH  23  25
HETATM   25  C   UNL     1     -11.080   7.388  71.012  1.00  0.00    -0.277 A  
HETATM   26  C   UNL     1     -11.394   6.799  72.251  1.00  0.00    -0.310 A  
HETATM   27  C   UNL     1     -11.063   5.475  72.535  1.00  0.00    -0.270 A  
HETATM   28  C   UNL     1     -10.404   4.693  71.580  1.00  0.00    -0.104 A  
HETATM   29  F   UNL     1     -11.388   4.970  73.735  1.00  0.00    -0.359 F  
HETATM   30  N   UNL     1      -9.984   3.397  71.644  1.00  0.00    -0.148 NA 
HETATM   31  C   UNL     1      -9.406   3.132  70.493  1.00  0.00    -0.157 A  
HETATM   32  N   UNL     1      -9.444   4.232  69.651  1.00  0.00    -0.170 NA 
HETATM   33  C   UNL     1      -8.796   1.810  70.202  1.00  0.00    -0.117 C  
HETATM   34  C   UNL     1     -10.424   6.592  70.035  1.00  0.00    -0.257 A  
HETATM   35  C   UNL     1     -10.091   5.254  70.342  1.00  0.00    -0.254 A  
BRANCH  32  36
HETATM   36  C   UNL     1      -8.860   4.387  68.318  1.00  0.00    -0.105 C  
HETATM   37  C   UNL     1      -7.823   5.506  68.161  1.00  0.00    -0.092 C  
HETATM   38  C   UNL     1      -9.946   4.524  67.250  1.00  0.00    -0.187 C  
ENDBRANCH  32  36
ENDBRANCH  23  25
ENDBRANCH  16  18
ENDBRANCH  13  16
ENDBRANCH   9  10
ENDBRANCH   6   9
ENDBRANCH   2   3
TORSDOF 7
ENDMDL
MODEL       30
REMARK 921   NORMALIZED FREE ENERGY PREDICTED BY IDOCK:   -6.92 KCAL/MOL
REMARK 922        TOTAL FREE ENERGY PREDICTED BY IDOCK:  -10.63 KCAL/MOL
REMARK 923 INTER-LIGAND FREE ENERGY PREDICTED BY IDOCK:   -9.40 KCAL/MOL
REMARK 924 INTRA-LIGAND FREE ENERGY PREDICTED BY IDOCK:   -1.22 KCAL/MOL
REMARK 927      BINDING AFFINITY PREDICTED BY RF-SCORE:    0.00 PKD
ROOT
HETATM    1  C   UNL     1      -5.263  10.793  63.244  1.00  0.00    -0.165 C  
HETATM    2  C   UNL     1      -5.758   9.430  62.774  1.00  0.00    -0.085 C  
ENDROOT
BRANCH   2   3
HETATM    3  N   UNL     1      -5.638   8.363  63.781  1.00  0.00    -0.061 NA 
HETATM    4  C   UNL     1      -6.131   8.845  65.094  1.00  0.00    -0.060 C  
HETATM    5  C   UNL     1      -7.674   8.891  65.226  1.00  0.00    -0.100 C  
HETATM    6  N   UNL     1      -8.359   7.623  64.883  1.00  0.00    -0.095 NA 
HETATM    7  C   UNL     1      -6.347   7.120  63.416  1.00  0.00    -0.045 C  
HETATM    8  C   UNL     1      -7.888   7.193  63.547  1.00  0.00    -0.103 C  
BRANCH   6   9
HETATM    9  C   UNL     1      -8.104   6.559  65.875  1.00  0.00    -0.125 C  
BRANCH   9  10
HETATM   10  C   UNL     1      -8.911   6.710  67.133  1.00  0.00    -0.118 A  
HETATM   11  C   UNL     1      -8.340   7.213  68.298  1.00  0.00    -0.124 A  
HETATM   12  C   UNL     1      -9.121   7.318  69.439  1.00  0.00    -0.142 A  
HETATM   13  C   UNL     1     -10.458   6.915  69.408  1.00  0.00    -0.217 A  
HETATM   14  N   UNL     1     -11.034   6.449  68.282  1.00  0.00    -0.313 NA 
HETATM   15  C   UNL     1     -10.253   6.348  67.181  1.00  0.00    -0.199 A  
BRANCH  13  16
HETATM   16  N   UNL     1     -11.268   7.054  70.529  1.00  0.00    -0.281 NA 
HETATM   17  H   UNL     1     -11.437   6.214  71.083  1.00  0.00     0.000 HD 
BRANCH  16  18
HETATM   18  C   UNL     1     -11.870   8.223  70.968  1.00  0.00    -0.255 A  
HETATM   19  N   UNL     1     -12.521   8.174  72.139  1.00  0.00    -0.327 NA 
HETATM   20  C   UNL     1     -13.172   9.290  72.520  1.00  0.00    -0.366 A  
HETATM   21  C   UNL     1     -13.122  10.470  71.819  1.00  0.00    -0.464 A  
HETATM   22  F   UNL     1     -13.780  11.547  72.269  1.00  0.00    -0.453 F  
HETATM   23  C   UNL     1     -12.373  10.472  70.660  1.00  0.00    -0.356 A  
HETATM   24  N   UNL     1     -11.785   9.337  70.215  1.00  0.00    -0.127 NA 
BRANCH  23  25
HETATM   25  C   UNL     1     -12.106  11.678  69.843  1.00  0.00    -0.373 A  
HETATM   26  C   UNL     1     -12.011  12.945  70.449  1.00  0.00    -0.329 A  
HETATM   27  C   UNL     1     -11.724  14.090  69.708  1.00  0.00    -0.313 A  
HETATM   28  C   UNL     1     -11.520  14.002  68.327  1.00  0.00    -0.304 A  
HETATM   29  F   UNL     1     -11.647  15.269  70.344  1.00  0.00    -0.243 F  
HETATM   30  N   UNL     1     -11.239  14.978  67.416  1.00  0.00    -0.329 NA 
HETATM   31  C   UNL     1     -11.155  14.387  66.245  1.00  0.00    -0.331 A  
HETATM   32  N   UNL     1     -11.365  13.022  66.360  1.00  0.00    -0.304 NA 
HETATM   33  C   UNL     1     -10.884  15.143  64.996  1.00  0.00    -0.457 C  
HETATM   34  C   UNL     1     -11.886  11.584  68.442  1.00  0.00    -0.353 A  
HETATM   35  C   UNL     1     -11.602  12.756  67.705  1.00  0.00    -0.353 A  
BRANCH  32  36
HETATM   36  C   UNL     1     -11.428  12.011  65.301  1.00  0.00    -0.302 C  
HETATM   37  C   UNL     1     -10.105  11.691  64.594  1.00  0.00    -0.305 C  
HETATM   38  C   UNL     1     -12.504  12.356  64.271  1.00  0.00    -0.529 C  
ENDBRANCH  32  36
ENDBRANCH  23  25
ENDBRANCH  16  18
ENDBRANCH  13  16
ENDBRANCH   9  10
ENDBRANCH   6   9
ENDBRANCH   2   3
TORSDOF 7
ENDMDL
MODEL       31
REMARK 921   NORMALIZED FREE ENERGY PREDICTED BY IDOCK:   -6.89 KCAL/MOL
REMARK 922        TOTAL FREE ENERGY PREDICTED BY IDOCK:  -10.58 KCAL/MOL
REMARK 923 INTER-LIGAND FREE ENERGY PREDICTED BY IDOCK:   -9.98 KCAL/MOL
REMARK 924 INTRA-LIGAND FREE ENERGY PREDICTED BY IDOCK:   -0.60 KCAL/MOL
REMARK 927      BINDING AFFINITY PREDICTED BY RF-SCORE:    0.00 PKD
ROOT
HETATM    1  C   UNL     1      -5.313  20.928  68.774  1.00  0.00    -0.379 C  
HETATM    2  C   UNL     1      -5.196  20.083  67.511  1.00  0.00    -0.168 C  
ENDROOT
BRANCH   2   3
HETATM    3  N   UNL     1      -5.452  18.648  67.718  1.00  0.00    -0.167 NA 
HETATM    4  C   UNL     1      -6.773  18.456  68.364  1.00  0.00    -0.230 C  
HETATM    5  C   UNL     1      -7.985  18.606  67.411  1.00  0.00    -0.236 C  
HETATM    6  N   UNL     1      -7.914  17.771  66.189  1.00  0.00    -0.469 NA 
HETATM    7  C   UNL     1      -5.392  17.849  66.477  1.00  0.00    -0.163 C  
HETATM    8  C   UNL     1      -6.609  18.023  65.537  1.00  0.00    -0.121 C  
BRANCH   6   9
HETATM    9  C   UNL     1      -8.064  16.331  66.480  1.00  0.00    -0.302 C  
BRANCH   9  10
HETATM   10  C   UNL     1      -9.247  16.018  67.352  1.00  0.00    -0.214 A  
HETATM   11  C   UNL     1     -10.515  15.845  66.808  1.00  0.00    -0.309 A  
HETATM   12  C   UNL     1     -11.580  15.574  67.655  1.00  0.00    -0.147 A  
HETATM   13  C   UNL     1     -11.369  15.486  69.032  1.00  0.00    -0.326 A  
HETATM   14  N   UNL     1     -10.142  15.626  69.574  1.00  0.00    -0.261 NA 
HETATM   15  C   UNL     1      -9.119  15.897  68.732  1.00  0.00    -0.219 A  
BRANCH  13  16
HETATM   16  N   UNL     1     -12.415  15.171  69.892  1.00  0.00    -0.552 NA 
HETATM   17  H   UNL     1     -13.098  15.907  70.075  1.00  0.00     0.000 HD 
BRANCH  16  18
HETATM   18  C   UNL     1     -12.621  13.955  70.525  1.00  0.00    -0.312 A  
HETATM   19  N   UNL     1     -13.488  13.937  71.548  1.00  0.00    -0.332 NA 
HETATM   20  C   UNL     1     -13.621  12.772  72.210  1.00  0.00    -0.465 A  
HETATM   21  C   UNL     1     -12.988  11.612  71.834  1.00  0.00    -0.337 A  
HETATM   22  F   UNL     1     -13.184  10.485  72.531  1.00  0.00    -0.446 F  
HETATM   23  C   UNL     1     -12.166  11.684  70.729  1.00  0.00    -0.344 A  
HETATM   24  N   UNL     1     -11.951  12.865  70.104  1.00  0.00    -0.337 NA 
BRANCH  23  25
HETATM   25  C   UNL     1     -11.502  10.515  70.107  1.00  0.00    -0.405 A  
HETATM   26  C   UNL     1     -11.544   9.254  70.731  1.00  0.00    -0.345 A  
HETATM   27  C   UNL     1     -10.958   8.132  70.149  1.00  0.00    -0.223 A  
HETATM   28  C   UNL     1     -10.308   8.237  68.914  1.00  0.00    -0.215 A  
HETATM   29  F   UNL     1     -11.033   6.956  70.793  1.00  0.00    -0.248 F  
HETATM   30  N   UNL     1      -9.669   7.285  68.175  1.00  0.00    -0.143 NA 
HETATM   31  C   UNL     1      -9.211   7.889  67.101  1.00  0.00    -0.146 A  
HETATM   32  N   UNL     1      -9.546   9.234  67.104  1.00  0.00    -0.151 NA 
HETATM   33  C   UNL     1      -8.429   7.170  66.063  1.00  0.00    -0.148 C  
HETATM   34  C   UNL     1     -10.854  10.622  68.847  1.00  0.00    -0.272 A  
HETATM   35  C   UNL     1     -10.260   9.475  68.274  1.00  0.00    -0.193 A  
BRANCH  32  36
HETATM   36  C   UNL     1      -9.177  10.273  66.140  1.00  0.00    -0.158 C  
HETATM   37  C   UNL     1      -8.558  11.548  66.727  1.00  0.00    -0.170 C  
HETATM   38  C   UNL     1     -10.356  10.631  65.234  1.00  0.00    -0.321 C  
ENDBRANCH  32  36
ENDBRANCH  23  25
ENDBRANCH  16  18
ENDBRANCH  13  16
ENDBRANCH   9  10
ENDBRANCH   6   9
ENDBRANCH   2   3
TORSDOF 7
ENDMDL
MODEL       32
REMARK 921   NORMALIZED FREE ENERGY PREDICTED BY IDOCK:   -6.86 KCAL/MOL
REMARK 922        TOTAL FREE ENERGY PREDICTED BY IDOCK:  -10.54 KCAL/MOL
REMARK 923 INTER-LIGAND FREE ENERGY PREDICTED BY IDOCK:   -9.63 KCAL/MOL
REMARK 924 INTRA-LIGAND FREE ENERGY PREDICTED BY IDOCK:   -0.91 KCAL/MOL
REMARK 927      BINDING AFFINITY PREDICTED BY RF-SCORE:    0.00 PKD
ROOT
HETATM    1  C   UNL     1     -10.872  15.792  64.957  1.00  0.00    -0.461 C  
HETATM    2  C   UNL     1     -10.667  14.420  65.589  1.00  0.00    -0.320 C  
ENDROOT
BRANCH   2   3
HETATM    3  N   UNL     1     -11.794  13.963  66.419  1.00  0.00    -0.389 NA 
HETATM    4  C   UNL     1     -11.873  12.483  66.399  1.00  0.00    -0.381 C  
HETATM    5  C   UNL     1     -10.831  11.770  67.298  1.00  0.00    -0.253 C  
HETATM    6  N   UNL     1     -10.808  12.238  68.703  1.00  0.00    -0.229 NA 
HETATM    7  C   UNL     1     -11.729  14.433  67.818  1.00  0.00    -0.376 C  
HETATM    8  C   UNL     1     -10.676  13.713  68.693  1.00  0.00    -0.256 C  
BRANCH   6   9
HETATM    9  C   UNL     1     -12.020  11.844  69.449  1.00  0.00    -0.289 C  
BRANCH   9  10
HETATM   10  C   UNL     1     -11.792  10.704  70.400  1.00  0.00    -0.441 A  
HETATM   11  C   UNL     1     -10.552  10.080  70.490  1.00  0.00    -0.313 A  
HETATM   12  C   UNL     1     -10.394   9.019  71.370  1.00  0.00    -0.396 A  
HETATM   13  C   UNL     1     -11.474   8.590  72.145  1.00  0.00    -0.376 A  
HETATM   14  N   UNL     1     -12.676   9.200  72.089  1.00  0.00    -0.387 NA 
HETATM   15  C   UNL     1     -12.811  10.227  71.219  1.00  0.00    -0.422 A  
BRANCH  13  16
HETATM   16  N   UNL     1     -11.323   7.560  73.065  1.00  0.00    -0.578 NA 
HETATM   17  H   UNL     1     -11.597   7.759  74.028  1.00  0.00     0.000 HD 
BRANCH  16  18
HETATM   18  C   UNL     1     -10.838   6.288  72.803  1.00  0.00    -0.252 A  
HETATM   19  N   UNL     1     -10.794   5.426  73.830  1.00  0.00    -0.278 NA 
HETATM   20  C   UNL     1     -10.246   4.221  73.587  1.00  0.00    -0.161 A  
HETATM   21  C   UNL     1      -9.822   3.819  72.343  1.00  0.00    -0.158 A  
HETATM   22  F   UNL     1      -9.303   2.596  72.173  1.00  0.00    -0.117 F  
HETATM   23  C   UNL     1      -9.963   4.730  71.316  1.00  0.00    -0.200 A  
HETATM   24  N   UNL     1     -10.430   5.977  71.558  1.00  0.00    -0.220 NA 
BRANCH  23  25
HETATM   25  C   UNL     1      -9.676   4.432  69.894  1.00  0.00    -0.291 A  
HETATM   26  C   UNL     1      -9.532   3.102  69.458  1.00  0.00    -0.190 A  
HETATM   27  C   UNL     1      -9.298   2.794  68.119  1.00  0.00    -0.203 A  
HETATM   28  C   UNL     1      -9.202   3.815  67.167  1.00  0.00    -0.182 A  
HETATM   29  F   UNL     1      -9.170   1.505  67.765  1.00  0.00    -0.133 F  
HETATM   30  N   UNL     1      -8.974   3.745  65.824  1.00  0.00    -0.128 NA 
HETATM   31  C   UNL     1      -8.960   4.983  65.381  1.00  0.00    -0.152 A  
HETATM   32  N   UNL     1      -9.188   5.883  66.409  1.00  0.00    -0.147 NA 
HETATM   33  C   UNL     1      -8.710   5.308  63.953  1.00  0.00     0.002 C  
HETATM   34  C   UNL     1      -9.592   5.471  68.928  1.00  0.00    -0.178 A  
HETATM   35  C   UNL     1      -9.349   5.140  67.575  1.00  0.00    -0.121 A  
BRANCH  32  36
HETATM   36  C   UNL     1      -9.185   7.347  66.364  1.00  0.00    -0.159 C  
HETATM   37  C   UNL     1      -8.010   8.041  67.063  1.00  0.00    -0.108 C  
HETATM   38  C   UNL     1     -10.510   7.919  66.871  1.00  0.00    -0.388 C  
ENDBRANCH  32  36
ENDBRANCH  23  25
ENDBRANCH  16  18
ENDBRANCH  13  16
ENDBRANCH   9  10
ENDBRANCH   6   9
ENDBRANCH   2   3
TORSDOF 7
ENDMDL
MODEL       33
REMARK 921   NORMALIZED FREE ENERGY PREDICTED BY IDOCK:   -6.86 KCAL/MOL
REMARK 922        TOTAL FREE ENERGY PREDICTED BY IDOCK:  -10.54 KCAL/MOL
REMARK 923 INTER-LIGAND FREE ENERGY PREDICTED BY IDOCK:   -9.26 KCAL/MOL
REMARK 924 INTRA-LIGAND FREE ENERGY PREDICTED BY IDOCK:   -1.27 KCAL/MOL
REMARK 927      BINDING AFFINITY PREDICTED BY RF-SCORE:    0.00 PKD
ROOT
HETATM    1  C   UNL     1     -12.411  15.596  74.344  1.00  0.00    -0.790 C  
HETATM    2  C   UNL     1     -12.790  14.567  73.285  1.00  0.00    -0.399 C  
ENDROOT
BRANCH   2   3
HETATM    3  N   UNL     1     -13.268  15.150  72.020  1.00  0.00    -0.348 NA 
HETATM    4  C   UNL     1     -12.328  16.197  71.555  1.00  0.00    -0.240 C  
HETATM    5  C   UNL     1     -11.035  15.656  70.896  1.00  0.00    -0.272 C  
HETATM    6  N   UNL     1     -11.262  14.683  69.801  1.00  0.00    -0.265 NA 
HETATM    7  C   UNL     1     -13.467  14.155  70.947  1.00  0.00    -0.090 C  
HETATM    8  C   UNL     1     -12.161  13.622  70.310  1.00  0.00    -0.357 C  
BRANCH   6   9
HETATM    9  C   UNL     1     -11.851  15.312  68.602  1.00  0.00    -0.305 C  
BRANCH   9  10
HETATM   10  C   UNL     1     -11.538  14.578  67.329  1.00  0.00    -0.405 A  
HETATM   11  C   UNL     1     -12.514  13.843  66.664  1.00  0.00    -0.313 A  
HETATM   12  C   UNL     1     -12.173  13.168  65.501  1.00  0.00    -0.513 A  
HETATM   13  C   UNL     1     -10.864  13.230  65.018  1.00  0.00    -0.322 A  
HETATM   14  N   UNL     1      -9.912  13.959  65.636  1.00  0.00    -0.301 NA 
HETATM   15  C   UNL     1     -10.263  14.603  66.772  1.00  0.00    -0.268 A  
BRANCH  13  16
HETATM   16  N   UNL     1     -10.514  12.598  63.830  1.00  0.00    -0.423 NA 
HETATM   17  H   UNL     1     -10.763  13.077  62.964  1.00  0.00     0.000 HD 
BRANCH  16  18
HETATM   18  C   UNL     1      -9.862  11.382  63.707  1.00  0.00    -0.319 A  
HETATM   19  N   UNL     1      -9.589  10.956  62.465  1.00  0.00    -0.239 NA 
HETATM   20  C   UNL     1      -9.029   9.738  62.350  1.00  0.00    -0.274 A  
HETATM   21  C   UNL     1      -8.655   8.972  63.428  1.00  0.00    -0.135 A  
HETATM   22  F   UNL     1      -8.085   7.775  63.236  1.00  0.00    -0.142 F  
HETATM   23  C   UNL     1      -8.899   9.502  64.679  1.00  0.00    -0.213 A  
HETATM   24  N   UNL     1      -9.541  10.685  64.815  1.00  0.00    -0.253 NA 
BRANCH  23  25
HETATM   25  C   UNL     1      -8.456   8.878  65.948  1.00  0.00    -0.147 A  
HETATM   26  C   UNL     1      -7.125   8.451  66.107  1.00  0.00    -0.076 A  
HETATM   27  C   UNL     1      -6.675   7.895  67.303  1.00  0.00    -0.069 A  
HETATM   28  C   UNL     1      -7.549   7.750  68.386  1.00  0.00    -0.109 A  
HETATM   29  F   UNL     1      -5.393   7.507  67.394  1.00  0.00    -0.021 F  
HETATM   30  N   UNL     1      -7.330   7.234  69.629  1.00  0.00    -0.086 NA 
HETATM   31  C   UNL     1      -8.473   7.309  70.274  1.00  0.00    -0.137 A  
HETATM   32  N   UNL     1      -9.456   7.880  69.482  1.00  0.00    -0.160 NA 
HETATM   33  C   UNL     1      -8.629   6.812  71.665  1.00  0.00    -0.125 C  
HETATM   34  C   UNL     1      -9.343   8.745  67.050  1.00  0.00    -0.200 A  
HETATM   35  C   UNL     1      -8.871   8.174  68.253  1.00  0.00    -0.133 A  
BRANCH  32  36
HETATM   36  C   UNL     1     -10.874   8.083  69.784  1.00  0.00    -0.194 C  
HETATM   37  C   UNL     1     -11.188   8.804  71.101  1.00  0.00    -0.339 C  
HETATM   38  C   UNL     1     -11.650   6.768  69.708  1.00  0.00    -0.284 C  
ENDBRANCH  32  36
ENDBRANCH  23  25
ENDBRANCH  16  18
ENDBRANCH  13  16
ENDBRANCH   9  10
ENDBRANCH   6   9
ENDBRANCH   2   3
TORSDOF 7
ENDMDL
MODEL       34
REMARK 921   NORMALIZED FREE ENERGY PREDICTED BY IDOCK:   -6.74 KCAL/MOL
REMARK 922        TOTAL FREE ENERGY PREDICTED BY IDOCK:  -10.37 KCAL/MOL
REMARK 923 INTER-LIGAND FREE ENERGY PREDICTED BY IDOCK:   -9.70 KCAL/MOL
REMARK 924 INTRA-LIGAND FREE ENERGY PREDICTED BY IDOCK:   -0.67 KCAL/MOL
REMARK 927      BINDING AFFINITY PREDICTED BY RF-SCORE:    0.00 PKD
ROOT
HETATM    1  C   UNL     1      -7.781   1.919  71.289  1.00  0.00    -0.040 C  
HETATM    2  C   UNL     1      -8.559   2.147  72.580  1.00  0.00    -0.062 C  
ENDROOT
BRANCH   2   3
HETATM    3  N   UNL     1      -8.356   3.475  73.182  1.00  0.00    -0.078 NA 
HETATM    4  C   UNL     1      -8.618   4.534  72.178  1.00  0.00    -0.114 C  
HETATM    5  C   UNL     1     -10.119   4.810  71.909  1.00  0.00    -0.198 C  
HETATM    6  N   UNL     1     -10.923   5.079  73.123  1.00  0.00    -0.283 NA 
HETATM    7  C   UNL     1      -9.186   3.717  74.379  1.00  0.00    -0.088 C  
HETATM    8  C   UNL     1     -10.682   3.980  74.086  1.00  0.00    -0.211 C  
BRANCH   6   9
HETATM    9  C   UNL     1     -10.588   6.377  73.744  1.00  0.00    -0.253 C  
BRANCH   9  10
HETATM   10  C   UNL     1     -10.794   7.549  72.827  1.00  0.00    -0.397 A  
HETATM   11  C   UNL     1     -12.065   7.907  72.392  1.00  0.00    -0.336 A  
HETATM   12  C   UNL     1     -12.203   8.986  71.531  1.00  0.00    -0.403 A  
HETATM   13  C   UNL     1     -11.073   9.690  71.110  1.00  0.00    -0.374 A  
HETATM   14  N   UNL     1      -9.836   9.372  71.542  1.00  0.00    -0.214 NA 
HETATM   15  C   UNL     1      -9.722   8.312  72.375  1.00  0.00    -0.303 A  
BRANCH  13  16
HETATM   16  N   UNL     1     -11.195  10.802  70.284  1.00  0.00    -0.430 NA 
HETATM   17  H   UNL     1     -11.901  11.492  70.543  1.00  0.00     0.000 HD 
BRANCH  16  18
HETATM   18  C   UNL     1     -10.453  11.064  69.144  1.00  0.00    -0.210 A  
HETATM   19  N   UNL     1      -9.658  10.083  68.692  1.00  0.00    -0.151 NA 
HETATM   20  C   UNL     1      -8.880  10.373  67.632  1.00  0.00    -0.124 A  
HETATM   21  C   UNL     1      -8.931  11.571  66.961  1.00  0.00    -0.174 A  
HETATM   22  F   UNL     1      -8.138  11.781  65.901  1.00  0.00     0.012 F  
HETATM   23  C   UNL     1      -9.824  12.510  67.435  1.00  0.00    -0.201 A  
HETATM   24  N   UNL     1     -10.551  12.270  68.551  1.00  0.00    -0.230 NA 
BRANCH  23  25
HETATM   25  C   UNL     1     -10.103  13.803  66.770  1.00  0.00    -0.265 A  
HETATM   26  C   UNL     1     -10.789  13.841  65.541  1.00  0.00    -0.299 A  
HETATM   27  C   UNL     1     -11.096  15.047  64.913  1.00  0.00    -0.415 A  
HETATM   28  C   UNL     1     -10.725  16.261  65.501  1.00  0.00    -0.313 A  
HETATM   29  F   UNL     1     -11.752  15.018  63.742  1.00  0.00    -0.128 F  
HETATM   30  N   UNL     1     -10.914  17.541  65.067  1.00  0.00    -0.749 NA 
HETATM   31  C   UNL     1     -10.370  18.327  65.968  1.00  0.00    -0.363 A  
HETATM   32  N   UNL     1      -9.828  17.591  67.010  1.00  0.00    -0.283 NA 
HETATM   33  C   UNL     1     -10.356  19.806  65.822  1.00  0.00    -0.522 C  
HETATM   34  C   UNL     1      -9.738  15.036  67.375  1.00  0.00    -0.216 A  
HETATM   35  C   UNL     1     -10.052  16.248  66.722  1.00  0.00    -0.278 A  
BRANCH  32  36
HETATM   36  C   UNL     1      -9.074  18.066  68.173  1.00  0.00    -0.276 C  
HETATM   37  C   UNL     1      -9.685  19.247  68.937  1.00  0.00    -0.493 C  
HETATM   38  C   UNL     1      -7.622  18.373  67.804  1.00  0.00    -0.238 C  
ENDBRANCH  32  36
ENDBRANCH  23  25
ENDBRANCH  16  18
ENDBRANCH  13  16
ENDBRANCH   9  10
ENDBRANCH   6   9
ENDBRANCH   2   3
TORSDOF 7
ENDMDL
MODEL       35
REMARK 921   NORMALIZED FREE ENERGY PREDICTED BY IDOCK:   -6.71 KCAL/MOL
REMARK 922        TOTAL FREE ENERGY PREDICTED BY IDOCK:  -10.33 KCAL/MOL
REMARK 923 INTER-LIGAND FREE ENERGY PREDICTED BY IDOCK:   -9.29 KCAL/MOL
REMARK 924 INTRA-LIGAND FREE ENERGY PREDICTED BY IDOCK:   -1.05 KCAL/MOL
REMARK 927      BINDING AFFINITY PREDICTED BY RF-SCORE:    0.00 PKD
ROOT
HETATM    1  C   UNL     1      -6.839  20.821  67.329  1.00  0.00    -0.405 C  
HETATM    2  C   UNL     1      -8.328  20.496  67.331  1.00  0.00    -0.283 C  
ENDROOT
BRANCH   2   3
HETATM    3  N   UNL     1      -8.727  19.484  66.339  1.00  0.00    -0.350 NA 
HETATM    4  C   UNL     1      -7.980  18.224  66.570  1.00  0.00    -0.268 C  
HETATM    5  C   UNL     1      -8.503  17.372  67.753  1.00  0.00    -0.223 C  
HETATM    6  N   UNL     1      -9.954  17.076  67.705  1.00  0.00    -0.271 NA 
HETATM    7  C   UNL     1     -10.177  19.201  66.331  1.00  0.00    -0.438 C  
HETATM    8  C   UNL     1     -10.677  18.356  67.528  1.00  0.00    -0.365 C  
BRANCH   6   9
HETATM    9  C   UNL     1     -10.303  16.143  66.615  1.00  0.00    -0.296 C  
BRANCH   9  10
HETATM   10  C   UNL     1     -10.811  14.816  67.105  1.00  0.00    -0.311 A  
HETATM   11  C   UNL     1     -10.660  14.435  68.434  1.00  0.00    -0.248 A  
HETATM   12  C   UNL     1     -11.130  13.193  68.835  1.00  0.00    -0.310 A  
HETATM   13  C   UNL     1     -11.737  12.345  67.907  1.00  0.00    -0.360 A  
HETATM   14  N   UNL     1     -11.914  12.709  66.620  1.00  0.00    -0.529 NA 
HETATM   15  C   UNL     1     -11.442  13.921  66.248  1.00  0.00    -0.339 A  
BRANCH  13  16
HETATM   16  N   UNL     1     -12.254  11.115  68.300  1.00  0.00    -0.709 NA 
HETATM   17  H   UNL     1     -12.936  10.683  67.676  1.00  0.00     0.000 HD 
BRANCH  16  18
HETATM   18  C   UNL     1     -11.935  10.421  69.455  1.00  0.00    -0.103 A  
HETATM   19  N   UNL     1     -12.761  10.561  70.502  1.00  0.00    -0.338 NA 
HETATM   20  C   UNL     1     -12.401   9.949  71.646  1.00  0.00    -0.406 A  
HETATM   21  C   UNL     1     -11.297   9.138  71.755  1.00  0.00    -0.381 A  
HETATM   22  F   UNL     1     -11.011   8.546  72.922  1.00  0.00    -0.381 F  
HETATM   23  C   UNL     1     -10.530   8.979  70.619  1.00  0.00    -0.230 A  
HETATM   24  N   UNL     1     -10.827   9.655  69.485  1.00  0.00    -0.232 NA 
BRANCH  23  25
HETATM   25  C   UNL     1      -9.380   8.052  70.514  1.00  0.00    -0.155 A  
HETATM   26  C   UNL     1      -8.061   8.538  70.583  1.00  0.00    -0.119 A  
HETATM   27  C   UNL     1      -6.963   7.682  70.523  1.00  0.00    -0.047 A  
HETATM   28  C   UNL     1      -7.152   6.302  70.394  1.00  0.00    -0.071 A  
HETATM   29  F   UNL     1      -5.729   8.207  70.594  1.00  0.00    -0.029 F  
HETATM   30  N   UNL     1      -6.236   5.295  70.310  1.00  0.00    -0.022 NA 
HETATM   31  C   UNL     1      -6.917   4.178  70.184  1.00  0.00    -0.041 A  
HETATM   32  N   UNL     1      -8.281   4.422  70.194  1.00  0.00    -0.062 NA 
HETATM   33  C   UNL     1      -6.251   2.858  70.037  1.00  0.00    -0.024 C  
HETATM   34  C   UNL     1      -9.575   6.649  70.396  1.00  0.00    -0.173 A  
HETATM   35  C   UNL     1      -8.450   5.797  70.331  1.00  0.00    -0.129 A  
BRANCH  32  36
HETATM   36  C   UNL     1      -9.384   3.475  70.012  1.00  0.00    -0.175 C  
HETATM   37  C   UNL     1      -9.523   2.386  71.082  1.00  0.00    -0.220 C  
HETATM   38  C   UNL     1      -9.345   2.843  68.620  1.00  0.00    -0.239 C  
ENDBRANCH  32  36
ENDBRANCH  23  25
ENDBRANCH  16  18
ENDBRANCH  13  16
ENDBRANCH   9  10
ENDBRANCH   6   9
ENDBRANCH   2   3
TORSDOF 7
ENDMDL
MODEL       36
REMARK 921   NORMALIZED FREE ENERGY PREDICTED BY IDOCK:   -6.69 KCAL/MOL
REMARK 922        TOTAL FREE ENERGY PREDICTED BY IDOCK:  -10.31 KCAL/MOL
REMARK 923 INTER-LIGAND FREE ENERGY PREDICTED BY IDOCK:   -9.42 KCAL/MOL
REMARK 924 INTRA-LIGAND FREE ENERGY PREDICTED BY IDOCK:   -0.89 KCAL/MOL
REMARK 927      BINDING AFFINITY PREDICTED BY RF-SCORE:    0.00 PKD
ROOT
HETATM    1  C   UNL     1      -6.485  20.519  66.219  1.00  0.00    -0.272 C  
HETATM    2  C   UNL     1      -7.489  19.372  66.246  1.00  0.00    -0.274 C  
ENDROOT
BRANCH   2   3
HETATM    3  N   UNL     1      -8.589  19.553  67.209  1.00  0.00    -0.291 NA 
HETATM    4  C   UNL     1      -9.829  18.933  66.685  1.00  0.00    -0.358 C  
HETATM    5  C   UNL     1      -9.882  17.390  66.811  1.00  0.00    -0.296 C  
HETATM    6  N   UNL     1      -9.616  16.874  68.174  1.00  0.00    -0.249 NA 
HETATM    7  C   UNL     1      -8.297  19.012  68.551  1.00  0.00    -0.352 C  
HETATM    8  C   UNL     1      -8.346  17.468  68.650  1.00  0.00    -0.258 C  
BRANCH   6   9
HETATM    9  C   UNL     1     -10.706  17.190  69.119  1.00  0.00    -0.184 C  
BRANCH   9  10
HETATM   10  C   UNL     1     -11.317  15.973  69.755  1.00  0.00    -0.331 A  
HETATM   11  C   UNL     1     -11.679  14.868  68.992  1.00  0.00    -0.347 A  
HETATM   12  C   UNL     1     -12.255  13.774  69.622  1.00  0.00    -0.359 A  
HETATM   13  C   UNL     1     -12.467  13.798  71.002  1.00  0.00    -0.380 A  
HETATM   14  N   UNL     1     -12.099  14.850  71.760  1.00  0.00    -0.345 NA 
HETATM   15  C   UNL     1     -11.546  15.909  71.126  1.00  0.00    -0.432 A  
BRANCH  13  16
HETATM   16  N   UNL     1     -13.001  12.694  71.657  1.00  0.00    -0.352 NA 
HETATM   17  H   UNL     1     -13.678  12.881  72.397  1.00  0.00     0.000 HD 
BRANCH  16  18
HETATM   18  C   UNL     1     -12.703  11.364  71.404  1.00  0.00    -0.384 A  
HETATM   19  N   UNL     1     -13.380  10.441  72.102  1.00  0.00    -0.381 NA 
HETATM   20  C   UNL     1     -13.028   9.156  71.911  1.00  0.00    -0.404 A  
HETATM   21  C   UNL     1     -12.090   8.758  70.989  1.00  0.00    -0.225 A  
HETATM   22  F   UNL     1     -11.804   7.458  70.841  1.00  0.00    -0.302 F  
HETATM   23  C   UNL     1     -11.483   9.755  70.253  1.00  0.00    -0.255 A  
HETATM   24  N   UNL     1     -11.760  11.057  70.493  1.00  0.00    -0.334 NA 
BRANCH  23  25
HETATM   25  C   UNL     1     -10.542   9.508  69.135  1.00  0.00    -0.237 A  
HETATM   26  C   UNL     1     -10.633   8.330  68.371  1.00  0.00    -0.148 A  
HETATM   27  C   UNL     1      -9.784   8.091  67.292  1.00  0.00    -0.177 A  
HETATM   28  C   UNL     1      -8.811   9.033  66.941  1.00  0.00    -0.116 A  
HETATM   29  F   UNL     1      -9.920   6.948  66.602  1.00  0.00    -0.217 F  
HETATM   30  N   UNL     1      -7.882   9.005  65.942  1.00  0.00    -0.100 NA 
HETATM   31  C   UNL     1      -7.193  10.120  66.038  1.00  0.00    -0.118 A  
HETATM   32  N   UNL     1      -7.656  10.903  67.084  1.00  0.00    -0.104 NA 
HETATM   33  C   UNL     1      -6.065  10.434  65.124  1.00  0.00    -0.124 C  
HETATM   34  C   UNL     1      -9.564  10.473  68.772  1.00  0.00    -0.181 A  
HETATM   35  C   UNL     1      -8.707  10.212  67.678  1.00  0.00    -0.121 A  
BRANCH  32  36
HETATM   36  C   UNL     1      -7.130  12.178  67.577  1.00  0.00    -0.135 C  
HETATM   37  C   UNL     1      -6.445  12.140  68.949  1.00  0.00    -0.088 C  
HETATM   38  C   UNL     1      -8.206  13.265  67.557  1.00  0.00    -0.184 C  
ENDBRANCH  32  36
ENDBRANCH  23  25
ENDBRANCH  16  18
ENDBRANCH  13  16
ENDBRANCH   9  10
ENDBRANCH   6   9
ENDBRANCH   2   3
TORSDOF 7
ENDMDL
MODEL       37
REMARK 921   NORMALIZED FREE ENERGY PREDICTED BY IDOCK:   -6.64 KCAL/MOL
REMARK 922        TOTAL FREE ENERGY PREDICTED BY IDOCK:  -10.23 KCAL/MOL
REMARK 923 INTER-LIGAND FREE ENERGY PREDICTED BY IDOCK:   -9.63 KCAL/MOL
REMARK 924 INTRA-LIGAND FREE ENERGY PREDICTED BY IDOCK:   -0.60 KCAL/MOL
REMARK 927      BINDING AFFINITY PREDICTED BY RF-SCORE:    0.00 PKD
ROOT
HETATM    1  C   UNL     1      -6.377  21.095  67.377  1.00  0.00    -0.430 C  
HETATM    2  C   UNL     1      -7.885  20.878  67.329  1.00  0.00    -0.172 C  
ENDROOT
BRANCH   2   3
HETATM    3  N   UNL     1      -8.340  20.043  66.204  1.00  0.00    -0.316 NA 
HETATM    4  C   UNL     1      -7.750  18.687  66.306  1.00  0.00    -0.264 C  
HETATM    5  C   UNL     1      -8.426  17.767  67.354  1.00  0.00    -0.226 C  
HETATM    6  N   UNL     1      -9.896  17.650  67.212  1.00  0.00    -0.293 NA 
HETATM    7  C   UNL     1      -9.809  19.933  66.104  1.00  0.00    -0.458 C  
HETATM    8  C   UNL     1     -10.463  19.017  67.166  1.00  0.00    -0.441 C  
BRANCH   6   9
HETATM    9  C   UNL     1     -10.288  16.899  66.002  1.00  0.00    -0.325 C  
BRANCH   9  10
HETATM   10  C   UNL     1     -10.569  15.447  66.265  1.00  0.00    -0.311 A  
HETATM   11  C   UNL     1      -9.533  14.535  66.442  1.00  0.00    -0.316 A  
HETATM   12  C   UNL     1      -9.842  13.201  66.665  1.00  0.00    -0.261 A  
HETATM   13  C   UNL     1     -11.177  12.792  66.704  1.00  0.00    -0.301 A  
HETATM   14  N   UNL     1     -12.193  13.667  66.559  1.00  0.00    -0.419 NA 
HETATM   15  C   UNL     1     -11.870  14.961  66.335  1.00  0.00    -0.131 A  
BRANCH  13  16
HETATM   16  N   UNL     1     -11.507  11.468  66.971  1.00  0.00    -0.496 NA 
HETATM   17  H   UNL     1     -11.774  10.890  66.174  1.00  0.00     0.000 HD 
BRANCH  16  18
HETATM   18  C   UNL     1     -11.508  10.857  68.215  1.00  0.00    -0.305 A  
HETATM   19  N   UNL     1     -11.967  11.576  69.250  1.00  0.00    -0.336 NA 
HETATM   20  C   UNL     1     -11.889  11.005  70.467  1.00  0.00    -0.367 A  
HETATM   21  C   UNL     1     -11.452   9.719  70.673  1.00  0.00    -0.324 A  
HETATM   22  F   UNL     1     -11.420   9.212  71.912  1.00  0.00    -0.387 F  
HETATM   23  C   UNL     1     -11.063   9.010  69.555  1.00  0.00    -0.024 A  
HETATM   24  N   UNL     1     -11.051   9.595  68.335  1.00  0.00    -0.105 NA 
BRANCH  23  25
HETATM   25  C   UNL     1     -10.682   7.578  69.568  1.00  0.00    -0.222 A  
HETATM   26  C   UNL     1     -10.572   6.858  68.365  1.00  0.00    -0.249 A  
HETATM   27  C   UNL     1     -10.180   5.520  68.347  1.00  0.00    -0.180 A  
HETATM   28  C   UNL     1      -9.882   4.859  69.543  1.00  0.00    -0.217 A  
HETATM   29  F   UNL     1     -10.094   4.887  67.167  1.00  0.00    -0.177 F  
HETATM   30  N   UNL     1      -9.491   3.570  69.760  1.00  0.00    -0.178 NA 
HETATM   31  C   UNL     1      -9.351   3.433  71.060  1.00  0.00    -0.142 A  
HETATM   32  N   UNL     1      -9.631   4.620  71.719  1.00  0.00    -0.150 NA 
HETATM   33  C   UNL     1      -8.956   2.143  71.680  1.00  0.00    -0.131 C  
HETATM   34  C   UNL     1     -10.366   6.913  70.783  1.00  0.00    -0.223 A  
HETATM   35  C   UNL     1      -9.976   5.555  70.748  1.00  0.00    -0.201 A  
BRANCH  32  36
HETATM   36  C   UNL     1      -9.664   4.883  73.159  1.00  0.00    -0.141 C  
HETATM   37  C   UNL     1      -8.337   4.710  73.908  1.00  0.00    -0.104 C  
HETATM   38  C   UNL     1     -10.764   4.071  73.845  1.00  0.00    -0.312 C  
ENDBRANCH  32  36
ENDBRANCH  23  25
ENDBRANCH  16  18
ENDBRANCH  13  16
ENDBRANCH   9  10
ENDBRANCH   6   9
ENDBRANCH   2   3
TORSDOF 7
ENDMDL
MODEL       38
REMARK 921   NORMALIZED FREE ENERGY PREDICTED BY IDOCK:   -6.63 KCAL/MOL
REMARK 922        TOTAL FREE ENERGY PREDICTED BY IDOCK:  -10.22 KCAL/MOL
REMARK 923 INTER-LIGAND FREE ENERGY PREDICTED BY IDOCK:   -9.30 KCAL/MOL
REMARK 924 INTRA-LIGAND FREE ENERGY PREDICTED BY IDOCK:   -0.92 KCAL/MOL
REMARK 927      BINDING AFFINITY PREDICTED BY RF-SCORE:    0.00 PKD
ROOT
HETATM    1  C   UNL     1     -12.453  15.611  74.376  1.00  0.00    -0.790 C  
HETATM    2  C   UNL     1     -12.875  14.603  73.314  1.00  0.00    -0.467 C  
ENDROOT
BRANCH   2   3
HETATM    3  N   UNL     1     -13.283  15.207  72.035  1.00  0.00    -0.348 NA 
HETATM    4  C   UNL     1     -12.265  16.187  71.587  1.00  0.00    -0.367 C  
HETATM    5  C   UNL     1     -10.994  15.557  70.964  1.00  0.00    -0.266 C  
HETATM    6  N   UNL     1     -11.258  14.594  69.869  1.00  0.00    -0.250 NA 
HETATM    7  C   UNL     1     -13.520  14.220  70.962  1.00  0.00    -0.216 C  
HETATM    8  C   UNL     1     -12.237  13.598  70.361  1.00  0.00    -0.363 C  
BRANCH   6   9
HETATM    9  C   UNL     1     -11.774  15.252  68.652  1.00  0.00    -0.346 C  
BRANCH   9  10
HETATM   10  C   UNL     1     -11.380  14.552  67.382  1.00  0.00    -0.370 A  
HETATM   11  C   UNL     1     -12.327  14.232  66.415  1.00  0.00    -0.378 A  
HETATM   12  C   UNL     1     -11.918  13.570  65.266  1.00  0.00    -0.397 A  
HETATM   13  C   UNL     1     -10.574  13.231  65.099  1.00  0.00    -0.330 A  
HETATM   14  N   UNL     1      -9.639  13.556  66.015  1.00  0.00    -0.213 NA 
HETATM   15  C   UNL     1     -10.060  14.195  67.131  1.00  0.00    -0.258 A  
BRANCH  13  16
HETATM   16  N   UNL     1     -10.138  12.608  63.935  1.00  0.00    -0.582 NA 
HETATM   17  H   UNL     1     -10.260  13.125  63.063  1.00  0.00     0.000 HD 
BRANCH  16  18
HETATM   18  C   UNL     1      -9.553  11.356  63.842  1.00  0.00    -0.216 A  
HETATM   19  N   UNL     1      -8.855  11.086  62.729  1.00  0.00    -0.274 NA 
HETATM   20  C   UNL     1      -8.359   9.840  62.610  1.00  0.00    -0.156 A  
HETATM   21  C   UNL     1      -8.462   8.888  63.595  1.00  0.00    -0.138 A  
HETATM   22  F   UNL     1      -7.927   7.674  63.412  1.00  0.00    -0.124 F  
HETATM   23  C   UNL     1      -9.131   9.255  64.744  1.00  0.00    -0.144 A  
HETATM   24  N   UNL     1      -9.712  10.473  64.847  1.00  0.00    -0.273 NA 
BRANCH  23  25
HETATM   25  C   UNL     1      -9.234   8.406  65.954  1.00  0.00    -0.217 A  
HETATM   26  C   UNL     1      -9.657   8.956  67.179  1.00  0.00    -0.225 A  
HETATM   27  C   UNL     1      -9.797   8.172  68.322  1.00  0.00    -0.171 A  
HETATM   28  C   UNL     1      -9.517   6.802  68.275  1.00  0.00    -0.125 A  
HETATM   29  F   UNL     1     -10.205   8.755  69.460  1.00  0.00    -0.187 F  
HETATM   30  N   UNL     1      -9.578   5.859  69.259  1.00  0.00    -0.137 NA 
HETATM   31  C   UNL     1      -9.203   4.723  68.714  1.00  0.00    -0.124 A  
HETATM   32  N   UNL     1      -8.903   4.890  67.371  1.00  0.00    -0.103 NA 
HETATM   33  C   UNL     1      -9.118   3.463  69.495  1.00  0.00    -0.202 C  
HETATM   34  C   UNL     1      -8.962   7.013  65.900  1.00  0.00    -0.092 A  
HETATM   35  C   UNL     1      -9.103   6.234  67.071  1.00  0.00    -0.123 A  
BRANCH  32  36
HETATM   36  C   UNL     1      -8.385   3.905  66.418  1.00  0.00    -0.105 C  
HETATM   37  C   UNL     1      -6.968   4.160  65.888  1.00  0.00    -0.066 C  
HETATM   38  C   UNL     1      -9.353   3.700  65.253  1.00  0.00    -0.158 C  
ENDBRANCH  32  36
ENDBRANCH  23  25
ENDBRANCH  16  18
ENDBRANCH  13  16
ENDBRANCH   9  10
ENDBRANCH   6   9
ENDBRANCH   2   3
TORSDOF 7
ENDMDL
MODEL       39
REMARK 921   NORMALIZED FREE ENERGY PREDICTED BY IDOCK:   -6.60 KCAL/MOL
REMARK 922        TOTAL FREE ENERGY PREDICTED BY IDOCK:  -10.18 KCAL/MOL
REMARK 923 INTER-LIGAND FREE ENERGY PREDICTED BY IDOCK:   -9.16 KCAL/MOL
REMARK 924 INTRA-LIGAND FREE ENERGY PREDICTED BY IDOCK:   -1.02 KCAL/MOL
REMARK 927      BINDING AFFINITY PREDICTED BY RF-SCORE:    0.00 PKD
ROOT
HETATM    1  C   UNL     1     -12.357  16.009  74.524  1.00  0.00    -0.698 C  
HETATM    2  C   UNL     1     -12.656  15.009  73.413  1.00  0.00    -0.518 C  
ENDROOT
BRANCH   2   3
HETATM    3  N   UNL     1     -12.992  15.626  72.119  1.00  0.00    -0.424 NA 
HETATM    4  C   UNL     1     -11.790  16.265  71.533  1.00  0.00    -0.380 C  
HETATM    5  C   UNL     1     -10.789  15.279  70.881  1.00  0.00    -0.179 C  
HETATM    6  N   UNL     1     -11.389  14.362  69.884  1.00  0.00    -0.247 NA 
HETATM    7  C   UNL     1     -13.571  14.680  71.144  1.00  0.00    -0.344 C  
HETATM    8  C   UNL     1     -12.554  13.699  70.513  1.00  0.00    -0.267 C  
BRANCH   6   9
HETATM    9  C   UNL     1     -11.810  15.063  68.654  1.00  0.00    -0.296 C  
BRANCH   9  10
HETATM   10  C   UNL     1     -11.514  14.295  67.398  1.00  0.00    -0.368 A  
HETATM   11  C   UNL     1     -10.209  13.959  67.051  1.00  0.00    -0.254 A  
HETATM   12  C   UNL     1      -9.984  13.263  65.872  1.00  0.00    -0.280 A  
HETATM   13  C   UNL     1     -11.059  12.918  65.051  1.00  0.00    -0.292 A  
HETATM   14  N   UNL     1     -12.332  13.214  65.384  1.00  0.00    -0.459 NA 
HETATM   15  C   UNL     1     -12.529  13.898  66.534  1.00  0.00    -0.321 A  
BRANCH  13  16
HETATM   16  N   UNL     1     -10.858  12.182  63.889  1.00  0.00    -0.364 NA 
HETATM   17  H   UNL     1     -11.513  12.342  63.123  1.00  0.00     0.000 HD 
BRANCH  16  18
HETATM   18  C   UNL     1      -9.854  11.252  63.669  1.00  0.00    -0.340 A  
HETATM   19  N   UNL     1      -9.048  11.458  62.617  1.00  0.00    -0.306 NA 
HETATM   20  C   UNL     1      -8.129  10.509  62.361  1.00  0.00    -0.184 A  
HETATM   21  C   UNL     1      -7.930   9.412  63.164  1.00  0.00    -0.143 A  
HETATM   22  F   UNL     1      -6.982   8.517  62.856  1.00  0.00    -0.089 F  
HETATM   23  C   UNL     1      -8.746   9.298  64.271  1.00  0.00    -0.175 A  
HETATM   24  N   UNL     1      -9.734  10.196  64.496  1.00  0.00    -0.312 NA 
BRANCH  23  25
HETATM   25  C   UNL     1      -8.598   8.254  65.311  1.00  0.00    -0.159 A  
HETATM   26  C   UNL     1      -8.189   6.953  64.964  1.00  0.00    -0.096 A  
HETATM   27  C   UNL     1      -8.007   5.963  65.928  1.00  0.00    -0.109 A  
HETATM   28  C   UNL     1      -8.229   6.247  67.280  1.00  0.00    -0.109 A  
HETATM   29  F   UNL     1      -7.616   4.741  65.534  1.00  0.00    -0.080 F  
HETATM   30  N   UNL     1      -8.121   5.442  68.376  1.00  0.00    -0.091 NA 
HETATM   31  C   UNL     1      -8.451   6.176  69.415  1.00  0.00    -0.120 A  
HETATM   32  N   UNL     1      -8.768   7.469  69.031  1.00  0.00    -0.136 NA 
HETATM   33  C   UNL     1      -8.476   5.626  70.794  1.00  0.00    -0.124 C  
HETATM   34  C   UNL     1      -8.811   8.549  66.685  1.00  0.00    -0.157 A  
HETATM   35  C   UNL     1      -8.627   7.532  67.648  1.00  0.00    -0.119 A  
BRANCH  32  36
HETATM   36  C   UNL     1      -9.251   8.579  69.857  1.00  0.00    -0.154 C  
HETATM   37  C   UNL     1      -8.373   8.961  71.055  1.00  0.00    -0.233 C  
HETATM   38  C   UNL     1     -10.690   8.342  70.315  1.00  0.00    -0.237 C  
ENDBRANCH  32  36
ENDBRANCH  23  25
ENDBRANCH  16  18
ENDBRANCH  13  16
ENDBRANCH   9  10
ENDBRANCH   6   9
ENDBRANCH   2   3
TORSDOF 7
ENDMDL
MODEL       40
REMARK 921   NORMALIZED FREE ENERGY PREDICTED BY IDOCK:   -6.57 KCAL/MOL
REMARK 922        TOTAL FREE ENERGY PREDICTED BY IDOCK:  -10.14 KCAL/MOL
REMARK 923 INTER-LIGAND FREE ENERGY PREDICTED BY IDOCK:   -9.48 KCAL/MOL
REMARK 924 INTRA-LIGAND FREE ENERGY PREDICTED BY IDOCK:   -0.66 KCAL/MOL
REMARK 927      BINDING AFFINITY PREDICTED BY RF-SCORE:    0.00 PKD
ROOT
HETATM    1  C   UNL     1      -5.222   2.268  67.381  1.00  0.00    -0.012 C  
HETATM    2  C   UNL     1      -5.242   1.945  68.870  1.00  0.00    -0.012 C  
ENDROOT
BRANCH   2   3
HETATM    3  N   UNL     1      -6.571   2.048  69.494  1.00  0.00    -0.029 NA 
HETATM    4  C   UNL     1      -6.444   2.013  70.971  1.00  0.00    -0.023 C  
HETATM    5  C   UNL     1      -5.966   3.342  71.608  1.00  0.00    -0.013 C  
HETATM    6  N   UNL     1      -6.754   4.533  71.215  1.00  0.00    -0.030 NA 
HETATM    7  C   UNL     1      -7.322   3.255  69.094  1.00  0.00    -0.049 C  
HETATM    8  C   UNL     1      -6.820   4.571  69.736  1.00  0.00    -0.041 C  
BRANCH   6   9
HETATM    9  C   UNL     1      -8.118   4.518  71.781  1.00  0.00    -0.102 C  
BRANCH   9  10
HETATM   10  C   UNL     1      -9.015   5.577  71.206  1.00  0.00    -0.153 A  
HETATM   11  C   UNL     1     -10.192   5.242  70.545  1.00  0.00    -0.334 A  
HETATM   12  C   UNL     1     -10.979   6.254  70.016  1.00  0.00    -0.422 A  
HETATM   13  C   UNL     1     -10.581   7.586  70.146  1.00  0.00    -0.235 A  
HETATM   14  N   UNL     1      -9.456   7.931  70.805  1.00  0.00    -0.158 NA 
HETATM   15  C   UNL     1      -8.699   6.928  71.307  1.00  0.00    -0.134 A  
BRANCH  13  16
HETATM   16  N   UNL     1     -11.379   8.617  69.662  1.00  0.00    -0.434 NA 
HETATM   17  H   UNL     1     -11.602   8.597  68.667  1.00  0.00     0.000 HD 
BRANCH  16  18
HETATM   18  C   UNL     1     -11.901   9.667  70.400  1.00  0.00    -0.155 A  
HETATM   19  N   UNL     1     -12.543   9.359  71.536  1.00  0.00    -0.340 NA 
HETATM   20  C   UNL     1     -13.118  10.376  72.204  1.00  0.00    -0.324 A  
HETATM   21  C   UNL     1     -13.000  11.692  71.825  1.00  0.00    -0.377 A  
HETATM   22  F   UNL     1     -13.585  12.654  72.551  1.00  0.00    -0.622 F  
HETATM   23  C   UNL     1     -12.265  11.946  70.686  1.00  0.00    -0.331 A  
HETATM   24  N   UNL     1     -11.754  10.930  69.953  1.00  0.00    -0.307 NA 
BRANCH  23  25
HETATM   25  C   UNL     1     -11.929  13.303  70.197  1.00  0.00    -0.388 A  
HETATM   26  C   UNL     1     -11.857  14.387  71.092  1.00  0.00    -0.316 A  
HETATM   27  C   UNL     1     -11.508  15.666  70.662  1.00  0.00    -0.375 A  
HETATM   28  C   UNL     1     -11.217  15.902  69.314  1.00  0.00    -0.335 A  
HETATM   29  F   UNL     1     -11.455  16.659  71.564  1.00  0.00    -0.436 F  
HETATM   30  N   UNL     1     -10.865  17.057  68.680  1.00  0.00    -0.321 NA 
HETATM   31  C   UNL     1     -10.715  16.758  67.409  1.00  0.00    -0.244 A  
HETATM   32  N   UNL     1     -10.950  15.411  67.183  1.00  0.00    -0.326 NA 
HETATM   33  C   UNL     1     -10.355  17.781  66.394  1.00  0.00    -0.351 C  
HETATM   34  C   UNL     1     -11.622  13.537  68.830  1.00  0.00    -0.362 A  
HETATM   35  C   UNL     1     -11.275  14.841  68.411  1.00  0.00    -0.284 A  
BRANCH  32  36
HETATM   36  C   UNL     1     -10.958  14.682  65.913  1.00  0.00    -0.332 C  
HETATM   37  C   UNL     1     -12.330  14.213  65.413  1.00  0.00    -0.475 C  
HETATM   38  C   UNL     1      -9.981  13.506  65.943  1.00  0.00    -0.295 C  
ENDBRANCH  32  36
ENDBRANCH  23  25
ENDBRANCH  16  18
ENDBRANCH  13  16
ENDBRANCH   9  10
ENDBRANCH   6   9
ENDBRANCH   2   3
TORSDOF 7
ENDMDL
MODEL       41
REMARK 921   NORMALIZED FREE ENERGY PREDICTED BY IDOCK:   -6.55 KCAL/MOL
REMARK 922        TOTAL FREE ENERGY PREDICTED BY IDOCK:  -10.10 KCAL/MOL
REMARK 923 INTER-LIGAND FREE ENERGY PREDICTED BY IDOCK:   -9.60 KCAL/MOL
REMARK 924 INTRA-LIGAND FREE ENERGY PREDICTED BY IDOCK:   -0.50 KCAL/MOL
REMARK 927      BINDING AFFINITY PREDICTED BY RF-SCORE:    0.00 PKD
ROOT
HETATM    1  C   UNL     1      -9.142   1.508  68.578  1.00  0.00    -0.181 C  
HETATM    2  C   UNL     1      -9.102   1.866  67.096  1.00  0.00    -0.099 C  
ENDROOT
BRANCH   2   3
HETATM    3  N   UNL     1      -8.006   2.776  66.724  1.00  0.00    -0.076 NA 
HETATM    4  C   UNL     1      -8.428   3.646  65.600  1.00  0.00    -0.110 C  
HETATM    5  C   UNL     1      -9.357   4.818  66.004  1.00  0.00    -0.156 C  
HETATM    6  N   UNL     1      -8.839   5.662  67.106  1.00  0.00    -0.108 NA 
HETATM    7  C   UNL     1      -7.527   3.615  67.841  1.00  0.00    -0.062 C  
HETATM    8  C   UNL     1      -8.476   4.773  68.233  1.00  0.00    -0.098 C  
BRANCH   6   9
HETATM    9  C   UNL     1      -7.669   6.465  66.698  1.00  0.00    -0.099 C  
BRANCH   9  10
HETATM   10  C   UNL     1      -8.036   7.783  66.078  1.00  0.00    -0.117 A  
HETATM   11  C   UNL     1      -7.862   8.011  64.717  1.00  0.00    -0.131 A  
HETATM   12  C   UNL     1      -8.200   9.250  64.193  1.00  0.00    -0.159 A  
HETATM   13  C   UNL     1      -8.700  10.248  65.031  1.00  0.00    -0.182 A  
HETATM   14  N   UNL     1      -8.899  10.036  66.348  1.00  0.00    -0.141 NA 
HETATM   15  C   UNL     1      -8.557   8.823  66.841  1.00  0.00    -0.115 A  
BRANCH  13  16
HETATM   16  N   UNL     1      -9.086  11.480  64.517  1.00  0.00    -0.405 NA 
HETATM   17  H   UNL     1      -8.455  11.917  63.845  1.00  0.00     0.000 HD 
BRANCH  16  18
HETATM   18  C   UNL     1     -10.245  12.174  64.828  1.00  0.00    -0.281 A  
HETATM   19  N   UNL     1     -11.317  11.955  64.053  1.00  0.00    -0.376 NA 
HETATM   20  C   UNL     1     -12.413  12.693  64.310  1.00  0.00    -0.411 A  
HETATM   21  C   UNL     1     -12.503  13.573  65.362  1.00  0.00    -0.497 A  
HETATM   22  F   UNL     1     -13.635  14.260  65.567  1.00  0.00    -0.386 F  
HETATM   23  C   UNL     1     -11.387  13.697  66.164  1.00  0.00    -0.312 A  
HETATM   24  N   UNL     1     -10.247  13.029  65.869  1.00  0.00    -0.288 NA 
BRANCH  23  25
HETATM   25  C   UNL     1     -11.341  14.500  67.407  1.00  0.00    -0.370 A  
HETATM   26  C   UNL     1     -10.857  15.821  67.386  1.00  0.00    -0.306 A  
HETATM   27  C   UNL     1     -10.837  16.610  68.535  1.00  0.00    -0.356 A  
HETATM   28  C   UNL     1     -11.305  16.097  69.750  1.00  0.00    -0.323 A  
HETATM   29  F   UNL     1     -10.364  17.863  68.451  1.00  0.00    -0.326 F  
HETATM   30  N   UNL     1     -11.372  16.679  70.982  1.00  0.00    -0.073 NA 
HETATM   31  C   UNL     1     -11.875  15.779  71.796  1.00  0.00    -0.467 A  
HETATM   32  N   UNL     1     -12.160  14.601  71.123  1.00  0.00    -0.325 NA 
HETATM   33  C   UNL     1     -12.074  16.046  73.244  1.00  0.00    -0.605 C  
HETATM   34  C   UNL     1     -11.830  13.981  68.636  1.00  0.00    -0.396 A  
HETATM   35  C   UNL     1     -11.797  14.793  69.793  1.00  0.00    -0.316 A  
BRANCH  32  36
HETATM   36  C   UNL     1     -12.661  13.335  71.661  1.00  0.00    -0.230 C  
HETATM   37  C   UNL     1     -12.390  12.086  70.813  1.00  0.00    -0.403 C  
HETATM   38  C   UNL     1     -14.150  13.428  71.999  1.00  0.00    -0.313 C  
ENDBRANCH  32  36
ENDBRANCH  23  25
ENDBRANCH  16  18
ENDBRANCH  13  16
ENDBRANCH   9  10
ENDBRANCH   6   9
ENDBRANCH   2   3
TORSDOF 7
ENDMDL
MODEL       42
REMARK 921   NORMALIZED FREE ENERGY PREDICTED BY IDOCK:   -6.54 KCAL/MOL
REMARK 922        TOTAL FREE ENERGY PREDICTED BY IDOCK:  -10.09 KCAL/MOL
REMARK 923 INTER-LIGAND FREE ENERGY PREDICTED BY IDOCK:   -9.17 KCAL/MOL
REMARK 924 INTRA-LIGAND FREE ENERGY PREDICTED BY IDOCK:   -0.92 KCAL/MOL
REMARK 927      BINDING AFFINITY PREDICTED BY RF-SCORE:    0.00 PKD
ROOT
HETATM    1  C   UNL     1      -5.309   8.968  62.357  1.00  0.00    -0.082 C  
HETATM    2  C   UNL     1      -6.260   9.189  63.527  1.00  0.00    -0.089 C  
ENDROOT
BRANCH   2   3
HETATM    3  N   UNL     1      -6.030   8.292  64.672  1.00  0.00    -0.055 NA 
HETATM    4  C   UNL     1      -7.065   8.516  65.709  1.00  0.00    -0.075 C  
HETATM    5  C   UNL     1      -8.442   7.877  65.396  1.00  0.00    -0.119 C  
HETATM    6  N   UNL     1      -8.389   6.434  65.063  1.00  0.00    -0.122 NA 
HETATM    7  C   UNL     1      -6.002   6.861  64.307  1.00  0.00    -0.036 C  
HETATM    8  C   UNL     1      -7.387   6.247  63.990  1.00  0.00    -0.072 C  
BRANCH   6   9
HETATM    9  C   UNL     1      -8.040   5.599  66.230  1.00  0.00    -0.107 C  
BRANCH   9  10
HETATM   10  C   UNL     1      -8.886   5.881  67.440  1.00  0.00    -0.106 A  
HETATM   11  C   UNL     1     -10.274   5.840  67.372  1.00  0.00    -0.243 A  
HETATM   12  C   UNL     1     -11.013   6.124  68.511  1.00  0.00    -0.404 A  
HETATM   13  C   UNL     1     -10.360   6.451  69.701  1.00  0.00    -0.204 A  
HETATM   14  N   UNL     1      -9.014   6.471  69.791  1.00  0.00    -0.142 NA 
HETATM   15  C   UNL     1      -8.313   6.198  68.667  1.00  0.00    -0.114 A  
BRANCH  13  16
HETATM   16  N   UNL     1     -11.082   6.695  70.864  1.00  0.00    -0.269 NA 
HETATM   17  H   UNL     1     -11.145   5.929  71.535  1.00  0.00     0.000 HD 
BRANCH  16  18
HETATM   18  C   UNL     1     -11.723   7.876  71.201  1.00  0.00    -0.285 A  
HETATM   19  N   UNL     1     -12.505   7.859  72.291  1.00  0.00    -0.265 NA 
HETATM   20  C   UNL     1     -13.188   8.986  72.565  1.00  0.00    -0.406 A  
HETATM   21  C   UNL     1     -13.053  10.147  71.844  1.00  0.00    -0.466 A  
HETATM   22  F   UNL     1     -13.753  11.236  72.188  1.00  0.00    -0.421 F  
HETATM   23  C   UNL     1     -12.177  10.117  70.779  1.00  0.00    -0.338 A  
HETATM   24  N   UNL     1     -11.547   8.969  70.434  1.00  0.00    -0.180 NA 
BRANCH  23  25
HETATM   25  C   UNL     1     -11.811  11.301  69.967  1.00  0.00    -0.448 A  
HETATM   26  C   UNL     1     -11.244  11.143  68.689  1.00  0.00    -0.314 A  
HETATM   27  C   UNL     1     -10.925  12.241  67.891  1.00  0.00    -0.224 A  
HETATM   28  C   UNL     1     -11.168  13.540  68.351  1.00  0.00    -0.278 A  
HETATM   29  F   UNL     1     -10.386  12.026  66.681  1.00  0.00    -0.218 F  
HETATM   30  N   UNL     1     -10.932  14.742  67.751  1.00  0.00    -0.282 NA 
HETATM   31  C   UNL     1     -11.321  15.668  68.599  1.00  0.00    -0.357 A  
HETATM   32  N   UNL     1     -11.828  15.101  69.757  1.00  0.00    -0.313 NA 
HETATM   33  C   UNL     1     -11.193  17.117  68.300  1.00  0.00     0.028 C  
HETATM   34  C   UNL     1     -12.071  12.619  70.431  1.00  0.00    -0.381 A  
HETATM   35  C   UNL     1     -11.736  13.720  69.611  1.00  0.00    -0.318 A  
BRANCH  32  36
HETATM   36  C   UNL     1     -12.300  15.767  70.973  1.00  0.00    -0.415 C  
HETATM   37  C   UNL     1     -11.456  15.548  72.235  1.00  0.00    -0.496 C  
HETATM   38  C   UNL     1     -13.765  15.428  71.256  1.00  0.00    -0.558 C  
ENDBRANCH  32  36
ENDBRANCH  23  25
ENDBRANCH  16  18
ENDBRANCH  13  16
ENDBRANCH   9  10
ENDBRANCH   6   9
ENDBRANCH   2   3
TORSDOF 7
ENDMDL
MODEL       43
REMARK 921   NORMALIZED FREE ENERGY PREDICTED BY IDOCK:   -6.53 KCAL/MOL
REMARK 922        TOTAL FREE ENERGY PREDICTED BY IDOCK:  -10.07 KCAL/MOL
REMARK 923 INTER-LIGAND FREE ENERGY PREDICTED BY IDOCK:   -8.93 KCAL/MOL
REMARK 924 INTRA-LIGAND FREE ENERGY PREDICTED BY IDOCK:   -1.14 KCAL/MOL
REMARK 927      BINDING AFFINITY PREDICTED BY RF-SCORE:    0.00 PKD
ROOT
HETATM    1  C   UNL     1      -9.708  20.706  67.677  1.00  0.00    -0.445 C  
HETATM    2  C   UNL     1      -9.844  19.396  68.444  1.00  0.00    -0.428 C  
ENDROOT
BRANCH   2   3
HETATM    3  N   UNL     1      -9.047  18.287  67.893  1.00  0.00    -0.274 NA 
HETATM    4  C   UNL     1      -9.415  17.016  68.560  1.00  0.00    -0.269 C  
HETATM    5  C   UNL     1     -10.748  16.393  68.071  1.00  0.00    -0.334 C  
HETATM    6  N   UNL     1     -10.843  16.219  66.603  1.00  0.00    -0.189 NA 
HETATM    7  C   UNL     1      -9.180  18.131  66.430  1.00  0.00    -0.255 C  
HETATM    8  C   UNL     1     -10.522  17.516  65.966  1.00  0.00    -0.274 C  
BRANCH   6   9
HETATM    9  C   UNL     1      -9.934  15.170  66.100  1.00  0.00    -0.295 C  
BRANCH   9  10
HETATM   10  C   UNL     1     -10.230  13.806  66.657  1.00  0.00    -0.276 A  
HETATM   11  C   UNL     1      -9.340  13.173  67.518  1.00  0.00    -0.207 A  
HETATM   12  C   UNL     1      -9.648  11.907  67.993  1.00  0.00    -0.193 A  
HETATM   13  C   UNL     1     -10.836  11.285  67.599  1.00  0.00    -0.238 A  
HETATM   14  N   UNL     1     -11.721  11.895  66.786  1.00  0.00    -0.590 NA 
HETATM   15  C   UNL     1     -11.398  13.126  66.328  1.00  0.00    -0.315 A  
BRANCH  13  16
HETATM   16  N   UNL     1     -11.183  10.036  68.101  1.00  0.00    -0.502 NA 
HETATM   17  H   UNL     1     -11.081   9.242  67.468  1.00  0.00     0.000 HD 
BRANCH  16  18
HETATM   18  C   UNL     1     -11.655   9.764  69.375  1.00  0.00     0.125 A  
HETATM   19  N   UNL     1     -12.712  10.471  69.800  1.00  0.00    -0.108 NA 
HETATM   20  C   UNL     1     -13.114  10.260  71.068  1.00  0.00    -0.373 A  
HETATM   21  C   UNL     1     -12.555   9.311  71.890  1.00  0.00    -0.390 A  
HETATM   22  F   UNL     1     -13.020   9.144  73.135  1.00  0.00    -0.327 F  
HETATM   23  C   UNL     1     -11.519   8.568  71.364  1.00  0.00    -0.287 A  
HETATM   24  N   UNL     1     -11.043   8.826  70.123  1.00  0.00    -0.236 NA 
BRANCH  23  25
HETATM   25  C   UNL     1     -10.879   7.424  72.055  1.00  0.00    -0.263 A  
HETATM   26  C   UNL     1     -11.644   6.312  72.454  1.00  0.00    -0.325 A  
HETATM   27  C   UNL     1     -11.061   5.208  73.073  1.00  0.00    -0.314 A  
HETATM   28  C   UNL     1      -9.683   5.183  73.313  1.00  0.00    -0.145 A  
HETATM   29  F   UNL     1     -11.844   4.178  73.429  1.00  0.00    -0.336 F  
HETATM   30  N   UNL     1      -8.912   4.224  73.903  1.00  0.00    -0.095 NA 
HETATM   31  C   UNL     1      -7.680   4.681  73.904  1.00  0.00    -0.094 A  
HETATM   32  N   UNL     1      -7.611   5.931  73.310  1.00  0.00    -0.098 NA 
HETATM   33  C   UNL     1      -6.553   3.914  74.495  1.00  0.00    -0.041 C  
HETATM   34  C   UNL     1      -9.478   7.395  72.286  1.00  0.00    -0.180 A  
HETATM   35  C   UNL     1      -8.904   6.270  72.920  1.00  0.00    -0.124 A  
BRANCH  32  36
HETATM   36  C   UNL     1      -6.454   6.817  73.168  1.00  0.00    -0.063 C  
HETATM   37  C   UNL     1      -6.495   8.117  73.981  1.00  0.00    -0.136 C  
HETATM   38  C   UNL     1      -6.170   7.126  71.697  1.00  0.00    -0.037 C  
ENDBRANCH  32  36
ENDBRANCH  23  25
ENDBRANCH  16  18
ENDBRANCH  13  16
ENDBRANCH   9  10
ENDBRANCH   6   9
ENDBRANCH   2   3
TORSDOF 7
ENDMDL
MODEL       44
REMARK 921   NORMALIZED FREE ENERGY PREDICTED BY IDOCK:   -6.51 KCAL/MOL
REMARK 922        TOTAL FREE ENERGY PREDICTED BY IDOCK:  -10.05 KCAL/MOL
REMARK 923 INTER-LIGAND FREE ENERGY PREDICTED BY IDOCK:   -9.52 KCAL/MOL
REMARK 924 INTRA-LIGAND FREE ENERGY PREDICTED BY IDOCK:   -0.53 KCAL/MOL
REMARK 927      BINDING AFFINITY PREDICTED BY RF-SCORE:    0.00 PKD
ROOT
HETATM    1  C   UNL     1      -9.932  20.179  67.150  1.00  0.00    -0.595 C  
HETATM    2  C   UNL     1      -9.991  18.924  66.287  1.00  0.00    -0.388 C  
ENDROOT
BRANCH   2   3
HETATM    3  N   UNL     1      -9.259  17.773  66.841  1.00  0.00    -0.251 NA 
HETATM    4  C   UNL     1      -9.817  17.405  68.164  1.00  0.00    -0.301 C  
HETATM    5  C   UNL     1     -11.149  16.616  68.105  1.00  0.00    -0.285 C  
HETATM    6  N   UNL     1     -11.116  15.415  67.238  1.00  0.00    -0.322 NA 
HETATM    7  C   UNL     1      -9.261  16.588  65.960  1.00  0.00    -0.260 C  
HETATM    8  C   UNL     1     -10.605  15.822  65.910  1.00  0.00    -0.339 C  
BRANCH   6   9
HETATM    9  C   UNL     1     -10.271  14.340  67.797  1.00  0.00    -0.235 C  
BRANCH   9  10
HETATM   10  C   UNL     1     -10.997  13.454  68.769  1.00  0.00    -0.290 A  
HETATM   11  C   UNL     1     -11.094  12.083  68.556  1.00  0.00    -0.289 A  
HETATM   12  C   UNL     1     -11.789  11.307  69.473  1.00  0.00    -0.427 A  
HETATM   13  C   UNL     1     -12.383  11.908  70.585  1.00  0.00    -0.313 A  
HETATM   14  N   UNL     1     -12.277  13.232  70.819  1.00  0.00    -0.353 NA 
HETATM   15  C   UNL     1     -11.601  13.971  69.910  1.00  0.00    -0.254 A  
BRANCH  13  16
HETATM   16  N   UNL     1     -13.045  11.142  71.538  1.00  0.00    -0.424 NA 
HETATM   17  H   UNL     1     -13.647  11.641  72.192  1.00  0.00     0.000 HD 
BRANCH  16  18
HETATM   18  C   UNL     1     -12.966   9.766  71.685  1.00  0.00    -0.419 A  
HETATM   19  N   UNL     1     -14.087   9.062  71.466  1.00  0.00    -0.308 NA 
HETATM   20  C   UNL     1     -14.024   7.736  71.691  1.00  0.00    -0.402 A  
HETATM   21  C   UNL     1     -12.867   7.082  72.039  1.00  0.00    -0.167 A  
HETATM   22  F   UNL     1     -12.877   5.756  72.228  1.00  0.00    -0.222 F  
HETATM   23  C   UNL     1     -11.734   7.857  72.177  1.00  0.00    -0.333 A  
HETATM   24  N   UNL     1     -11.796   9.202  72.042  1.00  0.00    -0.360 NA 
BRANCH  23  25
HETATM   25  C   UNL     1     -10.378   7.314  72.427  1.00  0.00    -0.241 A  
HETATM   26  C   UNL     1      -9.478   7.997  73.265  1.00  0.00    -0.336 A  
HETATM   27  C   UNL     1      -8.211   7.489  73.545  1.00  0.00    -0.138 A  
HETATM   28  C   UNL     1      -7.803   6.270  72.991  1.00  0.00    -0.103 A  
HETATM   29  F   UNL     1      -7.398   8.187  74.352  1.00  0.00    -0.160 F  
HETATM   30  N   UNL     1      -6.624   5.598  73.121  1.00  0.00    -0.067 NA 
HETATM   31  C   UNL     1      -6.730   4.509  72.392  1.00  0.00    -0.046 A  
HETATM   32  N   UNL     1      -7.973   4.436  71.783  1.00  0.00    -0.087 NA 
HETATM   33  C   UNL     1      -5.619   3.531  72.266  1.00  0.00    -0.008 C  
HETATM   34  C   UNL     1      -9.972   6.070  71.874  1.00  0.00    -0.195 A  
HETATM   35  C   UNL     1      -8.682   5.572  72.163  1.00  0.00    -0.130 A  
BRANCH  32  36
HETATM   36  C   UNL     1      -8.475   3.434  70.840  1.00  0.00    -0.066 C  
HETATM   37  C   UNL     1      -9.055   3.973  69.527  1.00  0.00    -0.190 C  
HETATM   38  C   UNL     1      -9.478   2.496  71.513  1.00  0.00    -0.211 C  
ENDBRANCH  32  36
ENDBRANCH  23  25
ENDBRANCH  16  18
ENDBRANCH  13  16
ENDBRANCH   9  10
ENDBRANCH   6   9
ENDBRANCH   2   3
TORSDOF 7
ENDMDL
MODEL       45
REMARK 921   NORMALIZED FREE ENERGY PREDICTED BY IDOCK:   -6.47 KCAL/MOL
REMARK 922        TOTAL FREE ENERGY PREDICTED BY IDOCK:   -9.99 KCAL/MOL
REMARK 923 INTER-LIGAND FREE ENERGY PREDICTED BY IDOCK:   -9.33 KCAL/MOL
REMARK 924 INTRA-LIGAND FREE ENERGY PREDICTED BY IDOCK:   -0.66 KCAL/MOL
REMARK 927      BINDING AFFINITY PREDICTED BY RF-SCORE:    0.00 PKD
ROOT
HETATM    1  C   UNL     1      -8.599  20.098  67.343  1.00  0.00    -0.413 C  
HETATM    2  C   UNL     1      -8.780  18.611  67.063  1.00  0.00    -0.280 C  
ENDROOT
BRANCH   2   3
HETATM    3  N   UNL     1     -10.163  18.130  67.217  1.00  0.00    -0.350 NA 
HETATM    4  C   UNL     1     -10.477  17.138  66.161  1.00  0.00    -0.275 C  
HETATM    5  C   UNL     1      -9.886  15.727  66.407  1.00  0.00    -0.276 C  
HETATM    6  N   UNL     1     -10.207  15.147  67.732  1.00  0.00    -0.235 NA 
HETATM    7  C   UNL     1     -10.444  17.543  68.543  1.00  0.00    -0.361 C  
HETATM    8  C   UNL     1      -9.836  16.138  68.768  1.00  0.00    -0.230 C  
BRANCH   6   9
HETATM    9  C   UNL     1     -11.635  14.793  67.861  1.00  0.00    -0.351 C  
BRANCH   9  10
HETATM   10  C   UNL     1     -11.879  13.617  68.765  1.00  0.00    -0.395 A  
HETATM   11  C   UNL     1     -11.725  12.314  68.306  1.00  0.00    -0.392 A  
HETATM   12  C   UNL     1     -11.978  11.260  69.173  1.00  0.00    -0.405 A  
HETATM   13  C   UNL     1     -12.388  11.519  70.482  1.00  0.00    -0.342 A  
HETATM   14  N   UNL     1     -12.518  12.777  70.951  1.00  0.00    -0.345 NA 
HETATM   15  C   UNL     1     -12.273  13.790  70.088  1.00  0.00    -0.356 A  
BRANCH  13  16
HETATM   16  N   UNL     1     -12.603  10.478  71.378  1.00  0.00    -0.404 NA 
HETATM   17  H   UNL     1     -13.283  10.643  72.121  1.00  0.00     0.000 HD 
BRANCH  16  18
HETATM   18  C   UNL     1     -11.983   9.239  71.362  1.00  0.00    -0.351 A  
HETATM   19  N   UNL     1     -12.095   8.484  72.465  1.00  0.00    -0.375 NA 
HETATM   20  C   UNL     1     -11.423   7.317  72.472  1.00  0.00    -0.281 A  
HETATM   21  C   UNL     1     -10.719   6.843  71.392  1.00  0.00    -0.221 A  
HETATM   22  F   UNL     1     -10.090   5.663  71.467  1.00  0.00    -0.207 F  
HETATM   23  C   UNL     1     -10.706   7.637  70.264  1.00  0.00    -0.239 A  
HETATM   24  N   UNL     1     -11.301   8.852  70.267  1.00  0.00    -0.210 NA 
BRANCH  23  25
HETATM   25  C   UNL     1     -10.105   7.235  68.970  1.00  0.00    -0.186 A  
HETATM   26  C   UNL     1     -10.239   5.916  68.500  1.00  0.00    -0.240 A  
HETATM   27  C   UNL     1      -9.715   5.522  67.270  1.00  0.00    -0.139 A  
HETATM   28  C   UNL     1      -9.037   6.445  66.465  1.00  0.00    -0.151 A  
HETATM   29  F   UNL     1      -9.875   4.249  66.876  1.00  0.00    -0.196 F  
HETATM   30  N   UNL     1      -8.447   6.281  65.247  1.00  0.00    -0.140 NA 
HETATM   31  C   UNL     1      -7.933   7.445  64.918  1.00  0.00    -0.128 A  
HETATM   32  N   UNL     1      -8.182   8.394  65.897  1.00  0.00    -0.116 NA 
HETATM   33  C   UNL     1      -7.179   7.648  63.654  1.00  0.00    -0.079 C  
HETATM   34  C   UNL     1      -9.430   8.178  68.149  1.00  0.00    -0.150 A  
HETATM   35  C   UNL     1      -8.900   7.760  66.907  1.00  0.00    -0.131 A  
BRANCH  32  36
HETATM   36  C   UNL     1      -7.731   9.786  65.961  1.00  0.00    -0.104 C  
HETATM   37  C   UNL     1      -6.768  10.131  67.104  1.00  0.00    -0.074 C  
HETATM   38  C   UNL     1      -8.916  10.752  65.963  1.00  0.00    -0.196 C  
ENDBRANCH  32  36
ENDBRANCH  23  25
ENDBRANCH  16  18
ENDBRANCH  13  16
ENDBRANCH   9  10
ENDBRANCH   6   9
ENDBRANCH   2   3
TORSDOF 7
ENDMDL
MODEL       46
REMARK 921   NORMALIZED FREE ENERGY PREDICTED BY IDOCK:   -6.46 KCAL/MOL
REMARK 922        TOTAL FREE ENERGY PREDICTED BY IDOCK:   -9.98 KCAL/MOL
REMARK 923 INTER-LIGAND FREE ENERGY PREDICTED BY IDOCK:   -9.36 KCAL/MOL
REMARK 924 INTRA-LIGAND FREE ENERGY PREDICTED BY IDOCK:   -0.62 KCAL/MOL
REMARK 927      BINDING AFFINITY PREDICTED BY RF-SCORE:    0.00 PKD
ROOT
HETATM    1  C   UNL     1      -9.881  19.853  66.190  1.00  0.00    -0.562 C  
HETATM    2  C   UNL     1     -10.536  18.495  66.417  1.00  0.00    -0.406 C  
ENDROOT
BRANCH   2   3
HETATM    3  N   UNL     1      -9.624  17.463  66.937  1.00  0.00    -0.267 NA 
HETATM    4  C   UNL     1     -10.036  17.062  68.304  1.00  0.00    -0.285 C  
HETATM    5  C   UNL     1     -11.256  16.108  68.356  1.00  0.00    -0.358 C  
HETATM    6  N   UNL     1     -11.127  14.898  67.511  1.00  0.00    -0.307 NA 
HETATM    7  C   UNL     1      -9.534  16.264  66.080  1.00  0.00    -0.339 C  
HETATM    8  C   UNL     1     -10.767  15.331  66.142  1.00  0.00    -0.320 C  
BRANCH   6   9
HETATM    9  C   UNL     1     -10.113  13.956  68.026  1.00  0.00    -0.244 C  
BRANCH   9  10
HETATM   10  C   UNL     1     -10.704  12.711  68.624  1.00  0.00    -0.269 A  
HETATM   11  C   UNL     1     -10.506  11.467  68.035  1.00  0.00    -0.214 A  
HETATM   12  C   UNL     1     -11.086  10.348  68.615  1.00  0.00    -0.313 A  
HETATM   13  C   UNL     1     -11.861  10.483  69.769  1.00  0.00    -0.257 A  
HETATM   14  N   UNL     1     -12.042  11.678  70.367  1.00  0.00    -0.374 NA 
HETATM   15  C   UNL     1     -11.473  12.758  69.782  1.00  0.00    -0.129 A  
BRANCH  13  16
HETATM   16  N   UNL     1     -12.412   9.368  70.389  1.00  0.00    -0.460 NA 
HETATM   17  H   UNL     1     -13.422   9.248  70.306  1.00  0.00     0.000 HD 
BRANCH  16  18
HETATM   18  C   UNL     1     -11.724   8.404  71.109  1.00  0.00    -0.280 A  
HETATM   19  N   UNL     1     -11.622   8.587  72.434  1.00  0.00    -0.373 NA 
HETATM   20  C   UNL     1     -10.884   7.690  73.115  1.00  0.00    -0.382 A  
HETATM   21  C   UNL     1     -10.321   6.578  72.536  1.00  0.00    -0.194 A  
HETATM   22  F   UNL     1      -9.613   5.719  73.282  1.00  0.00    -0.142 F  
HETATM   23  C   UNL     1     -10.526   6.413  71.182  1.00  0.00    -0.221 A  
HETATM   24  N   UNL     1     -11.190   7.349  70.465  1.00  0.00    -0.272 NA 
BRANCH  23  25
HETATM   25  C   UNL     1     -10.101   5.219  70.415  1.00  0.00    -0.324 A  
HETATM   26  C   UNL     1      -9.750   4.030  71.081  1.00  0.00    -0.257 A  
HETATM   27  C   UNL     1      -9.383   2.882  70.381  1.00  0.00    -0.152 A  
HETATM   28  C   UNL     1      -9.356   2.889  68.983  1.00  0.00    -0.145 A  
HETATM   29  F   UNL     1      -9.059   1.779  71.074  1.00  0.00    -0.098 F  
HETATM   30  N   UNL     1      -9.026   1.897  68.106  1.00  0.00    -0.119 NA 
HETATM   31  C   UNL     1      -9.146   2.406  66.900  1.00  0.00    -0.106 A  
HETATM   32  N   UNL     1      -9.565   3.726  66.956  1.00  0.00    -0.210 NA 
HETATM   33  C   UNL     1      -8.841   1.621  65.677  1.00  0.00    -0.124 C  
HETATM   34  C   UNL     1     -10.089   5.224  68.994  1.00  0.00    -0.272 A  
HETATM   35  C   UNL     1      -9.708   4.053  68.301  1.00  0.00    -0.066 A  
BRANCH  32  36
HETATM   36  C   UNL     1      -9.755   4.675  65.857  1.00  0.00    -0.200 C  
HETATM   37  C   UNL     1     -10.587   4.176  64.670  1.00  0.00    -0.176 C  
HETATM   38  C   UNL     1      -8.416   5.226  65.364  1.00  0.00    -0.145 C  
ENDBRANCH  32  36
ENDBRANCH  23  25
ENDBRANCH  16  18
ENDBRANCH  13  16
ENDBRANCH   9  10
ENDBRANCH   6   9
ENDBRANCH   2   3
TORSDOF 7
ENDMDL
MODEL       47
REMARK 921   NORMALIZED FREE ENERGY PREDICTED BY IDOCK:   -6.44 KCAL/MOL
REMARK 922        TOTAL FREE ENERGY PREDICTED BY IDOCK:   -9.95 KCAL/MOL
REMARK 923 INTER-LIGAND FREE ENERGY PREDICTED BY IDOCK:   -9.21 KCAL/MOL
REMARK 924 INTRA-LIGAND FREE ENERGY PREDICTED BY IDOCK:   -0.74 KCAL/MOL
REMARK 927      BINDING AFFINITY PREDICTED BY RF-SCORE:    0.00 PKD
ROOT
HETATM    1  C   UNL     1      -9.282   2.383  70.595  1.00  0.00    -0.200 C  
HETATM    2  C   UNL     1      -9.256   3.107  69.253  1.00  0.00    -0.149 C  
ENDROOT
BRANCH   2   3
HETATM    3  N   UNL     1      -8.564   4.405  69.280  1.00  0.00    -0.080 NA 
HETATM    4  C   UNL     1      -8.518   4.986  67.917  1.00  0.00    -0.104 C  
HETATM    5  C   UNL     1      -9.848   5.627  67.445  1.00  0.00    -0.143 C  
HETATM    6  N   UNL     1     -10.417   6.624  68.381  1.00  0.00    -0.192 NA 
HETATM    7  C   UNL     1      -9.168   5.381  70.210  1.00  0.00    -0.148 C  
HETATM    8  C   UNL     1     -10.500   6.000  69.721  1.00  0.00    -0.255 C  
BRANCH   6   9
HETATM    9  C   UNL     1      -9.611   7.859  68.448  1.00  0.00    -0.150 C  
BRANCH   9  10
HETATM   10  C   UNL     1      -9.998   8.881  67.416  1.00  0.00    -0.267 A  
HETATM   11  C   UNL     1      -9.462   8.844  66.133  1.00  0.00    -0.318 A  
HETATM   12  C   UNL     1      -9.836   9.819  65.219  1.00  0.00    -0.335 A  
HETATM   13  C   UNL     1     -10.733  10.820  65.597  1.00  0.00    -0.072 A  
HETATM   14  N   UNL     1     -11.281  10.856  66.829  1.00  0.00    -0.256 NA 
HETATM   15  C   UNL     1     -10.898   9.900  67.707  1.00  0.00    -0.264 A  
BRANCH  13  16
HETATM   16  N   UNL     1     -11.155  11.779  64.683  1.00  0.00    -0.312 NA 
HETATM   17  H   UNL     1     -11.539  11.436  63.802  1.00  0.00     0.000 HD 
BRANCH  16  18
HETATM   18  C   UNL     1     -11.104  13.154  64.850  1.00  0.00    -0.314 A  
HETATM   19  N   UNL     1     -12.077  13.877  64.278  1.00  0.00    -0.502 NA 
HETATM   20  C   UNL     1     -11.976  15.216  64.376  1.00  0.00    -0.310 A  
HETATM   21  C   UNL     1     -10.991  15.850  65.093  1.00  0.00    -0.377 A  
HETATM   22  F   UNL     1     -10.965  17.187  65.161  1.00  0.00    -0.389 F  
HETATM   23  C   UNL     1     -10.062  15.043  65.718  1.00  0.00    -0.340 A  
HETATM   24  N   UNL     1     -10.096  13.699  65.559  1.00  0.00    -0.294 NA 
BRANCH  23  25
HETATM   25  C   UNL     1      -9.007  15.540  66.630  1.00  0.00    -0.320 A  
HETATM   26  C   UNL     1      -7.932  14.710  66.999  1.00  0.00    -0.106 A  
HETATM   27  C   UNL     1      -6.907  15.166  67.826  1.00  0.00    -0.170 A  
HETATM   28  C   UNL     1      -6.926  16.477  68.313  1.00  0.00    -0.143 A  
HETATM   29  F   UNL     1      -5.908  14.326  68.142  1.00  0.00    -0.090 F  
HETATM   30  N   UNL     1      -6.046  17.124  69.130  1.00  0.00    -0.191 NA 
HETATM   31  C   UNL     1      -6.518  18.338  69.306  1.00  0.00    -0.254 A  
HETATM   32  N   UNL     1      -7.700  18.519  68.606  1.00  0.00    -0.309 NA 
HETATM   33  C   UNL     1      -5.833  19.335  70.169  1.00  0.00    -0.281 C  
HETATM   34  C   UNL     1      -9.022  16.877  67.113  1.00  0.00    -0.219 A  
HETATM   35  C   UNL     1      -7.978  17.320  67.955  1.00  0.00    -0.215 A  
BRANCH  32  36
HETATM   36  C   UNL     1      -8.583  19.687  68.584  1.00  0.00    -0.262 C  
HETATM   37  C   UNL     1     -10.017  19.459  69.075  1.00  0.00    -0.477 C  
HETATM   38  C   UNL     1      -8.599  20.342  67.202  1.00  0.00    -0.402 C  
ENDBRANCH  32  36
ENDBRANCH  23  25
ENDBRANCH  16  18
ENDBRANCH  13  16
ENDBRANCH   9  10
ENDBRANCH   6   9
ENDBRANCH   2   3
TORSDOF 7
ENDMDL
MODEL       48
REMARK 921   NORMALIZED FREE ENERGY PREDICTED BY IDOCK:   -6.42 KCAL/MOL
REMARK 922        TOTAL FREE ENERGY PREDICTED BY IDOCK:   -9.92 KCAL/MOL
REMARK 923 INTER-LIGAND FREE ENERGY PREDICTED BY IDOCK:   -8.77 KCAL/MOL
REMARK 924 INTRA-LIGAND FREE ENERGY PREDICTED BY IDOCK:   -1.16 KCAL/MOL
REMARK 927      BINDING AFFINITY PREDICTED BY RF-SCORE:    0.00 PKD
ROOT
HETATM    1  C   UNL     1      -7.412  19.823  65.779  1.00  0.00    -0.325 C  
HETATM    2  C   UNL     1      -8.093  18.856  66.740  1.00  0.00    -0.269 C  
ENDROOT
BRANCH   2   3
HETATM    3  N   UNL     1      -9.004  17.899  66.091  1.00  0.00    -0.499 NA 
HETATM    4  C   UNL     1      -8.509  16.515  66.283  1.00  0.00    -0.328 C  
HETATM    5  C   UNL     1      -8.777  15.923  67.690  1.00  0.00    -0.167 C  
HETATM    6  N   UNL     1     -10.189  16.001  68.131  1.00  0.00    -0.238 NA 
HETATM    7  C   UNL     1     -10.399  17.991  66.567  1.00  0.00    -0.373 C  
HETATM    8  C   UNL     1     -10.641  17.402  67.978  1.00  0.00    -0.389 C  
BRANCH   6   9
HETATM    9  C   UNL     1     -11.071  15.099  67.362  1.00  0.00    -0.325 C  
BRANCH   9  10
HETATM   10  C   UNL     1     -11.474  13.867  68.121  1.00  0.00    -0.346 A  
HETATM   11  C   UNL     1     -11.578  13.880  69.508  1.00  0.00    -0.358 A  
HETATM   12  C   UNL     1     -11.937  12.713  70.167  1.00  0.00    -0.375 A  
HETATM   13  C   UNL     1     -12.182  11.548  69.437  1.00  0.00    -0.207 A  
HETATM   14  N   UNL     1     -12.111  11.525  68.090  1.00  0.00    -0.591 NA 
HETATM   15  C   UNL     1     -11.752  12.671  67.468  1.00  0.00    -0.368 A  
BRANCH  13  16
HETATM   16  N   UNL     1     -12.588  10.382  70.076  1.00  0.00    -0.538 NA 
HETATM   17  H   UNL     1     -13.593  10.233  70.168  1.00  0.00     0.000 HD 
BRANCH  16  18
HETATM   18  C   UNL     1     -11.760   9.401  70.599  1.00  0.00    -0.240 A  
HETATM   19  N   UNL     1     -12.045   8.953  71.831  1.00  0.00    -0.348 NA 
HETATM   20  C   UNL     1     -11.190   8.061  72.365  1.00  0.00    -0.369 A  
HETATM   21  C   UNL     1     -10.116   7.540  71.684  1.00  0.00    -0.180 A  
HETATM   22  F   UNL     1      -9.319   6.641  72.275  1.00  0.00    -0.140 F  
HETATM   23  C   UNL     1      -9.923   7.991  70.394  1.00  0.00    -0.188 A  
HETATM   24  N   UNL     1     -10.720   8.952  69.871  1.00  0.00    -0.228 NA 
BRANCH  23  25
HETATM   25  C   UNL     1      -8.897   7.454  69.470  1.00  0.00    -0.137 A  
HETATM   26  C   UNL     1      -7.622   8.046  69.397  1.00  0.00    -0.102 A  
HETATM   27  C   UNL     1      -6.628   7.538  68.563  1.00  0.00    -0.049 A  
HETATM   28  C   UNL     1      -6.881   6.413  67.770  1.00  0.00    -0.070 A  
HETATM   29  F   UNL     1      -5.432   8.146  68.537  1.00  0.00    -0.029 F  
HETATM   30  N   UNL     1      -6.071   5.759  66.889  1.00  0.00    -0.025 NA 
HETATM   31  C   UNL     1      -6.779   4.772  66.387  1.00  0.00    -0.054 A  
HETATM   32  N   UNL     1      -8.054   4.748  66.931  1.00  0.00    -0.106 NA 
HETATM   33  C   UNL     1      -6.232   3.848  65.361  1.00  0.00    -0.027 C  
HETATM   34  C   UNL     1      -9.152   6.304  68.676  1.00  0.00    -0.126 A  
HETATM   35  C   UNL     1      -8.135   5.805  67.832  1.00  0.00    -0.098 A  
BRANCH  32  36
HETATM   36  C   UNL     1      -9.174   3.864  66.601  1.00  0.00    -0.169 C  
HETATM   37  C   UNL     1     -10.374   4.524  65.910  1.00  0.00    -0.289 C  
HETATM   38  C   UNL     1      -9.641   3.081  67.829  1.00  0.00    -0.100 C  
ENDBRANCH  32  36
ENDBRANCH  23  25
ENDBRANCH  16  18
ENDBRANCH  13  16
ENDBRANCH   9  10
ENDBRANCH   6   9
ENDBRANCH   2   3
TORSDOF 7
ENDMDL
MODEL       49
REMARK 921   NORMALIZED FREE ENERGY PREDICTED BY IDOCK:   -6.38 KCAL/MOL
REMARK 922        TOTAL FREE ENERGY PREDICTED BY IDOCK:   -9.87 KCAL/MOL
REMARK 923 INTER-LIGAND FREE ENERGY PREDICTED BY IDOCK:   -8.82 KCAL/MOL
REMARK 924 INTRA-LIGAND FREE ENERGY PREDICTED BY IDOCK:   -1.05 KCAL/MOL
REMARK 927      BINDING AFFINITY PREDICTED BY RF-SCORE:    0.00 PKD
ROOT
HETATM    1  C   UNL     1      -8.855   2.316  68.400  1.00  0.00    -0.152 C  
HETATM    2  C   UNL     1      -7.893   3.245  69.130  1.00  0.00    -0.050 C  
ENDROOT
BRANCH   2   3
HETATM    3  N   UNL     1      -8.436   3.823  70.371  1.00  0.00    -0.060 NA 
HETATM    4  C   UNL     1      -7.704   5.065  70.716  1.00  0.00    -0.078 C  
HETATM    5  C   UNL     1      -8.109   6.306  69.880  1.00  0.00    -0.120 C  
HETATM    6  N   UNL     1      -9.563   6.586  69.859  1.00  0.00    -0.154 NA 
HETATM    7  C   UNL     1      -9.884   4.107  70.309  1.00  0.00    -0.169 C  
HETATM    8  C   UNL     1     -10.264   5.344  69.461  1.00  0.00    -0.266 C  
BRANCH   6   9
HETATM    9  C   UNL     1     -10.065   7.053  71.167  1.00  0.00    -0.187 C  
BRANCH   9  10
HETATM   10  C   UNL     1     -10.864   8.323  71.082  1.00  0.00    -0.276 A  
HETATM   11  C   UNL     1     -10.497   9.345  70.214  1.00  0.00    -0.298 A  
HETATM   12  C   UNL     1     -11.256  10.506  70.182  1.00  0.00    -0.389 A  
HETATM   13  C   UNL     1     -12.366  10.636  71.019  1.00  0.00    -0.403 A  
HETATM   14  N   UNL     1     -12.751   9.644  71.848  1.00  0.00    -0.399 NA 
HETATM   15  C   UNL     1     -11.993   8.524  71.869  1.00  0.00    -0.345 A  
BRANCH  13  16
HETATM   16  N   UNL     1     -13.165  11.773  70.969  1.00  0.00     0.058 NA 
HETATM   17  H   UNL     1     -14.115  11.652  70.618  1.00  0.00     0.000 HD 
BRANCH  16  18
HETATM   18  C   UNL     1     -12.796  13.053  71.349  1.00  0.00    -0.292 A  
HETATM   19  N   UNL     1     -13.243  13.492  72.535  1.00  0.00    -0.485 NA 
HETATM   20  C   UNL     1     -12.949  14.765  72.861  1.00  0.00    -0.487 A  
HETATM   21  C   UNL     1     -12.159  15.581  72.088  1.00  0.00    -0.423 A  
HETATM   22  F   UNL     1     -11.894  16.832  72.485  1.00  0.00    -0.572 F  
HETATM   23  C   UNL     1     -11.673  15.042  70.914  1.00  0.00    -0.328 A  
HETATM   24  N   UNL     1     -12.028  13.795  70.527  1.00  0.00    -0.319 NA 
BRANCH  23  25
HETATM   25  C   UNL     1     -10.711  15.726  70.019  1.00  0.00    -0.347 A  
HETATM   26  C   UNL     1     -11.052  16.942  69.400  1.00  0.00     0.031 A  
HETATM   27  C   UNL     1     -10.152  17.624  68.583  1.00  0.00    -0.377 A  
HETATM   28  C   UNL     1      -8.872  17.106  68.360  1.00  0.00    -0.255 A  
HETATM   29  F   UNL     1     -10.537  18.780  68.020  1.00  0.00    -0.387 F  
HETATM   30  N   UNL     1      -7.847  17.593  67.603  1.00  0.00    -0.204 NA 
HETATM   31  C   UNL     1      -6.860  16.732  67.708  1.00  0.00    -0.139 A  
HETATM   32  N   UNL     1      -7.206  15.677  68.538  1.00  0.00    -0.117 NA 
HETATM   33  C   UNL     1      -5.571  16.915  66.993  1.00  0.00    -0.200 C  
HETATM   34  C   UNL     1      -9.406  15.205  69.806  1.00  0.00    -0.017 A  
HETATM   35  C   UNL     1      -8.508  15.906  68.970  1.00  0.00    -0.242 A  
BRANCH  32  36
HETATM   36  C   UNL     1      -6.432  14.477  68.866  1.00  0.00    -0.092 C  
HETATM   37  C   UNL     1      -6.984  13.150  68.330  1.00  0.00    -0.104 C  
HETATM   38  C   UNL     1      -6.185  14.373  70.372  1.00  0.00    -0.173 C  
ENDBRANCH  32  36
ENDBRANCH  23  25
ENDBRANCH  16  18
ENDBRANCH  13  16
ENDBRANCH   9  10
ENDBRANCH   6   9
ENDBRANCH   2   3
TORSDOF 7
ENDMDL
MODEL       50
REMARK 921   NORMALIZED FREE ENERGY PREDICTED BY IDOCK:   -6.34 KCAL/MOL
REMARK 922        TOTAL FREE ENERGY PREDICTED BY IDOCK:   -9.81 KCAL/MOL
REMARK 923 INTER-LIGAND FREE ENERGY PREDICTED BY IDOCK:   -9.07 KCAL/MOL
REMARK 924 INTRA-LIGAND FREE ENERGY PREDICTED BY IDOCK:   -0.75 KCAL/MOL
REMARK 927      BINDING AFFINITY PREDICTED BY RF-SCORE:    0.00 PKD
ROOT
HETATM    1  C   UNL     1      -6.784  17.264  66.635  1.00  0.00    -0.268 C  
HETATM    2  C   UNL     1      -8.008  18.093  67.007  1.00  0.00    -0.225 C  
ENDROOT
BRANCH   2   3
HETATM    3  N   UNL     1      -8.367  18.034  68.434  1.00  0.00    -0.293 NA 
HETATM    4  C   UNL     1      -9.759  18.506  68.628  1.00  0.00    -0.365 C  
HETATM    5  C   UNL     1     -10.849  17.476  68.240  1.00  0.00    -0.220 C  
HETATM    6  N   UNL     1     -10.692  16.146  68.874  1.00  0.00    -0.261 NA 
HETATM    7  C   UNL     1      -8.216  16.691  69.029  1.00  0.00    -0.190 C  
HETATM    8  C   UNL     1      -9.311  15.676  68.620  1.00  0.00    -0.201 C  
BRANCH   6   9
HETATM    9  C   UNL     1     -10.955  16.179  70.327  1.00  0.00    -0.340 C  
BRANCH   9  10
HETATM   10  C   UNL     1     -11.676  14.961  70.832  1.00  0.00    -0.374 A  
HETATM   11  C   UNL     1     -12.216  14.926  72.113  1.00  0.00    -0.428 A  
HETATM   12  C   UNL     1     -12.858  13.773  72.541  1.00  0.00    -0.342 A  
HETATM   13  C   UNL     1     -12.948  12.669  71.689  1.00  0.00    -0.299 A  
HETATM   14  N   UNL     1     -12.453  12.696  70.436  1.00  0.00    -0.202 NA 
HETATM   15  C   UNL     1     -11.824  13.827  70.041  1.00  0.00    -0.307 A  
BRANCH  13  16
HETATM   16  N   UNL     1     -13.627  11.522  72.084  1.00  0.00    -0.436 NA 
HETATM   17  H   UNL     1     -14.517  11.656  72.565  1.00  0.00     0.000 HD 
BRANCH  16  18
HETATM   18  C   UNL     1     -13.214  10.214  71.887  1.00  0.00    -0.452 A  
HETATM   19  N   UNL     1     -14.133   9.250  72.050  1.00  0.00    -0.307 NA 
HETATM   20  C   UNL     1     -13.706   7.979  71.937  1.00  0.00    -0.323 A  
HETATM   21  C   UNL     1     -12.421   7.641  71.585  1.00  0.00    -0.335 A  
HETATM   22  F   UNL     1     -12.073   6.352  71.474  1.00  0.00    -0.360 F  
HETATM   23  C   UNL     1     -11.545   8.683  71.361  1.00  0.00    -0.293 A  
HETATM   24  N   UNL     1     -11.933   9.965  71.555  1.00  0.00    -0.396 NA 
BRANCH  23  25
HETATM   25  C   UNL     1     -10.162   8.514  70.858  1.00  0.00    -0.246 A  
HETATM   26  C   UNL     1      -9.062   8.710  71.713  1.00  0.00    -0.317 A  
HETATM   27  C   UNL     1      -7.753   8.522  71.273  1.00  0.00    -0.108 A  
HETATM   28  C   UNL     1      -7.502   8.129  69.954  1.00  0.00    -0.069 A  
HETATM   29  F   UNL     1      -6.745   8.724  72.137  1.00  0.00    -0.085 F  
HETATM   30  N   UNL     1      -6.319   7.897  69.317  1.00  0.00    -0.035 NA 
HETATM   31  C   UNL     1      -6.617   7.565  68.080  1.00  0.00    -0.050 A  
HETATM   32  N   UNL     1      -7.989   7.559  67.883  1.00  0.00    -0.117 NA 
HETATM   33  C   UNL     1      -5.572   7.262  67.069  1.00  0.00    -0.023 C  
HETATM   34  C   UNL     1      -9.911   8.102  69.521  1.00  0.00    -0.187 A  
HETATM   35  C   UNL     1      -8.578   7.921  69.091  1.00  0.00    -0.138 A  
BRANCH  32  36
HETATM   36  C   UNL     1      -8.737   7.316  66.647  1.00  0.00    -0.132 C  
HETATM   37  C   UNL     1      -8.457   5.985  65.939  1.00  0.00    -0.143 C  
HETATM   38  C   UNL     1      -8.576   8.477  65.665  1.00  0.00    -0.200 C  
ENDBRANCH  32  36
ENDBRANCH  23  25
ENDBRANCH  16  18
ENDBRANCH  13  16
ENDBRANCH   9  10
ENDBRANCH   6   9
ENDBRANCH   2   3
TORSDOF 7
ENDMDL
MODEL       51
REMARK 921   NORMALIZED FREE ENERGY PREDICTED BY IDOCK:   -6.33 KCAL/MOL
REMARK 922        TOTAL FREE ENERGY PREDICTED BY IDOCK:   -9.80 KCAL/MOL
REMARK 923 INTER-LIGAND FREE ENERGY PREDICTED BY IDOCK:   -9.04 KCAL/MOL
REMARK 924 INTRA-LIGAND FREE ENERGY PREDICTED BY IDOCK:   -0.76 KCAL/MOL
REMARK 927      BINDING AFFINITY PREDICTED BY RF-SCORE:    0.00 PKD
ROOT
HETATM    1  C   UNL     1      -5.158  10.897  62.409  1.00  0.00    -0.174 C  
HETATM    2  C   UNL     1      -5.282  10.716  63.917  1.00  0.00    -0.150 C  
ENDROOT
BRANCH   2   3
HETATM    3  N   UNL     1      -5.398   9.313  64.350  1.00  0.00    -0.054 NA 
HETATM    4  C   UNL     1      -6.052   9.243  65.679  1.00  0.00    -0.059 C  
HETATM    5  C   UNL     1      -7.589   9.434  65.651  1.00  0.00    -0.095 C  
HETATM    6  N   UNL     1      -8.303   8.541  64.708  1.00  0.00    -0.165 NA 
HETATM    7  C   UNL     1      -6.130   8.457  63.396  1.00  0.00    -0.077 C  
HETATM    8  C   UNL     1      -7.663   8.671  63.380  1.00  0.00    -0.139 C  
BRANCH   6   9
HETATM    9  C   UNL     1      -8.283   7.130  65.143  1.00  0.00    -0.113 C  
BRANCH   9  10
HETATM   10  C   UNL     1      -8.908   6.912  66.492  1.00  0.00    -0.148 A  
HETATM   11  C   UNL     1     -10.287   6.802  66.636  1.00  0.00    -0.219 A  
HETATM   12  C   UNL     1     -10.819   6.618  67.904  1.00  0.00    -0.353 A  
HETATM   13  C   UNL     1      -9.971   6.553  69.012  1.00  0.00    -0.145 A  
HETATM   14  N   UNL     1      -8.630   6.632  68.887  1.00  0.00    -0.126 NA 
HETATM   15  C   UNL     1      -8.133   6.818  67.643  1.00  0.00    -0.116 A  
BRANCH  13  16
HETATM   16  N   UNL     1     -10.482   6.323  70.285  1.00  0.00    -0.206 NA 
HETATM   17  H   UNL     1     -10.121   5.511  70.785  1.00  0.00     0.000 HD 
BRANCH  16  18
HETATM   18  C   UNL     1     -11.432   7.090  70.939  1.00  0.00    -0.308 A  
HETATM   19  N   UNL     1     -12.187   6.475  71.861  1.00  0.00    -0.348 NA 
HETATM   20  C   UNL     1     -13.162   7.205  72.434  1.00  0.00     0.342 A  
HETATM   21  C   UNL     1     -13.352   8.543  72.182  1.00  0.00    -0.351 A  
HETATM   22  F   UNL     1     -14.333   9.209  72.805  1.00  0.00    -0.464 F  
HETATM   23  C   UNL     1     -12.494   9.131  71.277  1.00  0.00    -0.300 A  
HETATM   24  N   UNL     1     -11.564   8.394  70.626  1.00  0.00    -0.239 NA 
BRANCH  23  25
HETATM   25  C   UNL     1     -12.469  10.581  70.974  1.00  0.00    -0.501 A  
HETATM   26  C   UNL     1     -13.059  11.505  71.857  1.00  0.00    -0.492 A  
HETATM   27  C   UNL     1     -13.017  12.877  71.613  1.00  0.00    -0.313 A  
HETATM   28  C   UNL     1     -12.378  13.370  70.471  1.00  0.00    -0.329 A  
HETATM   29  F   UNL     1     -13.597  13.708  72.493  1.00  0.00    -0.514 F  
HETATM   30  N   UNL     1     -12.224  14.653  70.035  1.00  0.00    -0.323 NA 
HETATM   31  C   UNL     1     -11.563  14.589  68.901  1.00  0.00    -0.309 A  
HETATM   32  N   UNL     1     -11.259  13.277  68.576  1.00  0.00    -0.254 NA 
HETATM   33  C   UNL     1     -11.229  15.802  68.111  1.00  0.00    -0.344 C  
HETATM   34  C   UNL     1     -11.808  11.080  69.820  1.00  0.00    -0.421 A  
HETATM   35  C   UNL     1     -11.780  12.473  69.586  1.00  0.00    -0.302 A  
BRANCH  32  36
HETATM   36  C   UNL     1     -10.599  12.759  67.375  1.00  0.00    -0.229 C  
HETATM   37  C   UNL     1      -9.312  13.475  66.950  1.00  0.00    -0.255 C  
HETATM   38  C   UNL     1     -11.573  12.685  66.197  1.00  0.00    -0.445 C  
ENDBRANCH  32  36
ENDBRANCH  23  25
ENDBRANCH  16  18
ENDBRANCH  13  16
ENDBRANCH   9  10
ENDBRANCH   6   9
ENDBRANCH   2   3
TORSDOF 7
ENDMDL
MODEL       52
REMARK 921   NORMALIZED FREE ENERGY PREDICTED BY IDOCK:   -6.33 KCAL/MOL
REMARK 922        TOTAL FREE ENERGY PREDICTED BY IDOCK:   -9.80 KCAL/MOL
REMARK 923 INTER-LIGAND FREE ENERGY PREDICTED BY IDOCK:   -8.91 KCAL/MOL
REMARK 924 INTRA-LIGAND FREE ENERGY PREDICTED BY IDOCK:   -0.88 KCAL/MOL
REMARK 927      BINDING AFFINITY PREDICTED BY RF-SCORE:    0.00 PKD
ROOT
HETATM    1  C   UNL     1      -9.062   1.542  68.442  1.00  0.00    -0.186 C  
HETATM    2  C   UNL     1      -9.222   1.893  66.967  1.00  0.00    -0.029 C  
ENDROOT
BRANCH   2   3
HETATM    3  N   UNL     1      -8.139   2.730  66.424  1.00  0.00    -0.081 NA 
HETATM    4  C   UNL     1      -8.588   3.397  65.178  1.00  0.00    -0.112 C  
HETATM    5  C   UNL     1      -9.515   4.618  65.399  1.00  0.00    -0.171 C  
HETATM    6  N   UNL     1      -8.978   5.637  66.331  1.00  0.00    -0.130 NA 
HETATM    7  C   UNL     1      -7.641   3.746  67.373  1.00  0.00    -0.075 C  
HETATM    8  C   UNL     1      -8.588   4.952  67.584  1.00  0.00    -0.103 C  
BRANCH   6   9
HETATM    9  C   UNL     1      -7.821   6.362  65.770  1.00  0.00    -0.104 C  
BRANCH   9  10
HETATM   10  C   UNL     1      -8.193   7.655  65.100  1.00  0.00    -0.130 A  
HETATM   11  C   UNL     1      -7.710   7.974  63.836  1.00  0.00    -0.138 A  
HETATM   12  C   UNL     1      -8.067   9.187  63.266  1.00  0.00    -0.165 A  
HETATM   13  C   UNL     1      -8.896  10.068  63.965  1.00  0.00    -0.224 A  
HETATM   14  N   UNL     1      -9.393   9.763  65.180  1.00  0.00    -0.243 NA 
HETATM   15  C   UNL     1      -9.027   8.578  65.721  1.00  0.00    -0.182 A  
BRANCH  13  16
HETATM   16  N   UNL     1      -9.301  11.268  63.391  1.00  0.00    -0.402 NA 
HETATM   17  H   UNL     1      -8.813  11.562  62.545  1.00  0.00     0.000 HD 
BRANCH  16  18
HETATM   18  C   UNL     1     -10.304  12.103  63.856  1.00  0.00    -0.415 A  
HETATM   19  N   UNL     1     -11.557  11.838  63.456  1.00  0.00    -0.432 NA 
HETATM   20  C   UNL     1     -12.514  12.702  63.845  1.00  0.00    -0.407 A  
HETATM   21  C   UNL     1     -12.279  13.764  64.684  1.00  0.00    -0.406 A  
HETATM   22  F   UNL     1     -13.285  14.571  65.044  1.00  0.00    -0.276 F  
HETATM   23  C   UNL     1     -10.980  13.937  65.116  1.00  0.00    -0.350 A  
HETATM   24  N   UNL     1      -9.989  13.132  64.667  1.00  0.00    -0.193 NA 
BRANCH  23  25
HETATM   25  C   UNL     1     -10.562  14.947  66.116  1.00  0.00    -0.322 A  
HETATM   26  C   UNL     1     -11.290  15.116  67.308  1.00  0.00    -0.305 A  
HETATM   27  C   UNL     1     -10.897  16.034  68.280  1.00  0.00    -0.319 A  
HETATM   28  C   UNL     1      -9.754  16.817  68.088  1.00  0.00    -0.247 A  
HETATM   29  F   UNL     1     -11.633  16.148  69.397  1.00  0.00    -0.314 F  
HETATM   30  N   UNL     1      -9.196  17.769  68.890  1.00  0.00    -0.198 NA 
HETATM   31  C   UNL     1      -8.140  18.224  68.255  1.00  0.00    -0.297 A  
HETATM   32  N   UNL     1      -7.973  17.579  67.039  1.00  0.00    -0.207 NA 
HETATM   33  C   UNL     1      -7.284  19.302  68.814  1.00  0.00    -0.380 C  
HETATM   34  C   UNL     1      -9.393  15.732  65.924  1.00  0.00    -0.356 A  
HETATM   35  C   UNL     1      -9.013  16.662  66.917  1.00  0.00    -0.222 A  
BRANCH  32  36
HETATM   36  C   UNL     1      -6.973  17.828  65.998  1.00  0.00    -0.300 C  
HETATM   37  C   UNL     1      -5.530  17.440  66.342  1.00  0.00    -0.228 C  
HETATM   38  C   UNL     1      -7.026  19.278  65.515  1.00  0.00    -0.264 C  
ENDBRANCH  32  36
ENDBRANCH  23  25
ENDBRANCH  16  18
ENDBRANCH  13  16
ENDBRANCH   9  10
ENDBRANCH   6   9
ENDBRANCH   2   3
TORSDOF 7
ENDMDL
MODEL       53
REMARK 921   NORMALIZED FREE ENERGY PREDICTED BY IDOCK:   -6.32 KCAL/MOL
REMARK 922        TOTAL FREE ENERGY PREDICTED BY IDOCK:   -9.78 KCAL/MOL
REMARK 923 INTER-LIGAND FREE ENERGY PREDICTED BY IDOCK:   -8.56 KCAL/MOL
REMARK 924 INTRA-LIGAND FREE ENERGY PREDICTED BY IDOCK:   -1.22 KCAL/MOL
REMARK 927      BINDING AFFINITY PREDICTED BY RF-SCORE:    0.00 PKD
ROOT
HETATM    1  C   UNL     1      -8.394  20.489  67.272  1.00  0.00    -0.355 C  
HETATM    2  C   UNL     1      -7.997  19.360  68.216  1.00  0.00    -0.331 C  
ENDROOT
BRANCH   2   3
HETATM    3  N   UNL     1      -6.907  18.507  67.714  1.00  0.00    -0.211 NA 
HETATM    4  C   UNL     1      -5.768  18.527  68.662  1.00  0.00    -0.191 C  
HETATM    5  C   UNL     1      -5.964  17.651  69.925  1.00  0.00    -0.221 C  
HETATM    6  N   UNL     1      -6.343  16.246  69.647  1.00  0.00    -0.198 NA 
HETATM    7  C   UNL     1      -7.315  17.109  67.465  1.00  0.00    -0.161 C  
HETATM    8  C   UNL     1      -7.514  16.257  68.742  1.00  0.00    -0.195 C  
BRANCH   6   9
HETATM    9  C   UNL     1      -5.240  15.475  69.038  1.00  0.00    -0.095 C  
BRANCH   9  10
HETATM   10  C   UNL     1      -5.554  14.016  68.868  1.00  0.00    -0.082 A  
HETATM   11  C   UNL     1      -5.733  13.461  67.605  1.00  0.00    -0.072 A  
HETATM   12  C   UNL     1      -6.038  12.112  67.499  1.00  0.00    -0.124 A  
HETATM   13  C   UNL     1      -6.168  11.335  68.652  1.00  0.00    -0.044 A  
HETATM   14  N   UNL     1      -5.973  11.851  69.883  1.00  0.00    -0.134 NA 
HETATM   15  C   UNL     1      -5.683  13.170  69.964  1.00  0.00    -0.131 A  
BRANCH  13  16
HETATM   16  N   UNL     1      -6.429   9.972  68.564  1.00  0.00    -0.049 NA 
HETATM   17  H   UNL     1      -5.628   9.360  68.406  1.00  0.00     0.000 HD 
BRANCH  16  18
HETATM   18  C   UNL     1      -7.670   9.364  68.671  1.00  0.00    -0.084 A  
HETATM   19  N   UNL     1      -7.773   8.102  68.230  1.00  0.00    -0.111 NA 
HETATM   20  C   UNL     1      -8.999   7.547  68.261  1.00  0.00    -0.130 A  
HETATM   21  C   UNL     1     -10.100   8.173  68.794  1.00  0.00    -0.199 A  
HETATM   22  F   UNL     1     -11.286   7.550  68.808  1.00  0.00    -0.072 F  
HETATM   23  C   UNL     1      -9.907   9.443  69.297  1.00  0.00    -0.174 A  
HETATM   24  N   UNL     1      -8.703  10.052  69.195  1.00  0.00    -0.155 NA 
BRANCH  23  25
HETATM   25  C   UNL     1     -10.944  10.220  70.016  1.00  0.00    -0.371 A  
HETATM   26  C   UNL     1     -11.774   9.595  70.965  1.00  0.00    -0.433 A  
HETATM   27  C   UNL     1     -12.732  10.311  71.682  1.00  0.00    -0.456 A  
HETATM   28  C   UNL     1     -12.888  11.685  71.470  1.00  0.00    -0.364 A  
HETATM   29  F   UNL     1     -13.494   9.658  72.573  1.00  0.00    -0.469 F  
HETATM   30  N   UNL     1     -13.753  12.569  72.045  1.00  0.00    -0.279 NA 
HETATM   31  C   UNL     1     -13.514  13.739  71.496  1.00  0.00    -0.284 A  
HETATM   32  N   UNL     1     -12.489  13.654  70.567  1.00  0.00    -0.339 NA 
HETATM   33  C   UNL     1     -14.288  14.955  71.857  1.00  0.00    -0.667 C  
HETATM   34  C   UNL     1     -11.091  11.618  69.809  1.00  0.00    -0.116 A  
HETATM   35  C   UNL     1     -12.071  12.327  70.540  1.00  0.00    -0.282 A  
BRANCH  32  36
HETATM   36  C   UNL     1     -11.959  14.698  69.687  1.00  0.00    -0.323 C  
HETATM   37  C   UNL     1     -11.767  14.308  68.216  1.00  0.00    -0.377 C  
HETATM   38  C   UNL     1     -10.665  15.290  70.247  1.00  0.00    -0.283 C  
ENDBRANCH  32  36
ENDBRANCH  23  25
ENDBRANCH  16  18
ENDBRANCH  13  16
ENDBRANCH   9  10
ENDBRANCH   6   9
ENDBRANCH   2   3
TORSDOF 7
ENDMDL
MODEL       54
REMARK 921   NORMALIZED FREE ENERGY PREDICTED BY IDOCK:   -6.30 KCAL/MOL
REMARK 922        TOTAL FREE ENERGY PREDICTED BY IDOCK:   -9.76 KCAL/MOL
REMARK 923 INTER-LIGAND FREE ENERGY PREDICTED BY IDOCK:   -8.45 KCAL/MOL
REMARK 924 INTRA-LIGAND FREE ENERGY PREDICTED BY IDOCK:   -1.30 KCAL/MOL
REMARK 927      BINDING AFFINITY PREDICTED BY RF-SCORE:    0.00 PKD
ROOT
HETATM    1  C   UNL     1     -10.465  19.464  66.091  1.00  0.00    -0.600 C  
HETATM    2  C   UNL     1      -9.321  20.257  66.714  1.00  0.00    -0.358 C  
ENDROOT
BRANCH   2   3
HETATM    3  N   UNL     1      -7.994  19.645  66.537  1.00  0.00    -0.288 NA 
HETATM    4  C   UNL     1      -6.990  20.361  67.360  1.00  0.00    -0.293 C  
HETATM    5  C   UNL     1      -7.026  20.013  68.869  1.00  0.00    -0.257 C  
HETATM    6  N   UNL     1      -6.957  18.563  69.168  1.00  0.00    -0.274 NA 
HETATM    7  C   UNL     1      -7.958  18.204  66.861  1.00  0.00    -0.232 C  
HETATM    8  C   UNL     1      -8.004  17.881  68.374  1.00  0.00    -0.298 C  
BRANCH   6   9
HETATM    9  C   UNL     1      -5.633  17.987  68.860  1.00  0.00    -0.190 C  
BRANCH   9  10
HETATM   10  C   UNL     1      -5.518  16.532  69.217  1.00  0.00    -0.137 A  
HETATM   11  C   UNL     1      -5.311  15.566  68.238  1.00  0.00    -0.110 A  
HETATM   12  C   UNL     1      -5.228  14.233  68.614  1.00  0.00    -0.091 A  
HETATM   13  C   UNL     1      -5.359  13.880  69.959  1.00  0.00    -0.096 A  
HETATM   14  N   UNL     1      -5.534  14.806  70.924  1.00  0.00    -0.141 NA 
HETATM   15  C   UNL     1      -5.619  16.098  70.535  1.00  0.00    -0.104 A  
BRANCH  13  16
HETATM   16  N   UNL     1      -5.233  12.554  70.361  1.00  0.00    -0.105 NA 
HETATM   17  H   UNL     1      -4.410  12.318  70.916  1.00  0.00     0.000 HD 
BRANCH  16  18
HETATM   18  C   UNL     1      -6.116  11.524  70.081  1.00  0.00    -0.156 A  
HETATM   19  N   UNL     1      -6.259  10.570  71.013  1.00  0.00    -0.341 NA 
HETATM   20  C   UNL     1      -7.056   9.531  70.700  1.00  0.00    -0.123 A  
HETATM   21  C   UNL     1      -7.775   9.453  69.532  1.00  0.00    -0.089 A  
HETATM   22  F   UNL     1      -8.563   8.395  69.298  1.00  0.00    -0.123 F  
HETATM   23  C   UNL     1      -7.637  10.504  68.648  1.00  0.00    -0.099 A  
HETATM   24  N   UNL     1      -6.775  11.515  68.906  1.00  0.00    -0.078 NA 
BRANCH  23  25
HETATM   25  C   UNL     1      -8.424  10.652  67.402  1.00  0.00    -0.122 A  
HETATM   26  C   UNL     1      -8.425   9.632  66.432  1.00  0.00    -0.128 A  
HETATM   27  C   UNL     1      -9.185   9.731  65.269  1.00  0.00    -0.238 A  
HETATM   28  C   UNL     1      -9.975  10.863  65.038  1.00  0.00    -0.298 A  
HETATM   29  F   UNL     1      -9.145   8.724  64.382  1.00  0.00    -0.142 F  
HETATM   30  N   UNL     1     -10.781  11.171  63.981  1.00  0.00    -0.375 NA 
HETATM   31  C   UNL     1     -11.293  12.355  64.232  1.00  0.00    -0.360 A  
HETATM   32  N   UNL     1     -10.851  12.841  65.452  1.00  0.00    -0.281 NA 
HETATM   33  C   UNL     1     -12.210  13.036  63.283  1.00  0.00    -0.464 C  
HETATM   34  C   UNL     1      -9.235  11.796  67.176  1.00  0.00    -0.179 A  
HETATM   35  C   UNL     1      -9.995  11.883  65.988  1.00  0.00    -0.232 A  
BRANCH  32  36
HETATM   36  C   UNL     1     -11.120  14.139  66.074  1.00  0.00    -0.314 C  
HETATM   37  C   UNL     1      -9.939  15.115  66.140  1.00  0.00    -0.317 C  
HETATM   38  C   UNL     1     -11.739  13.970  67.463  1.00  0.00    -0.421 C  
ENDBRANCH  32  36
ENDBRANCH  23  25
ENDBRANCH  16  18
ENDBRANCH  13  16
ENDBRANCH   9  10
ENDBRANCH   6   9
ENDBRANCH   2   3
TORSDOF 7
ENDMDL
MODEL       55
REMARK 921   NORMALIZED FREE ENERGY PREDICTED BY IDOCK:   -6.28 KCAL/MOL
REMARK 922        TOTAL FREE ENERGY PREDICTED BY IDOCK:   -9.72 KCAL/MOL
REMARK 923 INTER-LIGAND FREE ENERGY PREDICTED BY IDOCK:   -8.74 KCAL/MOL
REMARK 924 INTRA-LIGAND FREE ENERGY PREDICTED BY IDOCK:   -0.98 KCAL/MOL
REMARK 927      BINDING AFFINITY PREDICTED BY RF-SCORE:    0.00 PKD
ROOT
HETATM    1  C   UNL     1      -9.275  20.569  67.208  1.00  0.00    -0.500 C  
HETATM    2  C   UNL     1      -8.687  19.389  66.444  1.00  0.00    -0.355 C  
ENDROOT
BRANCH   2   3
HETATM    3  N   UNL     1      -8.388  18.215  67.281  1.00  0.00    -0.238 NA 
HETATM    4  C   UNL     1      -9.421  18.064  68.333  1.00  0.00    -0.308 C  
HETATM    5  C   UNL     1     -10.759  17.458  67.841  1.00  0.00    -0.351 C  
HETATM    6  N   UNL     1     -10.622  16.179  67.105  1.00  0.00    -0.306 NA 
HETATM    7  C   UNL     1      -8.276  16.955  66.518  1.00  0.00    -0.285 C  
HETATM    8  C   UNL     1      -9.625  16.374  66.029  1.00  0.00    -0.319 C  
BRANCH   6   9
HETATM    9  C   UNL     1     -10.208  15.066  67.983  1.00  0.00    -0.228 C  
BRANCH   9  10
HETATM   10  C   UNL     1     -10.169  13.737  67.283  1.00  0.00    -0.253 A  
HETATM   11  C   UNL     1      -9.004  12.978  67.246  1.00  0.00    -0.212 A  
HETATM   12  C   UNL     1      -9.012  11.765  66.573  1.00  0.00    -0.196 A  
HETATM   13  C   UNL     1     -10.178  11.327  65.941  1.00  0.00    -0.249 A  
HETATM   14  N   UNL     1     -11.323  12.038  65.989  1.00  0.00    -0.342 NA 
HETATM   15  C   UNL     1     -11.292  13.221  66.644  1.00  0.00    -0.321 A  
BRANCH  13  16
HETATM   16  N   UNL     1     -10.218  10.093  65.301  1.00  0.00    -0.267 NA 
HETATM   17  H   UNL     1     -10.914   9.981  64.563  1.00  0.00     0.000 HD 
BRANCH  16  18
HETATM   18  C   UNL     1      -9.407   9.003  65.567  1.00  0.00    -0.187 A  
HETATM   19  N   UNL     1      -8.317   8.849  64.800  1.00  0.00    -0.167 NA 
HETATM   20  C   UNL     1      -7.578   7.743  65.010  1.00  0.00    -0.096 A  
HETATM   21  C   UNL     1      -7.839   6.837  66.010  1.00  0.00    -0.104 A  
HETATM   22  F   UNL     1      -7.048   5.769  66.171  1.00  0.00    -0.064 F  
HETATM   23  C   UNL     1      -8.934   7.095  66.809  1.00  0.00    -0.137 A  
HETATM   24  N   UNL     1      -9.740   8.153  66.558  1.00  0.00    -0.239 NA 
BRANCH  23  25
HETATM   25  C   UNL     1      -9.297   6.300  68.005  1.00  0.00    -0.114 A  
HETATM   26  C   UNL     1      -9.252   4.894  67.969  1.00  0.00    -0.147 A  
HETATM   27  C   UNL     1      -9.553   4.125  69.092  1.00  0.00    -0.172 A  
HETATM   28  C   UNL     1      -9.909   4.744  70.295  1.00  0.00    -0.242 A  
HETATM   29  F   UNL     1      -9.492   2.787  68.995  1.00  0.00    -0.204 F  
HETATM   30  N   UNL     1     -10.246   4.197  71.498  1.00  0.00    -0.104 NA 
HETATM   31  C   UNL     1     -10.511   5.200  72.306  1.00  0.00    -0.219 A  
HETATM   32  N   UNL     1     -10.345   6.416  71.662  1.00  0.00    -0.203 NA 
HETATM   33  C   UNL     1     -10.944   4.989  73.711  1.00  0.00    -0.336 C  
HETATM   34  C   UNL     1      -9.645   6.932  69.229  1.00  0.00    -0.149 A  
HETATM   35  C   UNL     1      -9.953   6.137  70.356  1.00  0.00    -0.181 A  
BRANCH  32  36
HETATM   36  C   UNL     1     -10.601   7.765  72.170  1.00  0.00    -0.240 C  
HETATM   37  C   UNL     1     -11.613   8.604  71.380  1.00  0.00    -0.354 C  
HETATM   38  C   UNL     1      -9.298   8.546  72.349  1.00  0.00    -0.349 C  
ENDBRANCH  32  36
ENDBRANCH  23  25
ENDBRANCH  16  18
ENDBRANCH  13  16
ENDBRANCH   9  10
ENDBRANCH   6   9
ENDBRANCH   2   3
TORSDOF 7
ENDMDL
MODEL       56
REMARK 921   NORMALIZED FREE ENERGY PREDICTED BY IDOCK:   -6.27 KCAL/MOL
REMARK 922        TOTAL FREE ENERGY PREDICTED BY IDOCK:   -9.71 KCAL/MOL
REMARK 923 INTER-LIGAND FREE ENERGY PREDICTED BY IDOCK:   -8.77 KCAL/MOL
REMARK 924 INTRA-LIGAND FREE ENERGY PREDICTED BY IDOCK:   -0.94 KCAL/MOL
REMARK 927      BINDING AFFINITY PREDICTED BY RF-SCORE:    0.00 PKD
ROOT
HETATM    1  C   UNL     1     -13.357  15.707  72.975  1.00  0.00    -0.668 C  
HETATM    2  C   UNL     1     -13.143  15.559  71.473  1.00  0.00    -0.496 C  
ENDROOT
BRANCH   2   3
HETATM    3  N   UNL     1     -11.779  15.152  71.095  1.00  0.00    -0.324 NA 
HETATM    4  C   UNL     1     -11.814  13.840  70.404  1.00  0.00    -0.253 C  
HETATM    5  C   UNL     1     -12.280  13.900  68.928  1.00  0.00    -0.222 C  
HETATM    6  N   UNL     1     -11.543  14.873  68.089  1.00  0.00    -0.328 NA 
HETATM    7  C   UNL     1     -11.081  16.136  70.243  1.00  0.00    -0.369 C  
HETATM    8  C   UNL     1     -11.570  16.184  68.776  1.00  0.00    -0.297 C  
BRANCH   6   9
HETATM    9  C   UNL     1     -10.147  14.461  67.842  1.00  0.00    -0.228 C  
BRANCH   9  10
HETATM   10  C   UNL     1     -10.030  13.129  67.157  1.00  0.00    -0.236 A  
HETATM   11  C   UNL     1      -9.362  12.068  67.758  1.00  0.00    -0.190 A  
HETATM   12  C   UNL     1      -9.265  10.862  67.079  1.00  0.00    -0.165 A  
HETATM   13  C   UNL     1      -9.829  10.731  65.808  1.00  0.00    -0.240 A  
HETATM   14  N   UNL     1     -10.501  11.742  65.221  1.00  0.00    -0.263 NA 
HETATM   15  C   UNL     1     -10.578  12.911  65.897  1.00  0.00    -0.269 A  
BRANCH  13  16
HETATM   16  N   UNL     1      -9.781   9.517  65.132  1.00  0.00    -0.448 NA 
HETATM   17  H   UNL     1     -10.361   9.433  64.296  1.00  0.00     0.000 HD 
BRANCH  16  18
HETATM   18  C   UNL     1      -9.023   8.411  65.481  1.00  0.00    -0.098 A  
HETATM   19  N   UNL     1      -7.920   8.172  64.758  1.00  0.00    -0.140 NA 
HETATM   20  C   UNL     1      -7.234   7.051  65.050  1.00  0.00    -0.078 A  
HETATM   21  C   UNL     1      -7.561   6.212  66.088  1.00  0.00    -0.090 A  
HETATM   22  F   UNL     1      -6.820   5.123  66.330  1.00  0.00    -0.052 F  
HETATM   23  C   UNL     1      -8.667   6.556  66.837  1.00  0.00    -0.115 A  
HETATM   24  N   UNL     1      -9.420   7.631  66.505  1.00  0.00    -0.194 NA 
BRANCH  23  25
HETATM   25  C   UNL     1      -9.097   5.844  68.063  1.00  0.00    -0.117 A  
HETATM   26  C   UNL     1      -9.178   4.439  68.080  1.00  0.00    -0.178 A  
HETATM   27  C   UNL     1      -9.544   3.743  69.231  1.00  0.00    -0.138 A  
HETATM   28  C   UNL     1      -9.843   4.437  70.409  1.00  0.00    -0.216 A  
HETATM   29  F   UNL     1      -9.603   2.403  69.185  1.00  0.00    -0.210 F  
HETATM   30  N   UNL     1     -10.225   3.968  71.632  1.00  0.00    -0.102 NA 
HETATM   31  C   UNL     1     -10.398   5.021  72.400  1.00  0.00    -0.206 A  
HETATM   32  N   UNL     1     -10.125   6.191  71.710  1.00  0.00    -0.183 NA 
HETATM   33  C   UNL     1     -10.846   4.904  73.811  1.00  0.00    -0.376 C  
HETATM   34  C   UNL     1      -9.386   6.550  69.261  1.00  0.00    -0.141 A  
HETATM   35  C   UNL     1      -9.762   5.829  70.417  1.00  0.00    -0.176 A  
BRANCH  32  36
HETATM   36  C   UNL     1     -10.260   7.577  72.166  1.00  0.00    -0.196 C  
HETATM   37  C   UNL     1      -9.438   7.963  73.402  1.00  0.00    -0.341 C  
HETATM   38  C   UNL     1     -11.728   7.952  72.373  1.00  0.00    -0.423 C  
ENDBRANCH  32  36
ENDBRANCH  23  25
ENDBRANCH  16  18
ENDBRANCH  13  16
ENDBRANCH   9  10
ENDBRANCH   6   9
ENDBRANCH   2   3
TORSDOF 7
ENDMDL
MODEL       57
REMARK 921   NORMALIZED FREE ENERGY PREDICTED BY IDOCK:   -6.23 KCAL/MOL
REMARK 922        TOTAL FREE ENERGY PREDICTED BY IDOCK:   -9.65 KCAL/MOL
REMARK 923 INTER-LIGAND FREE ENERGY PREDICTED BY IDOCK:   -8.70 KCAL/MOL
REMARK 924 INTRA-LIGAND FREE ENERGY PREDICTED BY IDOCK:   -0.95 KCAL/MOL
REMARK 927      BINDING AFFINITY PREDICTED BY RF-SCORE:    0.00 PKD
ROOT
HETATM    1  C   UNL     1     -10.740   2.611  74.039  1.00  0.00    -0.262 C  
HETATM    2  C   UNL     1     -10.104   2.685  72.655  1.00  0.00    -0.156 C  
ENDROOT
BRANCH   2   3
HETATM    3  N   UNL     1      -9.243   3.861  72.448  1.00  0.00    -0.110 NA 
HETATM    4  C   UNL     1      -8.209   3.561  71.429  1.00  0.00    -0.061 C  
HETATM    5  C   UNL     1      -8.717   3.589  69.966  1.00  0.00    -0.075 C  
HETATM    6  N   UNL     1      -9.430   4.830  69.586  1.00  0.00    -0.136 NA 
HETATM    7  C   UNL     1      -9.984   5.076  72.052  1.00  0.00    -0.184 C  
HETATM    8  C   UNL     1     -10.490   5.077  70.589  1.00  0.00    -0.157 C  
BRANCH   6   9
HETATM    9  C   UNL     1      -8.527   5.997  69.507  1.00  0.00    -0.119 C  
BRANCH   9  10
HETATM   10  C   UNL     1      -8.764   6.854  68.296  1.00  0.00    -0.123 A  
HETATM   11  C   UNL     1     -10.031   6.971  67.734  1.00  0.00    -0.186 A  
HETATM   12  C   UNL     1     -10.197   7.761  66.606  1.00  0.00    -0.288 A  
HETATM   13  C   UNL     1      -9.098   8.418  66.048  1.00  0.00    -0.183 A  
HETATM   14  N   UNL     1      -7.868   8.336  66.595  1.00  0.00    -0.093 NA 
HETATM   15  C   UNL     1      -7.726   7.555  67.690  1.00  0.00    -0.115 A  
BRANCH  13  16
HETATM   16  N   UNL     1      -9.252   9.250  64.945  1.00  0.00    -0.420 NA 
HETATM   17  H   UNL     1      -8.898   8.902  64.054  1.00  0.00     0.000 HD 
BRANCH  16  18
HETATM   18  C   UNL     1      -9.841  10.504  64.937  1.00  0.00    -0.315 A  
HETATM   19  N   UNL     1     -10.097  11.053  63.741  1.00  0.00    -0.332 NA 
HETATM   20  C   UNL     1     -10.593  12.305  63.741  1.00  0.00    -0.451 A  
HETATM   21  C   UNL     1     -10.920  12.989  64.887  1.00  0.00    -0.307 A  
HETATM   22  F   UNL     1     -11.427  14.226  64.808  1.00  0.00    -0.335 F  
HETATM   23  C   UNL     1     -10.698  12.337  66.082  1.00  0.00    -0.261 A  
HETATM   24  N   UNL     1     -10.119  11.114  66.106  1.00  0.00    -0.230 NA 
BRANCH  23  25
HETATM   25  C   UNL     1     -11.101  12.866  67.406  1.00  0.00    -0.307 A  
HETATM   26  C   UNL     1     -11.775  12.045  68.328  1.00  0.00    -0.396 A  
HETATM   27  C   UNL     1     -12.132  12.508  69.594  1.00  0.00    -0.207 A  
HETATM   28  C   UNL     1     -11.821  13.817  69.978  1.00  0.00    -0.307 A  
HETATM   29  F   UNL     1     -12.775  11.676  70.429  1.00  0.00    -0.303 F  
HETATM   30  N   UNL     1     -12.077  14.473  71.147  1.00  0.00    -0.331 NA 
HETATM   31  C   UNL     1     -11.596  15.688  71.008  1.00  0.00    -0.392 A  
HETATM   32  N   UNL     1     -11.010  15.853  69.763  1.00  0.00    -0.298 NA 
HETATM   33  C   UNL     1     -11.714  16.711  72.079  1.00  0.00    -0.126 C  
HETATM   34  C   UNL     1     -10.771  14.192  67.799  1.00  0.00    -0.251 A  
HETATM   35  C   UNL     1     -11.146  14.646  69.084  1.00  0.00    -0.268 A  
BRANCH  32  36
HETATM   36  C   UNL     1     -10.422  17.061  69.179  1.00  0.00    -0.323 C  
HETATM   37  C   UNL     1     -11.006  17.514  67.836  1.00  0.00    -0.133 C  
HETATM   38  C   UNL     1      -8.900  16.942  69.077  1.00  0.00    -0.159 C  
ENDBRANCH  32  36
ENDBRANCH  23  25
ENDBRANCH  16  18
ENDBRANCH  13  16
ENDBRANCH   9  10
ENDBRANCH   6   9
ENDBRANCH   2   3
TORSDOF 7
ENDMDL
MODEL       58
REMARK 921   NORMALIZED FREE ENERGY PREDICTED BY IDOCK:   -6.23 KCAL/MOL
REMARK 922        TOTAL FREE ENERGY PREDICTED BY IDOCK:   -9.65 KCAL/MOL
REMARK 923 INTER-LIGAND FREE ENERGY PREDICTED BY IDOCK:   -8.95 KCAL/MOL
REMARK 924 INTRA-LIGAND FREE ENERGY PREDICTED BY IDOCK:   -0.70 KCAL/MOL
REMARK 927      BINDING AFFINITY PREDICTED BY RF-SCORE:    0.00 PKD
ROOT
HETATM    1  C   UNL     1      -5.870  21.326  67.359  1.00  0.00    -0.421 C  
HETATM    2  C   UNL     1      -6.916  20.381  67.940  1.00  0.00    -0.299 C  
ENDROOT
BRANCH   2   3
HETATM    3  N   UNL     1      -8.051  20.109  67.043  1.00  0.00    -0.315 NA 
HETATM    4  C   UNL     1      -7.847  18.820  66.340  1.00  0.00    -0.278 C  
HETATM    5  C   UNL     1      -8.137  17.564  67.201  1.00  0.00    -0.210 C  
HETATM    6  N   UNL     1      -9.467  17.559  67.853  1.00  0.00    -0.271 NA 
HETATM    7  C   UNL     1      -9.359  20.093  67.729  1.00  0.00    -0.336 C  
HETATM    8  C   UNL     1      -9.622  18.834  68.589  1.00  0.00    -0.387 C  
BRANCH   6   9
HETATM    9  C   UNL     1     -10.569  17.398  66.883  1.00  0.00    -0.216 C  
BRANCH   9  10
HETATM   10  C   UNL     1     -10.863  15.963  66.546  1.00  0.00    -0.198 A  
HETATM   11  C   UNL     1     -11.353  15.085  67.507  1.00  0.00    -0.340 A  
HETATM   12  C   UNL     1     -11.593  13.765  67.152  1.00  0.00    -0.392 A  
HETATM   13  C   UNL     1     -11.336  13.337  65.848  1.00  0.00    -0.311 A  
HETATM   14  N   UNL     1     -10.884  14.181  64.898  1.00  0.00    -0.389 NA 
HETATM   15  C   UNL     1     -10.650  15.461  65.266  1.00  0.00    -0.428 A  
BRANCH  13  16
HETATM   16  N   UNL     1     -11.612  12.030  65.463  1.00  0.00    -0.331 NA 
HETATM   17  H   UNL     1     -12.541  11.850  65.080  1.00  0.00     0.000 HD 
BRANCH  16  18
HETATM   18  C   UNL     1     -10.751  10.948  65.547  1.00  0.00    -0.112 A  
HETATM   19  N   UNL     1      -9.829  10.823  64.581  1.00  0.00    -0.279 NA 
HETATM   20  C   UNL     1      -9.049   9.726  64.624  1.00  0.00    -0.245 A  
HETATM   21  C   UNL     1      -9.100   8.801  65.640  1.00  0.00    -0.191 A  
HETATM   22  F   UNL     1      -8.279   7.743  65.625  1.00  0.00    -0.105 F  
HETATM   23  C   UNL     1     -10.022   9.030  66.640  1.00  0.00    -0.278 A  
HETATM   24  N   UNL     1     -10.874  10.079  66.569  1.00  0.00    -0.024 NA 
BRANCH  23  25
HETATM   25  C   UNL     1     -10.136   8.212  67.870  1.00  0.00    -0.246 A  
HETATM   26  C   UNL     1     -10.678   8.763  69.046  1.00  0.00    -0.134 A  
HETATM   27  C   UNL     1     -10.829   8.004  70.206  1.00  0.00    -0.241 A  
HETATM   28  C   UNL     1     -10.440   6.660  70.224  1.00  0.00    -0.209 A  
HETATM   29  F   UNL     1     -11.354   8.586  71.296  1.00  0.00    -0.266 F  
HETATM   30  N   UNL     1     -10.489   5.745  71.234  1.00  0.00    -0.226 NA 
HETATM   31  C   UNL     1      -9.993   4.627  70.753  1.00  0.00    -0.214 A  
HETATM   32  N   UNL     1      -9.621   4.777  69.426  1.00  0.00    -0.161 NA 
HETATM   33  C   UNL     1      -9.859   3.401  71.581  1.00  0.00    -0.222 C  
HETATM   34  C   UNL     1      -9.752   6.844  67.882  1.00  0.00    -0.136 A  
HETATM   35  C   UNL     1      -9.907   6.091  69.067  1.00  0.00    -0.148 A  
BRANCH  32  36
HETATM   36  C   UNL     1      -8.967   3.810  68.542  1.00  0.00    -0.124 C  
HETATM   37  C   UNL     1      -9.534   2.385  68.564  1.00  0.00    -0.209 C  
HETATM   38  C   UNL     1      -7.456   3.778  68.777  1.00  0.00    -0.054 C  
ENDBRANCH  32  36
ENDBRANCH  23  25
ENDBRANCH  16  18
ENDBRANCH  13  16
ENDBRANCH   9  10
ENDBRANCH   6   9
ENDBRANCH   2   3
TORSDOF 7
ENDMDL
MODEL       59
REMARK 921   NORMALIZED FREE ENERGY PREDICTED BY IDOCK:   -6.20 KCAL/MOL
REMARK 922        TOTAL FREE ENERGY PREDICTED BY IDOCK:   -9.61 KCAL/MOL
REMARK 923 INTER-LIGAND FREE ENERGY PREDICTED BY IDOCK:   -8.68 KCAL/MOL
REMARK 924 INTRA-LIGAND FREE ENERGY PREDICTED BY IDOCK:   -0.93 KCAL/MOL
REMARK 927      BINDING AFFINITY PREDICTED BY RF-SCORE:    0.00 PKD
ROOT
HETATM    1  C   UNL     1      -9.679  18.337  66.360  1.00  0.00    -0.334 C  
HETATM    2  C   UNL     1     -10.676  17.346  65.771  1.00  0.00    -0.120 C  
ENDROOT
BRANCH   2   3
HETATM    3  N   UNL     1     -10.123  16.003  65.528  1.00  0.00    -0.461 NA 
HETATM    4  C   UNL     1      -9.902  15.304  66.817  1.00  0.00    -0.236 C  
HETATM    5  C   UNL     1     -11.185  14.733  67.470  1.00  0.00    -0.332 C  
HETATM    6  N   UNL     1     -11.997  13.870  66.580  1.00  0.00    -0.416 NA 
HETATM    7  C   UNL     1     -10.966  15.164  64.653  1.00  0.00    -0.303 C  
HETATM    8  C   UNL     1     -12.247  14.613  65.324  1.00  0.00    -0.249 C  
BRANCH   6   9
HETATM    9  C   UNL     1     -11.333  12.584  66.283  1.00  0.00    -0.338 C  
BRANCH   9  10
HETATM   10  C   UNL     1     -10.933  11.821  67.514  1.00  0.00    -0.310 A  
HETATM   11  C   UNL     1     -11.880  11.421  68.450  1.00  0.00    -0.344 A  
HETATM   12  C   UNL     1     -11.461  10.732  69.580  1.00  0.00    -0.365 A  
HETATM   13  C   UNL     1     -10.105  10.457  69.764  1.00  0.00    -0.157 A  
HETATM   14  N   UNL     1      -9.177  10.815  68.853  1.00  0.00    -0.181 NA 
HETATM   15  C   UNL     1      -9.605  11.491  67.763  1.00  0.00    -0.175 A  
BRANCH  13  16
HETATM   16  N   UNL     1      -9.671   9.729  70.866  1.00  0.00    -0.286 NA 
HETATM   17  H   UNL     1      -8.908  10.131  71.411  1.00  0.00     0.000 HD 
BRANCH  16  18
HETATM   18  C   UNL     1     -10.174   8.511  71.296  1.00  0.00    -0.223 A  
HETATM   19  N   UNL     1     -11.043   8.534  72.317  1.00  0.00    -0.362 NA 
HETATM   20  C   UNL     1     -11.464   7.343  72.782  1.00  0.00    -0.265 A  
HETATM   21  C   UNL     1     -11.116   6.142  72.212  1.00  0.00    -0.277 A  
HETATM   22  F   UNL     1     -11.590   4.996  72.720  1.00  0.00    -0.309 F  
HETATM   23  C   UNL     1     -10.275   6.195  71.120  1.00  0.00    -0.198 A  
HETATM   24  N   UNL     1      -9.772   7.376  70.692  1.00  0.00    -0.175 NA 
BRANCH  23  25
HETATM   25  C   UNL     1      -9.893   5.018  70.306  1.00  0.00    -0.304 A  
HETATM   26  C   UNL     1      -9.562   3.798  70.925  1.00  0.00    -0.256 A  
HETATM   27  C   UNL     1      -9.235   2.667  70.180  1.00  0.00    -0.132 A  
HETATM   28  C   UNL     1      -9.230   2.721  68.782  1.00  0.00    -0.169 A  
HETATM   29  F   UNL     1      -8.928   1.532  70.829  1.00  0.00    -0.084 F  
HETATM   30  N   UNL     1      -8.938   1.752  67.867  1.00  0.00    -0.121 NA 
HETATM   31  C   UNL     1      -9.064   2.306  66.681  1.00  0.00    -0.074 A  
HETATM   32  N   UNL     1      -9.449   3.633  66.789  1.00  0.00    -0.194 NA 
HETATM   33  C   UNL     1      -8.797   1.556  65.427  1.00  0.00    -0.123 C  
HETATM   34  C   UNL     1      -9.902   5.072  68.886  1.00  0.00    -0.245 A  
HETATM   35  C   UNL     1      -9.562   3.917  68.147  1.00  0.00    -0.120 A  
BRANCH  32  36
HETATM   36  C   UNL     1      -9.631   4.624  65.726  1.00  0.00    -0.184 C  
HETATM   37  C   UNL     1     -10.719   4.313  64.692  1.00  0.00    -0.121 C  
HETATM   38  C   UNL     1      -8.308   4.929  65.021  1.00  0.00    -0.136 C  
ENDBRANCH  32  36
ENDBRANCH  23  25
ENDBRANCH  16  18
ENDBRANCH  13  16
ENDBRANCH   9  10
ENDBRANCH   6   9
ENDBRANCH   2   3
TORSDOF 7
ENDMDL
MODEL       60
REMARK 921   NORMALIZED FREE ENERGY PREDICTED BY IDOCK:   -6.19 KCAL/MOL
REMARK 922        TOTAL FREE ENERGY PREDICTED BY IDOCK:   -9.60 KCAL/MOL
REMARK 923 INTER-LIGAND FREE ENERGY PREDICTED BY IDOCK:   -9.09 KCAL/MOL
REMARK 924 INTRA-LIGAND FREE ENERGY PREDICTED BY IDOCK:   -0.51 KCAL/MOL
REMARK 927      BINDING AFFINITY PREDICTED BY RF-SCORE:    0.00 PKD
ROOT
HETATM    1  C   UNL     1      -7.108  20.213  66.910  1.00  0.00    -0.275 C  
HETATM    2  C   UNL     1      -8.601  20.020  66.675  1.00  0.00    -0.321 C  
ENDROOT
BRANCH   2   3
HETATM    3  N   UNL     1      -8.970  18.675  66.203  1.00  0.00    -0.488 NA 
HETATM    4  C   UNL     1      -8.337  17.644  67.060  1.00  0.00    -0.221 C  
HETATM    5  C   UNL     1      -9.031  17.429  68.429  1.00  0.00    -0.277 C  
HETATM    6  N   UNL     1     -10.488  17.169  68.346  1.00  0.00    -0.356 NA 
HETATM    7  C   UNL     1     -10.428  18.443  66.150  1.00  0.00    -0.395 C  
HETATM    8  C   UNL     1     -11.100  18.241  67.530  1.00  0.00     0.084 C  
BRANCH   6   9
HETATM    9  C   UNL     1     -10.792  15.849  67.757  1.00  0.00    -0.324 C  
BRANCH   9  10
HETATM   10  C   UNL     1     -11.399  14.884  68.736  1.00  0.00    -0.304 A  
HETATM   11  C   UNL     1     -11.579  13.545  68.407  1.00  0.00    -0.378 A  
HETATM   12  C   UNL     1     -12.160  12.695  69.337  1.00  0.00    -0.236 A  
HETATM   13  C   UNL     1     -12.558  13.192  70.581  1.00  0.00    -0.211 A  
HETATM   14  N   UNL     1     -12.367  14.481  70.925  1.00  0.00    -0.320 NA 
HETATM   15  C   UNL     1     -11.806  15.294  70.001  1.00  0.00    -0.334 A  
BRANCH  13  16
HETATM   16  N   UNL     1     -13.099  12.346  71.542  1.00  0.00    -0.342 NA 
HETATM   17  H   UNL     1     -13.655  12.783  72.278  1.00  0.00     0.000 HD 
BRANCH  16  18
HETATM   18  C   UNL     1     -12.958  10.969  71.600  1.00  0.00    -0.456 A  
HETATM   19  N   UNL     1     -14.034  10.258  71.966  1.00  0.00     0.082 NA 
HETATM   20  C   UNL     1     -13.867   8.929  72.099  1.00  0.00    -0.473 A  
HETATM   21  C   UNL     1     -12.694   8.280  71.797  1.00  0.00    -0.336 A  
HETATM   22  F   UNL     1     -12.608   6.950  71.936  1.00  0.00    -0.352 F  
HETATM   23  C   UNL     1     -11.648   9.064  71.356  1.00  0.00    -0.326 A  
HETATM   24  N   UNL     1     -11.770  10.411  71.300  1.00  0.00    -0.303 NA 
BRANCH  23  25
HETATM   25  C   UNL     1     -10.355   8.530  70.870  1.00  0.00    -0.245 A  
HETATM   26  C   UNL     1      -9.159   8.828  71.549  1.00  0.00    -0.322 A  
HETATM   27  C   UNL     1      -7.934   8.308  71.133  1.00  0.00    -0.102 A  
HETATM   28  C   UNL     1      -7.868   7.466  70.018  1.00  0.00    -0.104 A  
HETATM   29  F   UNL     1      -6.828   8.629  71.823  1.00  0.00    -0.066 F  
HETATM   30  N   UNL     1      -6.793   6.859  69.438  1.00  0.00    -0.053 NA 
HETATM   31  C   UNL     1      -7.253   6.185  68.408  1.00  0.00    -0.084 A  
HETATM   32  N   UNL     1      -8.628   6.323  68.295  1.00  0.00    -0.117 NA 
HETATM   33  C   UNL     1      -6.361   5.409  67.509  1.00  0.00    -0.039 C  
HETATM   34  C   UNL     1     -10.293   7.664  69.745  1.00  0.00    -0.223 A  
HETATM   35  C   UNL     1      -9.042   7.151  69.334  1.00  0.00    -0.145 A  
BRANCH  32  36
HETATM   36  C   UNL     1      -9.520   5.800  67.258  1.00  0.00    -0.114 C  
HETATM   37  C   UNL     1     -10.777   6.630  66.968  1.00  0.00    -0.437 C  
HETATM   38  C   UNL     1      -9.903   4.346  67.538  1.00  0.00    -0.180 C  
ENDBRANCH  32  36
ENDBRANCH  23  25
ENDBRANCH  16  18
ENDBRANCH  13  16
ENDBRANCH   9  10
ENDBRANCH   6   9
ENDBRANCH   2   3
TORSDOF 7
ENDMDL
MODEL       61
REMARK 921   NORMALIZED FREE ENERGY PREDICTED BY IDOCK:   -6.17 KCAL/MOL
REMARK 922        TOTAL FREE ENERGY PREDICTED BY IDOCK:   -9.57 KCAL/MOL
REMARK 923 INTER-LIGAND FREE ENERGY PREDICTED BY IDOCK:   -8.43 KCAL/MOL
REMARK 924 INTRA-LIGAND FREE ENERGY PREDICTED BY IDOCK:   -1.14 KCAL/MOL
REMARK 927      BINDING AFFINITY PREDICTED BY RF-SCORE:    0.00 PKD
ROOT
HETATM    1  C   UNL     1      -6.258  20.783  67.393  1.00  0.00    -0.333 C  
HETATM    2  C   UNL     1      -7.752  20.753  67.091  1.00  0.00    -0.259 C  
ENDROOT
BRANCH   2   3
HETATM    3  N   UNL     1      -8.505  19.748  67.859  1.00  0.00    -0.307 NA 
HETATM    4  C   UNL     1      -9.933  19.771  67.463  1.00  0.00    -0.409 C  
HETATM    5  C   UNL     1     -10.240  19.071  66.115  1.00  0.00    -0.446 C  
HETATM    6  N   UNL     1      -9.727  17.686  66.010  1.00  0.00    -0.528 NA 
HETATM    7  C   UNL     1      -7.977  18.376  67.717  1.00  0.00    -0.249 C  
HETATM    8  C   UNL     1      -8.288  17.702  66.359  1.00  0.00    -0.253 C  
BRANCH   6   9
HETATM    9  C   UNL     1     -10.450  16.748  66.892  1.00  0.00    -0.269 C  
BRANCH   9  10
HETATM   10  C   UNL     1     -10.545  15.356  66.334  1.00  0.00    -0.307 A  
HETATM   11  C   UNL     1     -11.021  15.128  65.047  1.00  0.00    -0.443 A  
HETATM   12  C   UNL     1     -11.106  13.824  64.582  1.00  0.00    -0.391 A  
HETATM   13  C   UNL     1     -10.723  12.764  65.406  1.00  0.00    -0.284 A  
HETATM   14  N   UNL     1     -10.237  12.969  66.647  1.00  0.00    -0.252 NA 
HETATM   15  C   UNL     1     -10.168  14.247  67.084  1.00  0.00    -0.254 A  
BRANCH  13  16
HETATM   16  N   UNL     1     -10.759  11.454  64.942  1.00  0.00    -0.298 NA 
HETATM   17  H   UNL     1     -11.634  11.139  64.523  1.00  0.00     0.000 HD 
BRANCH  16  18
HETATM   18  C   UNL     1      -9.723  10.536  64.992  1.00  0.00    -0.292 A  
HETATM   19  N   UNL     1      -8.609  10.830  64.305  1.00  0.00    -0.094 NA 
HETATM   20  C   UNL     1      -7.639   9.897  64.292  1.00  0.00    -0.139 A  
HETATM   21  C   UNL     1      -7.707   8.725  65.007  1.00  0.00    -0.105 A  
HETATM   22  F   UNL     1      -6.693   7.851  64.960  1.00  0.00    -0.049 F  
HETATM   23  C   UNL     1      -8.850   8.518  65.751  1.00  0.00    -0.190 A  
HETATM   24  N   UNL     1      -9.873   9.404  65.707  1.00  0.00    -0.306 NA 
BRANCH  23  25
HETATM   25  C   UNL     1      -9.047   7.377  66.675  1.00  0.00    -0.184 A  
HETATM   26  C   UNL     1      -9.325   7.601  68.036  1.00  0.00    -0.144 A  
HETATM   27  C   UNL     1      -9.550   6.545  68.918  1.00  0.00    -0.127 A  
HETATM   28  C   UNL     1      -9.505   5.224  68.461  1.00  0.00    -0.128 A  
HETATM   29  F   UNL     1      -9.810   6.823  70.206  1.00  0.00    -0.172 F  
HETATM   30  N   UNL     1      -9.685   4.054  69.139  1.00  0.00    -0.160 NA 
HETATM   31  C   UNL     1      -9.528   3.085  68.264  1.00  0.00    -0.154 A  
HETATM   32  N   UNL     1      -9.257   3.592  67.003  1.00  0.00    -0.177 NA 
HETATM   33  C   UNL     1      -9.625   1.653  68.645  1.00  0.00    -0.178 C  
HETATM   34  C   UNL     1      -9.015   6.037  66.205  1.00  0.00    -0.160 A  
HETATM   35  C   UNL     1      -9.240   4.979  67.114  1.00  0.00    -0.120 A  
BRANCH  32  36
HETATM   36  C   UNL     1      -8.948   2.865  65.770  1.00  0.00    -0.144 C  
HETATM   37  C   UNL     1      -7.544   3.078  65.193  1.00  0.00    -0.080 C  
HETATM   38  C   UNL     1     -10.003   3.127  64.694  1.00  0.00    -0.045 C  
ENDBRANCH  32  36
ENDBRANCH  23  25
ENDBRANCH  16  18
ENDBRANCH  13  16
ENDBRANCH   9  10
ENDBRANCH   6   9
ENDBRANCH   2   3
TORSDOF 7
ENDMDL
MODEL       62
REMARK 921   NORMALIZED FREE ENERGY PREDICTED BY IDOCK:   -6.13 KCAL/MOL
REMARK 922        TOTAL FREE ENERGY PREDICTED BY IDOCK:   -9.51 KCAL/MOL
REMARK 923 INTER-LIGAND FREE ENERGY PREDICTED BY IDOCK:   -8.68 KCAL/MOL
REMARK 924 INTRA-LIGAND FREE ENERGY PREDICTED BY IDOCK:   -0.83 KCAL/MOL
REMARK 927      BINDING AFFINITY PREDICTED BY RF-SCORE:    0.00 PKD
ROOT
HETATM    1  C   UNL     1      -6.196   5.007  74.513  1.00  0.00    -0.062 C  
HETATM    2  C   UNL     1      -6.499   5.724  73.202  1.00  0.00    -0.064 C  
ENDROOT
BRANCH   2   3
HETATM    3  N   UNL     1      -7.912   5.663  72.792  1.00  0.00    -0.102 NA 
HETATM    4  C   UNL     1      -8.434   7.032  72.564  1.00  0.00    -0.112 C  
HETATM    5  C   UNL     1      -8.000   7.673  71.221  1.00  0.00    -0.094 C  
HETATM    6  N   UNL     1      -8.272   6.841  70.026  1.00  0.00    -0.131 NA 
HETATM    7  C   UNL     1      -8.144   4.842  71.587  1.00  0.00    -0.104 C  
HETATM    8  C   UNL     1      -7.694   5.499  70.260  1.00  0.00    -0.085 C  
BRANCH   6   9
HETATM    9  C   UNL     1      -9.716   6.726  69.736  1.00  0.00    -0.156 C  
BRANCH   9  10
HETATM   10  C   UNL     1     -10.372   8.045  69.437  1.00  0.00    -0.217 A  
HETATM   11  C   UNL     1     -11.022   8.766  70.432  1.00  0.00    -0.262 A  
HETATM   12  C   UNL     1     -11.627   9.971  70.104  1.00  0.00    -0.320 A  
HETATM   13  C   UNL     1     -11.583  10.437  68.788  1.00  0.00    -0.119 A  
HETATM   14  N   UNL     1     -10.935   9.762  67.817  1.00  0.00    -0.246 NA 
HETATM   15  C   UNL     1     -10.357   8.587  68.156  1.00  0.00    -0.206 A  
BRANCH  13  16
HETATM   16  N   UNL     1     -12.144  11.663  68.450  1.00  0.00    -0.518 NA 
HETATM   17  H   UNL     1     -13.037  11.896  68.885  1.00  0.00     0.000 HD 
BRANCH  16  18
HETATM   18  C   UNL     1     -11.610  12.599  67.579  1.00  0.00    -0.359 A  
HETATM   19  N   UNL     1     -12.153  12.676  66.355  1.00  0.00    -0.565 NA 
HETATM   20  C   UNL     1     -11.577  13.529  65.487  1.00  0.00    -0.320 A  
HETATM   21  C   UNL     1     -10.540  14.365  65.825  1.00  0.00    -0.318 A  
HETATM   22  F   UNL     1     -10.029  15.202  64.913  1.00  0.00    -0.354 F  
HETATM   23  C   UNL     1     -10.077  14.286  67.122  1.00  0.00    -0.254 A  
HETATM   24  N   UNL     1     -10.585  13.373  67.983  1.00  0.00    -0.237 NA 
BRANCH  23  25
HETATM   25  C   UNL     1      -9.054  15.190  67.698  1.00  0.00    -0.181 A  
HETATM   26  C   UNL     1      -7.844  14.672  68.198  1.00  0.00    -0.128 A  
HETATM   27  C   UNL     1      -6.851  15.505  68.711  1.00  0.00    -0.116 A  
HETATM   28  C   UNL     1      -7.038  16.891  68.738  1.00  0.00    -0.216 A  
HETATM   29  F   UNL     1      -5.719  14.951  69.173  1.00  0.00    -0.094 F  
HETATM   30  N   UNL     1      -6.216  17.879  69.194  1.00  0.00    -0.221 NA 
HETATM   31  C   UNL     1      -6.855  19.013  69.011  1.00  0.00    -0.318 A  
HETATM   32  N   UNL     1      -8.093  18.799  68.425  1.00  0.00    -0.329 NA 
HETATM   33  C   UNL     1      -6.277  20.320  69.416  1.00  0.00    -0.355 C  
HETATM   34  C   UNL     1      -9.241  16.598  67.711  1.00  0.00    -0.214 A  
HETATM   35  C   UNL     1      -8.226  17.426  68.240  1.00  0.00    -0.247 A  
BRANCH  32  36
HETATM   36  C   UNL     1      -9.142  19.773  68.117  1.00  0.00    -0.314 C  
HETATM   37  C   UNL     1     -10.283  19.881  69.135  1.00  0.00    -0.281 C  
HETATM   38  C   UNL     1      -9.709  19.550  66.714  1.00  0.00    -0.464 C  
ENDBRANCH  32  36
ENDBRANCH  23  25
ENDBRANCH  16  18
ENDBRANCH  13  16
ENDBRANCH   9  10
ENDBRANCH   6   9
ENDBRANCH   2   3
TORSDOF 7
ENDMDL
MODEL       63
REMARK 921   NORMALIZED FREE ENERGY PREDICTED BY IDOCK:   -6.12 KCAL/MOL
REMARK 922        TOTAL FREE ENERGY PREDICTED BY IDOCK:   -9.50 KCAL/MOL
REMARK 923 INTER-LIGAND FREE ENERGY PREDICTED BY IDOCK:   -8.72 KCAL/MOL
REMARK 924 INTRA-LIGAND FREE ENERGY PREDICTED BY IDOCK:   -0.78 KCAL/MOL
REMARK 927      BINDING AFFINITY PREDICTED BY RF-SCORE:    0.00 PKD
ROOT
HETATM    1  C   UNL     1      -9.531  20.431  67.198  1.00  0.00    -0.567 C  
HETATM    2  C   UNL     1      -9.004  19.251  66.390  1.00  0.00    -0.352 C  
ENDROOT
BRANCH   2   3
HETATM    3  N   UNL     1      -8.545  18.115  67.206  1.00  0.00    -0.237 NA 
HETATM    4  C   UNL     1      -9.392  17.983  68.416  1.00  0.00    -0.300 C  
HETATM    5  C   UNL     1     -10.776  17.333  68.165  1.00  0.00    -0.363 C  
HETATM    6  N   UNL     1     -10.726  16.031  67.460  1.00  0.00    -0.317 NA 
HETATM    7  C   UNL     1      -8.525  16.831  66.478  1.00  0.00    -0.283 C  
HETATM    8  C   UNL     1      -9.919  16.206  66.231  1.00  0.00    -0.317 C  
BRANCH   6   9
HETATM    9  C   UNL     1     -10.149  14.960  68.296  1.00  0.00    -0.221 C  
BRANCH   9  10
HETATM   10  C   UNL     1     -10.204  13.604  67.651  1.00  0.00    -0.239 A  
HETATM   11  C   UNL     1      -9.042  12.897  67.362  1.00  0.00    -0.197 A  
HETATM   12  C   UNL     1      -9.142  11.656  66.750  1.00  0.00    -0.186 A  
HETATM   13  C   UNL     1     -10.399  11.138  66.428  1.00  0.00    -0.252 A  
HETATM   14  N   UNL     1     -11.537  11.798  66.724  1.00  0.00    -0.536 NA 
HETATM   15  C   UNL     1     -11.416  13.010  67.314  1.00  0.00    -0.332 A  
BRANCH  13  16
HETATM   16  N   UNL     1     -10.522   9.877  65.857  1.00  0.00    -0.095 NA 
HETATM   17  H   UNL     1     -11.064   9.814  64.995  1.00  0.00     0.000 HD 
BRANCH  16  18
HETATM   18  C   UNL     1      -9.980   8.698  66.342  1.00  0.00    -0.260 A  
HETATM   19  N   UNL     1      -9.057   8.090  65.583  1.00  0.00    -0.062 NA 
HETATM   20  C   UNL     1      -8.595   6.904  66.022  1.00  0.00    -0.145 A  
HETATM   21  C   UNL     1      -8.956   6.350  67.227  1.00  0.00    -0.107 A  
HETATM   22  F   UNL     1      -8.440   5.174  67.606  1.00  0.00    -0.105 F  
HETATM   23  C   UNL     1      -9.855   7.064  67.992  1.00  0.00    -0.138 A  
HETATM   24  N   UNL     1     -10.397   8.214  67.528  1.00  0.00    -0.243 NA 
BRANCH  23  25
HETATM   25  C   UNL     1     -10.264   6.687  69.365  1.00  0.00    -0.207 A  
HETATM   26  C   UNL     1     -11.180   7.480  70.081  1.00  0.00    -0.213 A  
HETATM   27  C   UNL     1     -11.608   7.127  71.359  1.00  0.00    -0.283 A  
HETATM   28  C   UNL     1     -11.130   5.959  71.964  1.00  0.00    -0.274 A  
HETATM   29  F   UNL     1     -12.483   7.924  71.991  1.00  0.00    -0.297 F  
HETATM   30  N   UNL     1     -11.404   5.431  73.192  1.00  0.00    -0.295 NA 
HETATM   31  C   UNL     1     -10.694   4.330  73.295  1.00  0.00    -0.220 A  
HETATM   32  N   UNL     1      -9.954   4.105  72.144  1.00  0.00    -0.169 NA 
HETATM   33  C   UNL     1     -10.712   3.489  74.518  1.00  0.00    -0.085 C  
HETATM   34  C   UNL     1      -9.788   5.493  69.971  1.00  0.00    -0.262 A  
HETATM   35  C   UNL     1     -10.228   5.154  71.270  1.00  0.00    -0.222 A  
BRANCH  32  36
HETATM   36  C   UNL     1      -8.986   3.041  71.870  1.00  0.00    -0.089 C  
HETATM   37  C   UNL     1      -7.540   3.491  71.624  1.00  0.00    -0.053 C  
HETATM   38  C   UNL     1      -9.459   2.145  70.725  1.00  0.00    -0.197 C  
ENDBRANCH  32  36
ENDBRANCH  23  25
ENDBRANCH  16  18
ENDBRANCH  13  16
ENDBRANCH   9  10
ENDBRANCH   6   9
ENDBRANCH   2   3
TORSDOF 7
ENDMDL
MODEL       64
REMARK 921   NORMALIZED FREE ENERGY PREDICTED BY IDOCK:   -6.07 KCAL/MOL
REMARK 922        TOTAL FREE ENERGY PREDICTED BY IDOCK:   -9.43 KCAL/MOL
REMARK 923 INTER-LIGAND FREE ENERGY PREDICTED BY IDOCK:   -8.55 KCAL/MOL
REMARK 924 INTRA-LIGAND FREE ENERGY PREDICTED BY IDOCK:   -0.88 KCAL/MOL
REMARK 927      BINDING AFFINITY PREDICTED BY RF-SCORE:    0.00 PKD
ROOT
HETATM    1  C   UNL     1      -9.815  20.575  67.514  1.00  0.00    -0.534 C  
HETATM    2  C   UNL     1      -9.792  19.473  68.566  1.00  0.00    -0.429 C  
ENDROOT
BRANCH   2   3
HETATM    3  N   UNL     1      -9.000  18.291  68.187  1.00  0.00    -0.294 NA 
HETATM    4  C   UNL     1      -9.587  17.070  68.789  1.00  0.00    -0.269 C  
HETATM    5  C   UNL     1     -10.851  16.540  68.067  1.00  0.00    -0.337 C  
HETATM    6  N   UNL     1     -10.687  16.334  66.609  1.00  0.00    -0.252 NA 
HETATM    7  C   UNL     1      -8.872  18.107  66.727  1.00  0.00    -0.264 C  
HETATM    8  C   UNL     1     -10.149  17.585  66.027  1.00  0.00    -0.260 C  
BRANCH   6   9
HETATM    9  C   UNL     1      -9.788  15.205  66.297  1.00  0.00    -0.295 C  
BRANCH   9  10
HETATM   10  C   UNL     1     -10.282  13.886  66.821  1.00  0.00    -0.268 A  
HETATM   11  C   UNL     1      -9.569  13.185  67.788  1.00  0.00    -0.208 A  
HETATM   12  C   UNL     1     -10.056  11.964  68.230  1.00  0.00    -0.203 A  
HETATM   13  C   UNL     1     -11.242  11.453  67.698  1.00  0.00    -0.283 A  
HETATM   14  N   UNL     1     -11.958  12.132  66.778  1.00  0.00    -0.615 NA 
HETATM   15  C   UNL     1     -11.463  13.317  66.356  1.00  0.00    -0.329 A  
BRANCH  13  16
HETATM   16  N   UNL     1     -11.769  10.253  68.160  1.00  0.00    -0.714 NA 
HETATM   17  H   UNL     1     -12.354   9.727  67.510  1.00  0.00     0.000 HD 
BRANCH  16  18
HETATM   18  C   UNL     1     -11.577   9.701  69.416  1.00  0.00     0.199 A  
HETATM   19  N   UNL     1     -12.104  10.357  70.460  1.00  0.00    -0.307 NA 
HETATM   20  C   UNL     1     -11.845   9.859  71.684  1.00  0.00    -0.296 A  
HETATM   21  C   UNL     1     -11.155   8.689  71.894  1.00  0.00    -0.346 A  
HETATM   22  F   UNL     1     -10.951   8.245  73.141  1.00  0.00    -0.389 F  
HETATM   23  C   UNL     1     -10.704   8.026  70.772  1.00  0.00    -0.223 A  
HETATM   24  N   UNL     1     -10.878   8.556  69.539  1.00  0.00    -0.179 NA 
BRANCH  23  25
HETATM   25  C   UNL     1     -10.052   6.696  70.797  1.00  0.00    -0.205 A  
HETATM   26  C   UNL     1     -10.633   5.629  71.509  1.00  0.00    -0.306 A  
HETATM   27  C   UNL     1     -10.059   4.359  71.518  1.00  0.00    -0.151 A  
HETATM   28  C   UNL     1      -8.878   4.115  70.808  1.00  0.00    -0.086 A  
HETATM   29  F   UNL     1     -10.661   3.383  72.216  1.00  0.00    -0.209 F  
HETATM   30  N   UNL     1      -8.149   2.969  70.684  1.00  0.00    -0.046 NA 
HETATM   31  C   UNL     1      -7.118   3.260  69.924  1.00  0.00    -0.041 A  
HETATM   32  N   UNL     1      -7.152   4.586  69.524  1.00  0.00    -0.050 NA 
HETATM   33  C   UNL     1      -6.077   2.255  69.586  1.00  0.00    -0.024 C  
HETATM   34  C   UNL     1      -8.861   6.447  70.064  1.00  0.00    -0.143 A  
HETATM   35  C   UNL     1      -8.290   5.155  70.089  1.00  0.00    -0.093 A  
BRANCH  32  36
HETATM   36  C   UNL     1      -6.168   5.332  68.737  1.00  0.00    -0.030 C  
HETATM   37  C   UNL     1      -5.441   6.469  69.465  1.00  0.00    -0.014 C  
HETATM   38  C   UNL     1      -6.779   5.849  67.434  1.00  0.00    -0.058 C  
ENDBRANCH  32  36
ENDBRANCH  23  25
ENDBRANCH  16  18
ENDBRANCH  13  16
ENDBRANCH   9  10
ENDBRANCH   6   9
ENDBRANCH   2   3
TORSDOF 7
ENDMDL
MODEL       65
REMARK 921   NORMALIZED FREE ENERGY PREDICTED BY IDOCK:   -6.01 KCAL/MOL
REMARK 922        TOTAL FREE ENERGY PREDICTED BY IDOCK:   -9.34 KCAL/MOL
REMARK 923 INTER-LIGAND FREE ENERGY PREDICTED BY IDOCK:   -8.80 KCAL/MOL
REMARK 924 INTRA-LIGAND FREE ENERGY PREDICTED BY IDOCK:   -0.53 KCAL/MOL
REMARK 927      BINDING AFFINITY PREDICTED BY RF-SCORE:    0.00 PKD
ROOT
HETATM    1  C   UNL     1      -6.001  20.908  68.269  1.00  0.00    -0.388 C  
HETATM    2  C   UNL     1      -7.423  20.701  67.760  1.00  0.00    -0.208 C  
ENDROOT
BRANCH   2   3
HETATM    3  N   UNL     1      -7.580  19.549  66.857  1.00  0.00    -0.239 NA 
HETATM    4  C   UNL     1      -7.648  18.293  67.642  1.00  0.00    -0.220 C  
HETATM    5  C   UNL     1      -9.014  18.032  68.325  1.00  0.00    -0.282 C  
HETATM    6  N   UNL     1     -10.180  18.101  67.414  1.00  0.00    -0.355 NA 
HETATM    7  C   UNL     1      -8.761  19.642  65.976  1.00  0.00    -0.240 C  
HETATM    8  C   UNL     1     -10.115  19.387  66.682  1.00  0.00    -0.407 C  
BRANCH   6   9
HETATM    9  C   UNL     1     -10.215  16.977  66.457  1.00  0.00    -0.320 C  
BRANCH   9  10
HETATM   10  C   UNL     1     -10.214  15.629  67.120  1.00  0.00    -0.270 A  
HETATM   11  C   UNL     1      -9.109  14.788  67.037  1.00  0.00    -0.257 A  
HETATM   12  C   UNL     1      -9.161  13.545  67.651  1.00  0.00    -0.205 A  
HETATM   13  C   UNL     1     -10.314  13.154  68.334  1.00  0.00    -0.253 A  
HETATM   14  N   UNL     1     -11.385  13.966  68.446  1.00  0.00    -0.268 NA 
HETATM   15  C   UNL     1     -11.316  15.171  67.834  1.00  0.00    -0.338 A  
BRANCH  13  16
HETATM   16  N   UNL     1     -10.368  11.931  68.994  1.00  0.00    -0.404 NA 
HETATM   17  H   UNL     1     -10.441  11.960  70.012  1.00  0.00     0.000 HD 
BRANCH  16  18
HETATM   18  C   UNL     1     -10.333  10.677  68.406  1.00  0.00    -0.175 A  
HETATM   19  N   UNL     1     -10.217  10.631  67.070  1.00  0.00    -0.211 NA 
HETATM   20  C   UNL     1     -10.266   9.412  66.499  1.00  0.00    -0.238 A  
HETATM   21  C   UNL     1     -10.339   8.243  67.216  1.00  0.00    -0.302 A  
HETATM   22  F   UNL     1     -10.365   7.065  66.579  1.00  0.00    -0.283 F  
HETATM   23  C   UNL     1     -10.383   8.360  68.590  1.00  0.00    -0.197 A  
HETATM   24  N   UNL     1     -10.423   9.578  69.179  1.00  0.00    -0.205 NA 
BRANCH  23  25
HETATM   25  C   UNL     1     -10.340   7.212  69.526  1.00  0.00    -0.224 A  
HETATM   26  C   UNL     1     -10.926   7.308  70.801  1.00  0.00    -0.273 A  
HETATM   27  C   UNL     1     -10.932   6.231  71.685  1.00  0.00    -0.261 A  
HETATM   28  C   UNL     1     -10.347   5.014  71.317  1.00  0.00    -0.185 A  
HETATM   29  F   UNL     1     -11.507   6.384  72.889  1.00  0.00    -0.271 F  
HETATM   30  N   UNL     1     -10.232   3.848  72.015  1.00  0.00    -0.143 NA 
HETATM   31  C   UNL     1      -9.588   3.006  71.237  1.00  0.00    -0.155 A  
HETATM   32  N   UNL     1      -9.279   3.591  70.019  1.00  0.00    -0.139 NA 
HETATM   33  C   UNL     1      -9.251   1.627  71.673  1.00  0.00    -0.151 C  
HETATM   34  C   UNL     1      -9.757   5.974  69.144  1.00  0.00    -0.168 A  
HETATM   35  C   UNL     1      -9.766   4.894  70.055  1.00  0.00    -0.215 A  
BRANCH  32  36
HETATM   36  C   UNL     1      -8.513   3.032  68.902  1.00  0.00    -0.067 C  
HETATM   37  C   UNL     1      -7.193   3.738  68.570  1.00  0.00    -0.054 C  
HETATM   38  C   UNL     1      -9.376   2.913  67.645  1.00  0.00    -0.234 C  
ENDBRANCH  32  36
ENDBRANCH  23  25
ENDBRANCH  16  18
ENDBRANCH  13  16
ENDBRANCH   9  10
ENDBRANCH   6   9
ENDBRANCH   2   3
TORSDOF 7
ENDMDL
MODEL       66
REMARK 921   NORMALIZED FREE ENERGY PREDICTED BY IDOCK:   -5.97 KCAL/MOL
REMARK 922        TOTAL FREE ENERGY PREDICTED BY IDOCK:   -9.29 KCAL/MOL
REMARK 923 INTER-LIGAND FREE ENERGY PREDICTED BY IDOCK:   -8.62 KCAL/MOL
REMARK 924 INTRA-LIGAND FREE ENERGY PREDICTED BY IDOCK:   -0.67 KCAL/MOL
REMARK 927      BINDING AFFINITY PREDICTED BY RF-SCORE:    0.00 PKD
ROOT
HETATM    1  C   UNL     1     -10.071  19.926  66.193  1.00  0.00    -0.611 C  
HETATM    2  C   UNL     1     -10.630  18.537  65.908  1.00  0.00    -0.300 C  
ENDROOT
BRANCH   2   3
HETATM    3  N   UNL     1      -9.734  17.434  66.293  1.00  0.00    -0.380 NA 
HETATM    4  C   UNL     1      -9.674  17.320  67.770  1.00  0.00    -0.270 C  
HETATM    5  C   UNL     1     -10.906  16.636  68.414  1.00  0.00    -0.361 C  
HETATM    6  N   UNL     1     -11.250  15.316  67.837  1.00  0.00    -0.321 NA 
HETATM    7  C   UNL     1     -10.116  16.130  65.715  1.00  0.00    -0.363 C  
HETATM    8  C   UNL     1     -11.355  15.471  66.368  1.00  0.00    -0.005 C  
BRANCH   6   9
HETATM    9  C   UNL     1     -10.250  14.280  68.165  1.00  0.00    -0.231 C  
BRANCH   9  10
HETATM   10  C   UNL     1     -10.849  13.047  68.780  1.00  0.00    -0.277 A  
HETATM   11  C   UNL     1     -10.608  11.786  68.243  1.00  0.00    -0.236 A  
HETATM   12  C   UNL     1     -11.196  10.678  68.836  1.00  0.00    -0.333 A  
HETATM   13  C   UNL     1     -12.021  10.841  69.951  1.00  0.00    -0.342 A  
HETATM   14  N   UNL     1     -12.245  12.053  70.499  1.00  0.00    -0.361 NA 
HETATM   15  C   UNL     1     -11.668  13.120  69.902  1.00  0.00    -0.257 A  
BRANCH  13  16
HETATM   16  N   UNL     1     -12.583   9.739  70.585  1.00  0.00    -0.503 NA 
HETATM   17  H   UNL     1     -13.592   9.760  70.737  1.00  0.00     0.000 HD 
BRANCH  16  18
HETATM   18  C   UNL     1     -11.907   8.615  71.032  1.00  0.00    -0.265 A  
HETATM   19  N   UNL     1     -11.907   8.386  72.354  1.00  0.00    -0.388 NA 
HETATM   20  C   UNL     1     -11.181   7.339  72.788  1.00  0.00    -0.304 A  
HETATM   21  C   UNL     1     -10.530   6.469  71.947  1.00  0.00    -0.206 A  
HETATM   22  F   UNL     1      -9.841   5.437  72.452  1.00  0.00    -0.171 F  
HETATM   23  C   UNL     1     -10.631   6.721  70.595  1.00  0.00    -0.224 A  
HETATM   24  N   UNL     1     -11.283   7.818  70.143  1.00  0.00    -0.210 NA 
BRANCH  23  25
HETATM   25  C   UNL     1     -10.101   5.827  69.539  1.00  0.00    -0.278 A  
HETATM   26  C   UNL     1     -10.758   5.720  68.299  1.00  0.00    -0.285 A  
HETATM   27  C   UNL     1     -10.260   4.914  67.276  1.00  0.00    -0.137 A  
HETATM   28  C   UNL     1      -9.079   4.187  67.464  1.00  0.00    -0.140 A  
HETATM   29  F   UNL     1     -10.931   4.853  66.116  1.00  0.00    -0.337 F  
HETATM   30  N   UNL     1      -8.423   3.343  66.617  1.00  0.00    -0.105 NA 
HETATM   31  C   UNL     1      -7.372   2.899  67.269  1.00  0.00    -0.061 A  
HETATM   32  N   UNL     1      -7.307   3.445  68.541  1.00  0.00    -0.050 NA 
HETATM   33  C   UNL     1      -6.423   1.926  66.668  1.00  0.00    -0.024 C  
HETATM   34  C   UNL     1      -8.895   5.101  69.728  1.00  0.00    -0.130 A  
HETATM   35  C   UNL     1      -8.407   4.285  68.682  1.00  0.00    -0.083 A  
BRANCH  32  36
HETATM   36  C   UNL     1      -6.345   3.167  69.610  1.00  0.00    -0.029 C  
HETATM   37  C   UNL     1      -6.924   2.589  70.906  1.00  0.00    -0.033 C  
HETATM   38  C   UNL     1      -5.491   4.398  69.919  1.00  0.00    -0.012 C  
ENDBRANCH  32  36
ENDBRANCH  23  25
ENDBRANCH  16  18
ENDBRANCH  13  16
ENDBRANCH   9  10
ENDBRANCH   6   9
ENDBRANCH   2   3
TORSDOF 7
ENDMDL
MODEL       67
REMARK 921   NORMALIZED FREE ENERGY PREDICTED BY IDOCK:   -5.96 KCAL/MOL
REMARK 922        TOTAL FREE ENERGY PREDICTED BY IDOCK:   -9.27 KCAL/MOL
REMARK 923 INTER-LIGAND FREE ENERGY PREDICTED BY IDOCK:   -8.03 KCAL/MOL
REMARK 924 INTRA-LIGAND FREE ENERGY PREDICTED BY IDOCK:   -1.24 KCAL/MOL
REMARK 927      BINDING AFFINITY PREDICTED BY RF-SCORE:    0.00 PKD
ROOT
HETATM    1  C   UNL     1     -11.489   6.416  69.855  1.00  0.00    -0.483 C  
HETATM    2  C   UNL     1     -10.184   5.810  69.354  1.00  0.00    -0.234 C  
ENDROOT
BRANCH   2   3
HETATM    3  N   UNL     1      -8.989   6.256  70.089  1.00  0.00    -0.148 NA 
HETATM    4  C   UNL     1      -7.764   5.757  69.420  1.00  0.00    -0.092 C  
HETATM    5  C   UNL     1      -7.359   6.543  68.147  1.00  0.00    -0.090 C  
HETATM    6  N   UNL     1      -7.248   8.008  68.337  1.00  0.00    -0.087 NA 
HETATM    7  C   UNL     1      -8.901   7.722  70.245  1.00  0.00    -0.144 C  
HETATM    8  C   UNL     1      -8.504   8.486  68.958  1.00  0.00    -0.126 C  
BRANCH   6   9
HETATM    9  C   UNL     1      -6.094   8.381  69.179  1.00  0.00    -0.042 C  
BRANCH   9  10
HETATM   10  C   UNL     1      -5.849   9.862  69.234  1.00  0.00    -0.034 A  
HETATM   11  C   UNL     1      -5.990  10.571  70.423  1.00  0.00    -0.112 A  
HETATM   12  C   UNL     1      -5.769  11.940  70.420  1.00  0.00    -0.163 A  
HETATM   13  C   UNL     1      -5.418  12.587  69.233  1.00  0.00    -0.072 A  
HETATM   14  N   UNL     1      -5.253  11.912  68.078  1.00  0.00    -0.047 NA 
HETATM   15  C   UNL     1      -5.480  10.578  68.100  1.00  0.00    -0.036 A  
BRANCH  13  16
HETATM   16  N   UNL     1      -5.149  13.951  69.221  1.00  0.00    -0.082 NA 
HETATM   17  H   UNL     1      -4.194  14.233  69.439  1.00  0.00     0.000 HD 
BRANCH  16  18
HETATM   18  C   UNL     1      -6.052  14.964  68.940  1.00  0.00    -0.085 A  
HETATM   19  N   UNL     1      -5.797  16.173  69.462  1.00  0.00    -0.141 NA 
HETATM   20  C   UNL     1      -6.720  17.131  69.253  1.00  0.00    -0.228 A  
HETATM   21  C   UNL     1      -7.838  16.948  68.474  1.00  0.00    -0.240 A  
HETATM   22  F   UNL     1      -8.703  17.955  68.297  1.00  0.00    -0.243 F  
HETATM   23  C   UNL     1      -8.001  15.701  67.908  1.00  0.00    -0.142 A  
HETATM   24  N   UNL     1      -7.131  14.700  68.178  1.00  0.00    -0.110 NA 
BRANCH  23  25
HETATM   25  C   UNL     1      -9.074  15.357  66.946  1.00  0.00    -0.265 A  
HETATM   26  C   UNL     1      -9.717  16.365  66.203  1.00  0.00    -0.355 A  
HETATM   27  C   UNL     1     -10.703  16.065  65.266  1.00  0.00    -0.399 A  
HETATM   28  C   UNL     1     -11.080  14.736  65.041  1.00  0.00    -0.405 A  
HETATM   29  F   UNL     1     -11.279  17.070  64.588  1.00  0.00    -0.440 F  
HETATM   30  N   UNL     1     -12.012  14.219  64.190  1.00  0.00    -0.415 NA 
HETATM   31  C   UNL     1     -11.998  12.917  64.362  1.00  0.00    -0.395 A  
HETATM   32  N   UNL     1     -11.057  12.550  65.311  1.00  0.00    -0.289 NA 
HETATM   33  C   UNL     1     -12.909  12.011  63.617  1.00  0.00    -0.472 C  
HETATM   34  C   UNL     1      -9.445  14.006  66.710  1.00  0.00    -0.292 A  
HETATM   35  C   UNL     1     -10.451  13.720  65.760  1.00  0.00    -0.299 A  
BRANCH  32  36
HETATM   36  C   UNL     1     -10.767  11.219  65.849  1.00  0.00    -0.232 C  
HETATM   37  C   UNL     1     -11.036  11.022  67.346  1.00  0.00    -0.349 C  
HETATM   38  C   UNL     1      -9.340  10.784  65.511  1.00  0.00    -0.242 C  
ENDBRANCH  32  36
ENDBRANCH  23  25
ENDBRANCH  16  18
ENDBRANCH  13  16
ENDBRANCH   9  10
ENDBRANCH   6   9
ENDBRANCH   2   3
TORSDOF 7
ENDMDL
MODEL       68
REMARK 921   NORMALIZED FREE ENERGY PREDICTED BY IDOCK:   -5.96 KCAL/MOL
REMARK 922        TOTAL FREE ENERGY PREDICTED BY IDOCK:   -9.27 KCAL/MOL
REMARK 923 INTER-LIGAND FREE ENERGY PREDICTED BY IDOCK:   -8.40 KCAL/MOL
REMARK 924 INTRA-LIGAND FREE ENERGY PREDICTED BY IDOCK:   -0.86 KCAL/MOL
REMARK 927      BINDING AFFINITY PREDICTED BY RF-SCORE:    0.00 PKD
ROOT
HETATM    1  C   UNL     1      -8.272   4.719  63.504  1.00  0.00    -0.107 C  
HETATM    2  C   UNL     1      -7.195   5.171  64.484  1.00  0.00    -0.058 C  
ENDROOT
BRANCH   2   3
HETATM    3  N   UNL     1      -7.489   4.856  65.892  1.00  0.00    -0.081 NA 
HETATM    4  C   UNL     1      -6.476   5.484  66.774  1.00  0.00    -0.047 C  
HETATM    5  C   UNL     1      -6.671   7.004  67.001  1.00  0.00    -0.059 C  
HETATM    6  N   UNL     1      -8.026   7.389  67.462  1.00  0.00    -0.112 NA 
HETATM    7  C   UNL     1      -8.840   5.270  66.322  1.00  0.00    -0.130 C  
HETATM    8  C   UNL     1      -9.013   6.793  66.533  1.00  0.00    -0.149 C  
BRANCH   6   9
HETATM    9  C   UNL     1      -8.299   6.943  68.843  1.00  0.00    -0.121 C  
BRANCH   9  10
HETATM   10  C   UNL     1      -9.381   7.734  69.523  1.00  0.00    -0.149 A  
HETATM   11  C   UNL     1     -10.704   7.307  69.501  1.00  0.00    -0.244 A  
HETATM   12  C   UNL     1     -11.671   8.079  70.128  1.00  0.00     0.176 A  
HETATM   13  C   UNL     1     -11.308   9.269  70.763  1.00  0.00    -0.287 A  
HETATM   14  N   UNL     1     -10.026   9.684  70.816  1.00  0.00    -0.249 NA 
HETATM   15  C   UNL     1      -9.100   8.920  70.192  1.00  0.00    -0.176 A  
BRANCH  13  16
HETATM   16  N   UNL     1     -12.255  10.033  71.436  1.00  0.00    -0.390 NA 
HETATM   17  H   UNL     1     -12.846   9.544  72.109  1.00  0.00     0.000 HD 
BRANCH  16  18
HETATM   18  C   UNL     1     -12.476  11.392  71.281  1.00  0.00    -0.318 A  
HETATM   19  N   UNL     1     -13.189  12.009  72.234  1.00  0.00    -0.340 NA 
HETATM   20  C   UNL     1     -13.469  13.311  72.036  1.00  0.00    -0.507 A  
HETATM   21  C   UNL     1     -12.990  14.034  70.970  1.00  0.00    -0.308 A  
HETATM   22  F   UNL     1     -13.295  15.332  70.848  1.00  0.00    -0.429 F  
HETATM   23  C   UNL     1     -12.202  13.354  70.064  1.00  0.00    -0.298 A  
HETATM   24  N   UNL     1     -11.983  12.025  70.199  1.00  0.00    -0.345 NA 
BRANCH  23  25
HETATM   25  C   UNL     1     -11.502  13.993  68.926  1.00  0.00    -0.331 A  
HETATM   26  C   UNL     1     -11.718  13.542  67.610  1.00  0.00    -0.398 A  
HETATM   27  C   UNL     1     -11.100  14.150  66.519  1.00  0.00    -0.318 A  
HETATM   28  C   UNL     1     -10.241  15.237  66.712  1.00  0.00    -0.272 A  
HETATM   29  F   UNL     1     -11.346  13.674  65.288  1.00  0.00    -0.292 F  
HETATM   30  N   UNL     1      -9.534  15.969  65.804  1.00  0.00    -0.400 NA 
HETATM   31  C   UNL     1      -8.866  16.872  66.488  1.00  0.00    -0.271 A  
HETATM   32  N   UNL     1      -9.125  16.762  67.844  1.00  0.00    -0.221 NA 
HETATM   33  C   UNL     1      -7.954  17.844  65.832  1.00  0.00    -0.058 C  
HETATM   34  C   UNL     1     -10.641  15.105  69.123  1.00  0.00    -0.256 A  
HETATM   35  C   UNL     1     -10.018  15.706  68.006  1.00  0.00    -0.222 A  
BRANCH  32  36
HETATM   36  C   UNL     1      -8.541  17.518  68.954  1.00  0.00    -0.133 C  
HETATM   37  C   UNL     1      -8.703  19.041  68.893  1.00  0.00    -0.288 C  
HETATM   38  C   UNL     1      -7.069  17.154  69.157  1.00  0.00    -0.213 C  
ENDBRANCH  32  36
ENDBRANCH  23  25
ENDBRANCH  16  18
ENDBRANCH  13  16
ENDBRANCH   9  10
ENDBRANCH   6   9
ENDBRANCH   2   3
TORSDOF 7
ENDMDL
MODEL       69
REMARK 921   NORMALIZED FREE ENERGY PREDICTED BY IDOCK:   -5.95 KCAL/MOL
REMARK 922        TOTAL FREE ENERGY PREDICTED BY IDOCK:   -9.25 KCAL/MOL
REMARK 923 INTER-LIGAND FREE ENERGY PREDICTED BY IDOCK:   -8.30 KCAL/MOL
REMARK 924 INTRA-LIGAND FREE ENERGY PREDICTED BY IDOCK:   -0.96 KCAL/MOL
REMARK 927      BINDING AFFINITY PREDICTED BY RF-SCORE:    0.00 PKD
ROOT
HETATM    1  C   UNL     1      -5.264  17.528  69.342  1.00  0.00    -0.176 C  
HETATM    2  C   UNL     1      -6.073  18.660  68.720  1.00  0.00    -0.217 C  
ENDROOT
BRANCH   2   3
HETATM    3  N   UNL     1      -6.968  18.236  67.631  1.00  0.00    -0.202 NA 
HETATM    4  C   UNL     1      -7.450  16.856  67.878  1.00  0.00    -0.169 C  
HETATM    5  C   UNL     1      -8.575  16.746  68.939  1.00  0.00    -0.218 C  
HETATM    6  N   UNL     1      -9.737  17.633  68.698  1.00  0.00    -0.321 NA 
HETATM    7  C   UNL     1      -8.125  19.132  67.431  1.00  0.00    -0.271 C  
HETATM    8  C   UNL     1      -9.230  19.011  68.507  1.00  0.00    -0.367 C  
BRANCH   6   9
HETATM    9  C   UNL     1     -10.528  17.219  67.522  1.00  0.00    -0.356 C  
BRANCH   9  10
HETATM   10  C   UNL     1     -10.932  15.772  67.554  1.00  0.00    -0.293 A  
HETATM   11  C   UNL     1     -10.475  14.877  66.593  1.00  0.00    -0.292 A  
HETATM   12  C   UNL     1     -10.889  13.554  66.654  1.00  0.00    -0.283 A  
HETATM   13  C   UNL     1     -11.757  13.142  67.667  1.00  0.00    -0.369 A  
HETATM   14  N   UNL     1     -12.189  13.991  68.622  1.00  0.00    -0.284 NA 
HETATM   15  C   UNL     1     -11.779  15.277  68.540  1.00  0.00    -0.332 A  
BRANCH  13  16
HETATM   16  N   UNL     1     -12.147  11.811  67.772  1.00  0.00    -0.560 NA 
HETATM   17  H   UNL     1     -13.032  11.556  67.334  1.00  0.00     0.000 HD 
BRANCH  16  18
HETATM   18  C   UNL     1     -11.450  10.799  68.411  1.00  0.00    -0.288 A  
HETATM   19  N   UNL     1     -11.355  10.870  69.747  1.00  0.00    -0.278 NA 
HETATM   20  C   UNL     1     -10.608   9.928  70.354  1.00  0.00    -0.302 A  
HETATM   21  C   UNL     1     -10.029   8.876  69.686  1.00  0.00    -0.191 A  
HETATM   22  F   UNL     1      -9.314   7.965  70.360  1.00  0.00    -0.155 F  
HETATM   23  C   UNL     1     -10.227   8.823  68.322  1.00  0.00    -0.201 A  
HETATM   24  N   UNL     1     -10.901   9.808  67.682  1.00  0.00    -0.279 NA 
BRANCH  23  25
HETATM   25  C   UNL     1      -9.785   7.703  67.459  1.00  0.00    -0.197 A  
HETATM   26  C   UNL     1     -10.206   6.387  67.726  1.00  0.00    -0.196 A  
HETATM   27  C   UNL     1      -9.834   5.321  66.908  1.00  0.00    -0.171 A  
HETATM   28  C   UNL     1      -9.023   5.542  65.789  1.00  0.00    -0.154 A  
HETATM   29  F   UNL     1     -10.268   4.089  67.215  1.00  0.00    -0.182 F  
HETATM   30  N   UNL     1      -8.539   4.660  64.868  1.00  0.00    -0.134 NA 
HETATM   31  C   UNL     1      -7.816   5.360  64.022  1.00  0.00    -0.101 A  
HETATM   32  N   UNL     1      -7.820   6.704  64.357  1.00  0.00    -0.113 NA 
HETATM   33  C   UNL     1      -7.100   4.728  62.884  1.00  0.00    -0.039 C  
HETATM   34  C   UNL     1      -8.973   7.932  66.316  1.00  0.00    -0.207 A  
HETATM   35  C   UNL     1      -8.601   6.839  65.501  1.00  0.00    -0.086 A  
BRANCH  32  36
HETATM   36  C   UNL     1      -7.093   7.808  63.726  1.00  0.00    -0.073 C  
HETATM   37  C   UNL     1      -6.179   8.627  64.645  1.00  0.00    -0.066 C  
HETATM   38  C   UNL     1      -8.044   8.736  62.969  1.00  0.00    -0.175 C  
ENDBRANCH  32  36
ENDBRANCH  23  25
ENDBRANCH  16  18
ENDBRANCH  13  16
ENDBRANCH   9  10
ENDBRANCH   6   9
ENDBRANCH   2   3
TORSDOF 7
ENDMDL
MODEL       70
REMARK 921   NORMALIZED FREE ENERGY PREDICTED BY IDOCK:   -5.94 KCAL/MOL
REMARK 922        TOTAL FREE ENERGY PREDICTED BY IDOCK:   -9.24 KCAL/MOL
REMARK 923 INTER-LIGAND FREE ENERGY PREDICTED BY IDOCK:   -8.15 KCAL/MOL
REMARK 924 INTRA-LIGAND FREE ENERGY PREDICTED BY IDOCK:   -1.09 KCAL/MOL
REMARK 927      BINDING AFFINITY PREDICTED BY RF-SCORE:    0.00 PKD
ROOT
HETATM    1  C   UNL     1     -12.650  15.453  70.581  1.00  0.00    -0.491 C  
HETATM    2  C   UNL     1     -12.357  14.197  69.768  1.00  0.00    -0.299 C  
ENDROOT
BRANCH   2   3
HETATM    3  N   UNL     1     -11.174  14.302  68.898  1.00  0.00    -0.251 NA 
HETATM    4  C   UNL     1     -10.579  12.961  68.685  1.00  0.00    -0.234 C  
HETATM    5  C   UNL     1     -11.337  12.074  67.665  1.00  0.00    -0.307 C  
HETATM    6  N   UNL     1     -11.578  12.715  66.352  1.00  0.00    -0.363 NA 
HETATM    7  C   UNL     1     -11.454  14.928  67.590  1.00  0.00    -0.352 C  
HETATM    8  C   UNL     1     -12.219  14.027  66.592  1.00  0.00    -0.428 C  
BRANCH   6   9
HETATM    9  C   UNL     1     -10.334  12.895  65.576  1.00  0.00    -0.291 C  
BRANCH   9  10
HETATM   10  C   UNL     1      -9.579  11.615  65.353  1.00  0.00    -0.228 A  
HETATM   11  C   UNL     1      -8.431  11.321  66.081  1.00  0.00    -0.135 A  
HETATM   12  C   UNL     1      -7.758  10.135  65.828  1.00  0.00    -0.136 A  
HETATM   13  C   UNL     1      -8.233   9.260  64.849  1.00  0.00    -0.145 A  
HETATM   14  N   UNL     1      -9.358   9.517  64.151  1.00  0.00    -0.098 NA 
HETATM   15  C   UNL     1      -9.996  10.683  64.409  1.00  0.00    -0.350 A  
BRANCH  13  16
HETATM   16  N   UNL     1      -7.598   8.046  64.612  1.00  0.00    -0.103 NA 
HETATM   17  H   UNL     1      -6.651   8.088  64.235  1.00  0.00     0.000 HD 
BRANCH  16  18
HETATM   18  C   UNL     1      -8.126   6.785  64.839  1.00  0.00    -0.112 A  
HETATM   19  N   UNL     1      -8.225   5.964  63.782  1.00  0.00    -0.093 NA 
HETATM   20  C   UNL     1      -8.813   4.772  63.993  1.00  0.00    -0.117 A  
HETATM   21  C   UNL     1      -9.225   4.340  65.231  1.00  0.00    -0.153 A  
HETATM   22  F   UNL     1      -9.786   3.131  65.367  1.00  0.00    -0.132 F  
HETATM   23  C   UNL     1      -9.027   5.205  66.287  1.00  0.00    -0.130 A  
HETATM   24  N   UNL     1      -8.518   6.442  66.081  1.00  0.00    -0.134 NA 
BRANCH  23  25
HETATM   25  C   UNL     1      -9.294   4.865  67.704  1.00  0.00    -0.149 A  
HETATM   26  C   UNL     1      -9.077   3.557  68.177  1.00  0.00    -0.200 A  
HETATM   27  C   UNL     1      -9.285   3.220  69.513  1.00  0.00    -0.155 A  
HETATM   28  C   UNL     1      -9.719   4.189  70.425  1.00  0.00    -0.201 A  
HETATM   29  F   UNL     1      -9.061   1.956  69.904  1.00  0.00    -0.114 F  
HETATM   30  N   UNL     1      -9.990   4.083  71.757  1.00  0.00    -0.183 NA 
HETATM   31  C   UNL     1     -10.380   5.273  72.158  1.00  0.00    -0.212 A  
HETATM   32  N   UNL     1     -10.361   6.181  71.111  1.00  0.00    -0.202 NA 
HETATM   33  C   UNL     1     -10.789   5.540  73.560  1.00  0.00    -0.321 C  
HETATM   34  C   UNL     1      -9.721   5.854  68.630  1.00  0.00    -0.155 A  
HETATM   35  C   UNL     1      -9.933   5.493  69.980  1.00  0.00    -0.218 A  
BRANCH  32  36
HETATM   36  C   UNL     1     -10.783   7.584  71.107  1.00  0.00    -0.227 C  
HETATM   37  C   UNL     1     -10.003   8.526  72.032  1.00  0.00    -0.383 C  
HETATM   38  C   UNL     1     -12.284   7.711  71.372  1.00  0.00    -0.351 C  
ENDBRANCH  32  36
ENDBRANCH  23  25
ENDBRANCH  16  18
ENDBRANCH  13  16
ENDBRANCH   9  10
ENDBRANCH   6   9
ENDBRANCH   2   3
TORSDOF 7
ENDMDL
MODEL       71
REMARK 921   NORMALIZED FREE ENERGY PREDICTED BY IDOCK:   -5.92 KCAL/MOL
REMARK 922        TOTAL FREE ENERGY PREDICTED BY IDOCK:   -9.22 KCAL/MOL
REMARK 923 INTER-LIGAND FREE ENERGY PREDICTED BY IDOCK:   -8.20 KCAL/MOL
REMARK 924 INTRA-LIGAND FREE ENERGY PREDICTED BY IDOCK:   -1.02 KCAL/MOL
REMARK 927      BINDING AFFINITY PREDICTED BY RF-SCORE:    0.00 PKD
ROOT
HETATM    1  C   UNL     1     -10.726  19.220  67.464  1.00  0.00    -0.571 C  
HETATM    2  C   UNL     1     -10.151  17.823  67.670  1.00  0.00    -0.342 C  
ENDROOT
BRANCH   2   3
HETATM    3  N   UNL     1     -10.989  16.739  67.131  1.00  0.00    -0.092 NA 
HETATM    4  C   UNL     1     -10.353  16.156  65.925  1.00  0.00    -0.367 C  
HETATM    5  C   UNL     1      -9.175  15.193  66.220  1.00  0.00    -0.301 C  
HETATM    6  N   UNL     1      -9.493  14.108  67.178  1.00  0.00    -0.228 NA 
HETATM    7  C   UNL     1     -11.271  15.666  68.106  1.00  0.00    -0.345 C  
HETATM    8  C   UNL     1     -10.077  14.723  68.391  1.00  0.00    -0.225 C  
BRANCH   6   9
HETATM    9  C   UNL     1     -10.429  13.114  66.614  1.00  0.00    -0.277 C  
BRANCH   9  10
HETATM   10  C   UNL     1      -9.751  11.864  66.128  1.00  0.00    -0.251 A  
HETATM   11  C   UNL     1     -10.262  11.140  65.056  1.00  0.00    -0.354 A  
HETATM   12  C   UNL     1      -9.611   9.982  64.655  1.00  0.00    -0.363 A  
HETATM   13  C   UNL     1      -8.465   9.558  65.330  1.00  0.00    -0.148 A  
HETATM   14  N   UNL     1      -7.942  10.261  66.355  1.00  0.00    -0.117 NA 
HETATM   15  C   UNL     1      -8.596  11.383  66.736  1.00  0.00    -0.166 A  
BRANCH  13  16
HETATM   16  N   UNL     1      -7.773   8.426  64.914  1.00  0.00    -0.100 NA 
HETATM   17  H   UNL     1      -6.876   8.578  64.454  1.00  0.00     0.000 HD 
BRANCH  16  18
HETATM   18  C   UNL     1      -8.184   7.111  65.063  1.00  0.00    -0.093 A  
HETATM   19  N   UNL     1      -8.161   6.334  63.970  1.00  0.00    -0.096 NA 
HETATM   20  C   UNL     1      -8.638   5.083  64.104  1.00  0.00    -0.125 A  
HETATM   21  C   UNL     1      -9.055   4.556  65.303  1.00  0.00    -0.149 A  
HETATM   22  F   UNL     1      -9.501   3.295  65.363  1.00  0.00    -0.154 F  
HETATM   23  C   UNL     1      -8.984   5.387  66.403  1.00  0.00    -0.131 A  
HETATM   24  N   UNL     1      -8.590   6.675  66.271  1.00  0.00    -0.133 NA 
BRANCH  23  25
HETATM   25  C   UNL     1      -9.273   4.957  67.791  1.00  0.00    -0.138 A  
HETATM   26  C   UNL     1      -8.890   3.678  68.237  1.00  0.00    -0.151 A  
HETATM   27  C   UNL     1      -9.117   3.264  69.548  1.00  0.00    -0.133 A  
HETATM   28  C   UNL     1      -9.738   4.123  70.460  1.00  0.00    -0.200 A  
HETATM   29  F   UNL     1      -8.728   2.032  69.913  1.00  0.00    -0.071 F  
HETATM   30  N   UNL     1     -10.061   3.928  71.771  1.00  0.00    -0.156 NA 
HETATM   31  C   UNL     1     -10.643   5.031  72.183  1.00  0.00    -0.193 A  
HETATM   32  N   UNL     1     -10.705   5.972  71.168  1.00  0.00    -0.252 NA 
HETATM   33  C   UNL     1     -11.162   5.182  73.567  1.00  0.00    -0.300 C  
HETATM   34  C   UNL     1      -9.891   5.837  68.719  1.00  0.00    -0.181 A  
HETATM   35  C   UNL     1     -10.119   5.398  70.043  1.00  0.00    -0.254 A  
BRANCH  32  36
HETATM   36  C   UNL     1     -11.329   7.297  71.181  1.00  0.00    -0.267 C  
HETATM   37  C   UNL     1     -10.919   8.225  72.331  1.00  0.00    -0.438 C  
HETATM   38  C   UNL     1     -12.853   7.191  71.108  1.00  0.00    -0.340 C  
ENDBRANCH  32  36
ENDBRANCH  23  25
ENDBRANCH  16  18
ENDBRANCH  13  16
ENDBRANCH   9  10
ENDBRANCH   6   9
ENDBRANCH   2   3
TORSDOF 7
ENDMDL
MODEL       72
REMARK 921   NORMALIZED FREE ENERGY PREDICTED BY IDOCK:   -5.92 KCAL/MOL
REMARK 922        TOTAL FREE ENERGY PREDICTED BY IDOCK:   -9.22 KCAL/MOL
REMARK 923 INTER-LIGAND FREE ENERGY PREDICTED BY IDOCK:   -8.87 KCAL/MOL
REMARK 924 INTRA-LIGAND FREE ENERGY PREDICTED BY IDOCK:   -0.35 KCAL/MOL
REMARK 927      BINDING AFFINITY PREDICTED BY RF-SCORE:    0.00 PKD
ROOT
HETATM    1  C   UNL     1      -5.242   2.073  67.851  1.00  0.00    -0.012 C  
HETATM    2  C   UNL     1      -5.790   1.481  69.145  1.00  0.00    -0.023 C  
ENDROOT
BRANCH   2   3
HETATM    3  N   UNL     1      -7.197   1.819  69.417  1.00  0.00    -0.036 NA 
HETATM    4  C   UNL     1      -7.422   1.920  70.878  1.00  0.00    -0.033 C  
HETATM    5  C   UNL     1      -6.910   3.233  71.521  1.00  0.00    -0.031 C  
HETATM    6  N   UNL     1      -7.397   4.470  70.866  1.00  0.00    -0.050 NA 
HETATM    7  C   UNL     1      -7.644   3.066  68.764  1.00  0.00    -0.048 C  
HETATM    8  C   UNL     1      -7.112   4.364  69.417  1.00  0.00    -0.050 C  
BRANCH   6   9
HETATM    9  C   UNL     1      -8.841   4.690  71.082  1.00  0.00    -0.118 C  
BRANCH   9  10
HETATM   10  C   UNL     1      -9.397   5.833  70.281  1.00  0.00    -0.185 A  
HETATM   11  C   UNL     1     -10.490   5.656  69.439  1.00  0.00    -0.367 A  
HETATM   12  C   UNL     1     -10.958   6.737  68.706  1.00  0.00    -0.267 A  
HETATM   13  C   UNL     1     -10.326   7.978  68.816  1.00  0.00    -0.206 A  
HETATM   14  N   UNL     1      -9.282   8.173  69.646  1.00  0.00    -0.155 NA 
HETATM   15  C   UNL     1      -8.837   7.104  70.346  1.00  0.00    -0.151 A  
BRANCH  13  16
HETATM   16  N   UNL     1     -10.808   9.083  68.124  1.00  0.00    -0.463 NA 
HETATM   17  H   UNL     1     -10.909   8.985  67.113  1.00  0.00     0.000 HD 
BRANCH  16  18
HETATM   18  C   UNL     1     -11.164  10.305  68.672  1.00  0.00    -0.208 A  
HETATM   19  N   UNL     1     -11.531  10.313  69.962  1.00  0.00    -0.278 NA 
HETATM   20  C   UNL     1     -11.954  11.488  70.465  1.00  0.00    -0.344 A  
HETATM   21  C   UNL     1     -11.941  12.664  69.754  1.00  0.00    -0.295 A  
HETATM   22  F   UNL     1     -12.359  13.800  70.328  1.00  0.00    -0.353 F  
HETATM   23  C   UNL     1     -11.483  12.598  68.454  1.00  0.00    -0.310 A  
HETATM   24  N   UNL     1     -11.137  11.411  67.904  1.00  0.00    -0.240 NA 
BRANCH  23  25
HETATM   25  C   UNL     1     -11.283  13.777  67.581  1.00  0.00    -0.316 A  
HETATM   26  C   UNL     1     -11.662  13.735  66.226  1.00  0.00    -0.400 A  
HETATM   27  C   UNL     1     -11.518  14.843  65.393  1.00  0.00    -0.320 A  
HETATM   28  C   UNL     1     -10.987  16.036  65.893  1.00  0.00    -0.115 A  
HETATM   29  F   UNL     1     -11.899  14.740  64.110  1.00  0.00    -0.398 F  
HETATM   30  N   UNL     1     -10.753  17.225  65.266  1.00  0.00    -0.617 NA 
HETATM   31  C   UNL     1     -10.232  18.028  66.166  1.00  0.00    -0.363 A  
HETATM   32  N   UNL     1     -10.124  17.397  67.395  1.00  0.00    -0.310 NA 
HETATM   33  C   UNL     1      -9.818  19.417  65.840  1.00  0.00    -0.266 C  
HETATM   34  C   UNL     1     -10.756  14.992  68.095  1.00  0.00    -0.256 A  
HETATM   35  C   UNL     1     -10.612  16.104  67.235  1.00  0.00    -0.305 A  
BRANCH  32  36
HETATM   36  C   UNL     1      -9.538  17.904  68.638  1.00  0.00    -0.328 C  
HETATM   37  C   UNL     1     -10.020  19.286  69.097  1.00  0.00    -0.373 C  
HETATM   38  C   UNL     1      -8.010  17.873  68.583  1.00  0.00    -0.285 C  
ENDBRANCH  32  36
ENDBRANCH  23  25
ENDBRANCH  16  18
ENDBRANCH  13  16
ENDBRANCH   9  10
ENDBRANCH   6   9
ENDBRANCH   2   3
TORSDOF 7
ENDMDL
MODEL       73
REMARK 921   NORMALIZED FREE ENERGY PREDICTED BY IDOCK:   -5.90 KCAL/MOL
REMARK 922        TOTAL FREE ENERGY PREDICTED BY IDOCK:   -9.19 KCAL/MOL
REMARK 923 INTER-LIGAND FREE ENERGY PREDICTED BY IDOCK:   -8.55 KCAL/MOL
REMARK 924 INTRA-LIGAND FREE ENERGY PREDICTED BY IDOCK:   -0.64 KCAL/MOL
REMARK 927      BINDING AFFINITY PREDICTED BY RF-SCORE:    0.00 PKD
ROOT
HETATM    1  C   UNL     1      -5.722  18.265  70.066  1.00  0.00    -0.236 C  
HETATM    2  C   UNL     1      -6.500  19.048  69.015  1.00  0.00    -0.277 C  
ENDROOT
BRANCH   2   3
HETATM    3  N   UNL     1      -6.813  18.281  67.798  1.00  0.00    -0.201 NA 
HETATM    4  C   UNL     1      -7.344  16.946  68.161  1.00  0.00    -0.179 C  
HETATM    5  C   UNL     1      -8.822  16.944  68.627  1.00  0.00    -0.262 C  
HETATM    6  N   UNL     1      -9.763  17.604  67.691  1.00  0.00    -0.271 NA 
HETATM    7  C   UNL     1      -7.767  18.960  66.898  1.00  0.00    -0.239 C  
HETATM    8  C   UNL     1      -9.235  18.954  67.388  1.00  0.00    -0.286 C  
BRANCH   6   9
HETATM    9  C   UNL     1      -9.944  16.839  66.441  1.00  0.00    -0.304 C  
BRANCH   9  10
HETATM   10  C   UNL     1     -10.385  15.421  66.668  1.00  0.00    -0.281 A  
HETATM   11  C   UNL     1      -9.560  14.351  66.339  1.00  0.00    -0.320 A  
HETATM   12  C   UNL     1     -10.018  13.058  66.551  1.00  0.00    -0.262 A  
HETATM   13  C   UNL     1     -11.293  12.849  67.080  1.00  0.00    -0.306 A  
HETATM   14  N   UNL     1     -12.096  13.875  67.428  1.00  0.00    -0.385 NA 
HETATM   15  C   UNL     1     -11.633  15.127  67.207  1.00  0.00    -0.223 A  
BRANCH  13  16
HETATM   16  N   UNL     1     -11.751  11.563  67.342  1.00  0.00    -0.609 NA 
HETATM   17  H   UNL     1     -12.207  11.072  66.572  1.00  0.00     0.000 HD 
BRANCH  16  18
HETATM   18  C   UNL     1     -11.649  10.882  68.544  1.00  0.00    -0.290 A  
HETATM   19  N   UNL     1     -12.211  11.453  69.620  1.00  0.00    -0.280 NA 
HETATM   20  C   UNL     1     -12.038  10.827  70.800  1.00  0.00    -0.372 A  
HETATM   21  C   UNL     1     -11.402   9.616  70.927  1.00  0.00    -0.360 A  
HETATM   22  F   UNL     1     -11.283   9.044  72.132  1.00  0.00    -0.406 F  
HETATM   23  C   UNL     1     -10.911   9.049  69.769  1.00  0.00    -0.205 A  
HETATM   24  N   UNL     1     -10.998   9.704  68.588  1.00  0.00    -0.160 NA 
BRANCH  23  25
HETATM   25  C   UNL     1     -10.308   7.698  69.694  1.00  0.00    -0.213 A  
HETATM   26  C   UNL     1     -10.609   6.726  70.667  1.00  0.00    -0.257 A  
HETATM   27  C   UNL     1     -10.084   5.437  70.598  1.00  0.00    -0.231 A  
HETATM   28  C   UNL     1      -9.235   5.077  69.546  1.00  0.00    -0.119 A  
HETATM   29  F   UNL     1     -10.409   4.555  71.557  1.00  0.00    -0.261 F  
HETATM   30  N   UNL     1      -8.611   3.893  69.288  1.00  0.00    -0.075 NA 
HETATM   31  C   UNL     1      -7.913   4.068  68.187  1.00  0.00    -0.077 A  
HETATM   32  N   UNL     1      -8.072   5.354  67.696  1.00  0.00    -0.100 NA 
HETATM   33  C   UNL     1      -7.071   2.991  67.606  1.00  0.00    -0.050 C  
HETATM   34  C   UNL     1      -9.457   7.331  68.617  1.00  0.00    -0.137 A  
HETATM   35  C   UNL     1      -8.929   6.021  68.567  1.00  0.00    -0.114 A  
BRANCH  32  36
HETATM   36  C   UNL     1      -7.424   5.982  66.542  1.00  0.00    -0.090 C  
HETATM   37  C   UNL     1      -7.834   5.447  65.165  1.00  0.00    -0.095 C  
HETATM   38  C   UNL     1      -5.901   5.959  66.683  1.00  0.00    -0.018 C  
ENDBRANCH  32  36
ENDBRANCH  23  25
ENDBRANCH  16  18
ENDBRANCH  13  16
ENDBRANCH   9  10
ENDBRANCH   6   9
ENDBRANCH   2   3
TORSDOF 7
ENDMDL
MODEL       74
REMARK 921   NORMALIZED FREE ENERGY PREDICTED BY IDOCK:   -5.90 KCAL/MOL
REMARK 922        TOTAL FREE ENERGY PREDICTED BY IDOCK:   -9.18 KCAL/MOL
REMARK 923 INTER-LIGAND FREE ENERGY PREDICTED BY IDOCK:   -7.95 KCAL/MOL
REMARK 924 INTRA-LIGAND FREE ENERGY PREDICTED BY IDOCK:   -1.23 KCAL/MOL
REMARK 927      BINDING AFFINITY PREDICTED BY RF-SCORE:    0.00 PKD
ROOT
HETATM    1  C   UNL     1     -12.797  15.602  71.084  1.00  0.00    -0.540 C  
HETATM    2  C   UNL     1     -12.571  14.427  70.139  1.00  0.00    -0.286 C  
ENDROOT
BRANCH   2   3
HETATM    3  N   UNL     1     -11.266  14.444  69.456  1.00  0.00    -0.257 NA 
HETATM    4  C   UNL     1     -10.805  13.057  69.208  1.00  0.00     0.003 C  
HETATM    5  C   UNL     1     -11.497  12.350  68.016  1.00  0.00    -0.322 C  
HETATM    6  N   UNL     1     -11.462  13.110  66.745  1.00  0.00    -0.327 NA 
HETATM    7  C   UNL     1     -11.272  15.194  68.184  1.00  0.00    -0.320 C  
HETATM    8  C   UNL     1     -11.977  14.472  67.011  1.00  0.00    -0.345 C  
BRANCH   6   9
HETATM    9  C   UNL     1     -10.104  13.187  66.172  1.00  0.00    -0.291 C  
BRANCH   9  10
HETATM   10  C   UNL     1      -9.504  11.841  65.875  1.00  0.00    -0.239 A  
HETATM   11  C   UNL     1      -8.362  11.402  66.536  1.00  0.00    -0.164 A  
HETATM   12  C   UNL     1      -7.835  10.159  66.217  1.00  0.00    -0.113 A  
HETATM   13  C   UNL     1      -8.449   9.373  65.239  1.00  0.00    -0.149 A  
HETATM   14  N   UNL     1      -9.571   9.773  64.607  1.00  0.00    -0.249 NA 
HETATM   15  C   UNL     1     -10.064  10.990  64.928  1.00  0.00    -0.300 A  
BRANCH  13  16
HETATM   16  N   UNL     1      -7.962   8.106  64.937  1.00  0.00    -0.138 NA 
HETATM   17  H   UNL     1      -7.192   8.056  64.269  1.00  0.00     0.000 HD 
BRANCH  16  18
HETATM   18  C   UNL     1      -8.420   6.905  65.455  1.00  0.00    -0.084 A  
HETATM   19  N   UNL     1      -8.272   5.813  64.690  1.00  0.00    -0.132 NA 
HETATM   20  C   UNL     1      -8.792   4.665  65.164  1.00  0.00    -0.147 A  
HETATM   21  C   UNL     1      -9.374   4.554  66.404  1.00  0.00    -0.151 A  
HETATM   22  F   UNL     1      -9.854   3.373  66.817  1.00  0.00    -0.194 F  
HETATM   23  C   UNL     1      -9.428   5.701  67.169  1.00  0.00    -0.117 A  
HETATM   24  N   UNL     1      -8.990   6.882  66.675  1.00  0.00    -0.139 NA 
BRANCH  23  25
HETATM   25  C   UNL     1      -9.904   5.745  68.571  1.00  0.00    -0.177 A  
HETATM   26  C   UNL     1     -11.090   6.427  68.901  1.00  0.00    -0.420 A  
HETATM   27  C   UNL     1     -11.579   6.453  70.206  1.00  0.00    -0.383 A  
HETATM   28  C   UNL     1     -10.892   5.790  71.228  1.00  0.00    -0.247 A  
HETATM   29  F   UNL     1     -12.716   7.121  70.458  1.00  0.00    -0.268 F  
HETATM   30  N   UNL     1     -11.179   5.690  72.558  1.00  0.00    -0.283 NA 
HETATM   31  C   UNL     1     -10.218   4.973  73.097  1.00  0.00    -0.179 A  
HETATM   32  N   UNL     1      -9.294   4.580  72.142  1.00  0.00    -0.130 NA 
HETATM   33  C   UNL     1     -10.177   4.673  74.551  1.00  0.00    -0.293 C  
HETATM   34  C   UNL     1      -9.212   5.060  69.605  1.00  0.00    -0.168 A  
HETATM   35  C   UNL     1      -9.719   5.101  70.923  1.00  0.00    -0.188 A  
BRANCH  32  36
HETATM   36  C   UNL     1      -8.046   3.836  72.326  1.00  0.00    -0.077 C  
HETATM   37  C   UNL     1      -8.182   2.418  72.893  1.00  0.00    -0.059 C  
HETATM   38  C   UNL     1      -7.040   4.638  73.153  1.00  0.00    -0.078 C  
ENDBRANCH  32  36
ENDBRANCH  23  25
ENDBRANCH  16  18
ENDBRANCH  13  16
ENDBRANCH   9  10
ENDBRANCH   6   9
ENDBRANCH   2   3
TORSDOF 7
ENDMDL
MODEL       75
REMARK 921   NORMALIZED FREE ENERGY PREDICTED BY IDOCK:   -5.85 KCAL/MOL
REMARK 922        TOTAL FREE ENERGY PREDICTED BY IDOCK:   -9.11 KCAL/MOL
REMARK 923 INTER-LIGAND FREE ENERGY PREDICTED BY IDOCK:   -8.83 KCAL/MOL
REMARK 924 INTRA-LIGAND FREE ENERGY PREDICTED BY IDOCK:   -0.28 KCAL/MOL
REMARK 927      BINDING AFFINITY PREDICTED BY RF-SCORE:    0.00 PKD
ROOT
HETATM    1  C   UNL     1      -9.581  20.658  67.789  1.00  0.00    -0.358 C  
HETATM    2  C   UNL     1      -9.749  19.246  68.339  1.00  0.00    -0.403 C  
ENDROOT
BRANCH   2   3
HETATM    3  N   UNL     1     -10.667  18.399  67.560  1.00  0.00    -0.414 NA 
HETATM    4  C   UNL     1     -10.168  18.250  66.172  1.00  0.00    -0.381 C  
HETATM    5  C   UNL     1      -8.998  17.248  66.012  1.00  0.00    -0.076 C  
HETATM    6  N   UNL     1      -9.254  15.906  66.585  1.00  0.00    -0.230 NA 
HETATM    7  C   UNL     1     -10.886  17.063  68.150  1.00  0.00    -0.338 C  
HETATM    8  C   UNL     1      -9.699  16.082  67.986  1.00  0.00    -0.217 C  
BRANCH   6   9
HETATM    9  C   UNL     1     -10.270  15.152  65.823  1.00  0.00    -0.341 C  
BRANCH   9  10
HETATM   10  C   UNL     1     -10.434  13.733  66.288  1.00  0.00    -0.291 A  
HETATM   11  C   UNL     1      -9.351  13.005  66.769  1.00  0.00    -0.244 A  
HETATM   12  C   UNL     1      -9.548  11.691  67.172  1.00  0.00    -0.185 A  
HETATM   13  C   UNL     1     -10.819  11.119  67.083  1.00  0.00    -0.273 A  
HETATM   14  N   UNL     1     -11.884  11.819  66.643  1.00  0.00    -0.541 NA 
HETATM   15  C   UNL     1     -11.669  13.095  66.249  1.00  0.00    -0.375 A  
BRANCH  13  16
HETATM   16  N   UNL     1     -11.045   9.820  67.524  1.00  0.00    -0.414 NA 
HETATM   17  H   UNL     1     -11.848   9.676  68.137  1.00  0.00     0.000 HD 
BRANCH  16  18
HETATM   18  C   UNL     1     -10.287   8.703  67.212  1.00  0.00    -0.296 A  
HETATM   19  N   UNL     1      -9.535   8.763  66.104  1.00  0.00    -0.236 NA 
HETATM   20  C   UNL     1      -8.865   7.646  65.763  1.00  0.00    -0.100 A  
HETATM   21  C   UNL     1      -8.852   6.508  66.533  1.00  0.00    -0.138 A  
HETATM   22  F   UNL     1      -8.146   5.439  66.139  1.00  0.00    -0.101 F  
HETATM   23  C   UNL     1      -9.590   6.539  67.698  1.00  0.00    -0.122 A  
HETATM   24  N   UNL     1     -10.339   7.621  68.013  1.00  0.00    -0.201 NA 
BRANCH  23  25
HETATM   25  C   UNL     1      -9.596   5.456  68.709  1.00  0.00    -0.182 A  
HETATM   26  C   UNL     1      -9.090   4.181  68.393  1.00  0.00    -0.179 A  
HETATM   27  C   UNL     1      -9.052   3.156  69.337  1.00  0.00    -0.132 A  
HETATM   28  C   UNL     1      -9.520   3.378  70.636  1.00  0.00    -0.173 A  
HETATM   29  F   UNL     1      -8.557   1.962  68.974  1.00  0.00    -0.071 F  
HETATM   30  N   UNL     1      -9.584   2.530  71.703  1.00  0.00    -0.137 NA 
HETATM   31  C   UNL     1     -10.117   3.211  72.693  1.00  0.00    -0.157 A  
HETATM   32  N   UNL     1     -10.402   4.511  72.306  1.00  0.00    -0.190 NA 
HETATM   33  C   UNL     1     -10.371   2.603  74.024  1.00  0.00    -0.205 C  
HETATM   34  C   UNL     1     -10.060   5.687  70.032  1.00  0.00    -0.295 A  
HETATM   35  C   UNL     1     -10.018   4.635  70.974  1.00  0.00    -0.200 A  
BRANCH  32  36
HETATM   36  C   UNL     1     -11.059   5.572  73.072  1.00  0.00    -0.300 C  
HETATM   37  C   UNL     1     -12.300   6.201  72.427  1.00  0.00    -0.059 C  
HETATM   38  C   UNL     1     -10.065   6.663  73.473  1.00  0.00    -0.272 C  
ENDBRANCH  32  36
ENDBRANCH  23  25
ENDBRANCH  16  18
ENDBRANCH  13  16
ENDBRANCH   9  10
ENDBRANCH   6   9
ENDBRANCH   2   3
TORSDOF 7
ENDMDL
MODEL       76
REMARK 921   NORMALIZED FREE ENERGY PREDICTED BY IDOCK:   -5.85 KCAL/MOL
REMARK 922        TOTAL FREE ENERGY PREDICTED BY IDOCK:   -9.11 KCAL/MOL
REMARK 923 INTER-LIGAND FREE ENERGY PREDICTED BY IDOCK:   -8.01 KCAL/MOL
REMARK 924 INTRA-LIGAND FREE ENERGY PREDICTED BY IDOCK:   -1.11 KCAL/MOL
REMARK 927      BINDING AFFINITY PREDICTED BY RF-SCORE:    0.00 PKD
ROOT
HETATM    1  C   UNL     1      -5.953  21.309  67.325  1.00  0.00    -0.416 C  
HETATM    2  C   UNL     1      -7.076  20.435  67.872  1.00  0.00    -0.292 C  
ENDROOT
BRANCH   2   3
HETATM    3  N   UNL     1      -8.171  20.190  66.918  1.00  0.00    -0.315 NA 
HETATM    4  C   UNL     1      -8.007  18.858  66.288  1.00  0.00    -0.273 C  
HETATM    5  C   UNL     1      -8.427  17.665  67.183  1.00  0.00    -0.226 C  
HETATM    6  N   UNL     1      -9.791  17.771  67.751  1.00  0.00    -0.284 NA 
HETATM    7  C   UNL     1      -9.516  20.286  67.522  1.00  0.00    -0.406 C  
HETATM    8  C   UNL     1      -9.908  19.087  68.419  1.00  0.00    -0.392 C  
BRANCH   6   9
HETATM    9  C   UNL     1     -10.842  17.631  66.723  1.00  0.00     0.000 C  
BRANCH   9  10
HETATM   10  C   UNL     1     -11.054  16.212  66.275  1.00  0.00     0.092 A  
HETATM   11  C   UNL     1     -11.277  15.194  67.196  1.00  0.00    -0.320 A  
HETATM   12  C   UNL     1     -11.450  13.897  66.736  1.00  0.00    -0.369 A  
HETATM   13  C   UNL     1     -11.393  13.630  65.367  1.00  0.00    -0.301 A  
HETATM   14  N   UNL     1     -11.203  14.609  64.459  1.00  0.00    -0.325 NA 
HETATM   15  C   UNL     1     -11.029  15.865  64.929  1.00  0.00    -0.411 A  
BRANCH  13  16
HETATM   16  N   UNL     1     -11.609  12.344  64.884  1.00  0.00    -0.331 NA 
HETATM   17  H   UNL     1     -12.581  12.052  64.772  1.00  0.00     0.000 HD 
BRANCH  16  18
HETATM   18  C   UNL     1     -10.635  11.420  64.541  1.00  0.00    -0.328 A  
HETATM   19  N   UNL     1     -10.274  11.362  63.251  1.00  0.00    -0.380 NA 
HETATM   20  C   UNL     1      -9.388  10.407  62.911  1.00  0.00    -0.319 A  
HETATM   21  C   UNL     1      -8.789   9.572  63.823  1.00  0.00    -0.210 A  
HETATM   22  F   UNL     1      -7.901   8.657  63.413  1.00  0.00    -0.120 F  
HETATM   23  C   UNL     1      -9.152   9.734  65.144  1.00  0.00    -0.222 A  
HETATM   24  N   UNL     1     -10.106  10.628  65.494  1.00  0.00    -0.269 NA 
BRANCH  23  25
HETATM   25  C   UNL     1      -8.525   9.011  66.275  1.00  0.00    -0.132 A  
HETATM   26  C   UNL     1      -7.208   9.309  66.670  1.00  0.00    -0.082 A  
HETATM   27  C   UNL     1      -6.608   8.669  67.753  1.00  0.00    -0.062 A  
HETATM   28  C   UNL     1      -7.314   7.705  68.481  1.00  0.00    -0.095 A  
HETATM   29  F   UNL     1      -5.348   8.997  68.081  1.00  0.00    -0.033 F  
HETATM   30  N   UNL     1      -6.928   6.960  69.556  1.00  0.00    -0.061 NA 
HETATM   31  C   UNL     1      -7.947   6.189  69.864  1.00  0.00    -0.114 A  
HETATM   32  N   UNL     1      -9.019   6.417  69.015  1.00  0.00    -0.128 NA 
HETATM   33  C   UNL     1      -7.888   5.209  70.979  1.00  0.00    -0.097 C  
HETATM   34  C   UNL     1      -9.249   8.043  67.021  1.00  0.00    -0.181 A  
HETATM   35  C   UNL     1      -8.624   7.400  68.112  1.00  0.00    -0.123 A  
BRANCH  32  36
HETATM   36  C   UNL     1     -10.311   5.730  68.965  1.00  0.00    -0.245 C  
HETATM   37  C   UNL     1     -11.224   5.920  70.182  1.00  0.00    -0.338 C  
HETATM   38  C   UNL     1     -10.135   4.240  68.668  1.00  0.00     0.103 C  
ENDBRANCH  32  36
ENDBRANCH  23  25
ENDBRANCH  16  18
ENDBRANCH  13  16
ENDBRANCH   9  10
ENDBRANCH   6   9
ENDBRANCH   2   3
TORSDOF 7
ENDMDL
MODEL       77
REMARK 921   NORMALIZED FREE ENERGY PREDICTED BY IDOCK:   -5.84 KCAL/MOL
REMARK 922        TOTAL FREE ENERGY PREDICTED BY IDOCK:   -9.11 KCAL/MOL
REMARK 923 INTER-LIGAND FREE ENERGY PREDICTED BY IDOCK:   -8.36 KCAL/MOL
REMARK 924 INTRA-LIGAND FREE ENERGY PREDICTED BY IDOCK:   -0.74 KCAL/MOL
REMARK 927      BINDING AFFINITY PREDICTED BY RF-SCORE:    0.00 PKD
ROOT
HETATM    1  C   UNL     1      -9.651  20.455  67.574  1.00  0.00    -0.560 C  
HETATM    2  C   UNL     1      -9.895  19.144  68.312  1.00  0.00    -0.390 C  
ENDROOT
BRANCH   2   3
HETATM    3  N   UNL     1     -10.715  18.175  67.568  1.00  0.00    -0.397 NA 
HETATM    4  C   UNL     1     -10.102  17.899  66.246  1.00  0.00    -0.351 C  
HETATM    5  C   UNL     1      -8.885  16.941  66.288  1.00  0.00    -0.279 C  
HETATM    6  N   UNL     1      -9.134  15.659  66.987  1.00  0.00    -0.208 NA 
HETATM    7  C   UNL     1     -10.928  16.902  68.286  1.00  0.00    -0.298 C  
HETATM    8  C   UNL     1      -9.696  15.967  68.322  1.00  0.00    -0.209 C  
BRANCH   6   9
HETATM    9  C   UNL     1     -10.056  14.780  66.241  1.00  0.00    -0.285 C  
BRANCH   9  10
HETATM   10  C   UNL     1     -10.359  13.491  66.952  1.00  0.00    -0.265 A  
HETATM   11  C   UNL     1      -9.337  12.675  67.427  1.00  0.00    -0.189 A  
HETATM   12  C   UNL     1      -9.665  11.486  68.062  1.00  0.00    -0.187 A  
HETATM   13  C   UNL     1     -11.005  11.123  68.210  1.00  0.00    -0.226 A  
HETATM   14  N   UNL     1     -12.008  11.914  67.778  1.00  0.00    -0.573 NA 
HETATM   15  C   UNL     1     -11.667  13.065  67.156  1.00  0.00    -0.382 A  
BRANCH  13  16
HETATM   16  N   UNL     1     -11.355   9.958  68.883  1.00  0.00    -0.471 NA 
HETATM   17  H   UNL     1     -12.010  10.054  69.660  1.00  0.00     0.000 HD 
BRANCH  16  18
HETATM   18  C   UNL     1     -10.900   8.679  68.604  1.00  0.00     0.043 A  
HETATM   19  N   UNL     1     -10.653   8.384  67.319  1.00  0.00    -0.298 NA 
HETATM   20  C   UNL     1     -10.290   7.117  67.046  1.00  0.00    -0.298 A  
HETATM   21  C   UNL     1     -10.084   6.164  68.014  1.00  0.00    -0.153 A  
HETATM   22  F   UNL     1      -9.705   4.926  67.668  1.00  0.00    -0.144 F  
HETATM   23  C   UNL     1     -10.286   6.554  69.322  1.00  0.00    -0.202 A  
HETATM   24  N   UNL     1     -10.735   7.798  69.610  1.00  0.00    -0.242 NA 
BRANCH  23  25
HETATM   25  C   UNL     1      -9.996   5.704  70.499  1.00  0.00    -0.265 A  
HETATM   26  C   UNL     1     -10.882   5.670  71.592  1.00  0.00    -0.301 A  
HETATM   27  C   UNL     1     -10.650   4.851  72.696  1.00  0.00    -0.215 A  
HETATM   28  C   UNL     1      -9.516   4.032  72.739  1.00  0.00    -0.125 A  
HETATM   29  F   UNL     1     -11.532   4.864  73.707  1.00  0.00    -0.361 F  
HETATM   30  N   UNL     1      -9.093   3.169  73.707  1.00  0.00    -0.085 NA 
HETATM   31  C   UNL     1      -7.963   2.650  73.279  1.00  0.00    -0.059 A  
HETATM   32  N   UNL     1      -7.629   3.146  72.029  1.00  0.00    -0.052 NA 
HETATM   33  C   UNL     1      -7.186   1.676  74.087  1.00  0.00    -0.024 C  
HETATM   34  C   UNL     1      -8.851   4.863  70.535  1.00  0.00    -0.146 A  
HETATM   35  C   UNL     1      -8.628   4.043  71.664  1.00  0.00    -0.102 A  
BRANCH  32  36
HETATM   36  C   UNL     1      -6.429   2.886  71.230  1.00  0.00    -0.019 C  
HETATM   37  C   UNL     1      -5.626   4.120  70.798  1.00  0.00    -0.012 C  
HETATM   38  C   UNL     1      -6.750   2.017  70.014  1.00  0.00    -0.033 C  
ENDBRANCH  32  36
ENDBRANCH  23  25
ENDBRANCH  16  18
ENDBRANCH  13  16
ENDBRANCH   9  10
ENDBRANCH   6   9
ENDBRANCH   2   3
TORSDOF 7
ENDMDL
MODEL       78
REMARK 921   NORMALIZED FREE ENERGY PREDICTED BY IDOCK:   -5.82 KCAL/MOL
REMARK 922        TOTAL FREE ENERGY PREDICTED BY IDOCK:   -9.08 KCAL/MOL
REMARK 923 INTER-LIGAND FREE ENERGY PREDICTED BY IDOCK:   -8.36 KCAL/MOL
REMARK 924 INTRA-LIGAND FREE ENERGY PREDICTED BY IDOCK:   -0.72 KCAL/MOL
REMARK 927      BINDING AFFINITY PREDICTED BY RF-SCORE:    0.00 PKD
ROOT
HETATM    1  C   UNL     1     -11.515   1.738  73.395  1.00  0.00    -0.288 C  
HETATM    2  C   UNL     1     -10.423   2.459  72.613  1.00  0.00    -0.130 C  
ENDROOT
BRANCH   2   3
HETATM    3  N   UNL     1      -9.880   3.648  73.290  1.00  0.00    -0.114 NA 
HETATM    4  C   UNL     1      -9.038   4.428  72.352  1.00  0.00    -0.120 C  
HETATM    5  C   UNL     1      -9.832   5.285  71.333  1.00  0.00    -0.174 C  
HETATM    6  N   UNL     1     -10.844   6.180  71.939  1.00  0.00    -0.239 NA 
HETATM    7  C   UNL     1     -10.918   4.528  73.866  1.00  0.00    -0.255 C  
HETATM    8  C   UNL     1     -11.703   5.366  72.829  1.00  0.00    -0.164 C  
BRANCH   6   9
HETATM    9  C   UNL     1     -10.233   7.288  72.701  1.00  0.00    -0.212 C  
BRANCH   9  10
HETATM   10  C   UNL     1      -9.340   8.164  71.868  1.00  0.00    -0.251 A  
HETATM   11  C   UNL     1      -9.854   8.940  70.835  1.00  0.00    -0.304 A  
HETATM   12  C   UNL     1      -8.987   9.720  70.083  1.00  0.00    -0.235 A  
HETATM   13  C   UNL     1      -7.619   9.710  70.365  1.00  0.00    -0.163 A  
HETATM   14  N   UNL     1      -7.107   8.983  71.379  1.00  0.00    -0.221 NA 
HETATM   15  C   UNL     1      -7.969   8.225  72.096  1.00  0.00    -0.140 A  
BRANCH  13  16
HETATM   16  N   UNL     1      -6.742  10.519  69.652  1.00  0.00    -0.091 NA 
HETATM   17  H   UNL     1      -6.150  10.058  68.961  1.00  0.00     0.000 HD 
BRANCH  16  18
HETATM   18  C   UNL     1      -6.592  11.890  69.789  1.00  0.00    -0.022 A  
HETATM   19  N   UNL     1      -5.683  12.321  70.676  1.00  0.00    -0.242 NA 
HETATM   20  C   UNL     1      -5.600  13.652  70.862  1.00  0.00    -0.200 A  
HETATM   21  C   UNL     1      -6.328  14.564  70.137  1.00  0.00    -0.168 A  
HETATM   22  F   UNL     1      -6.179  15.875  70.365  1.00  0.00    -0.150 F  
HETATM   23  C   UNL     1      -7.192  14.054  69.189  1.00  0.00    -0.059 A  
HETATM   24  N   UNL     1      -7.353  12.718  69.049  1.00  0.00    -0.008 NA 
BRANCH  23  25
HETATM   25  C   UNL     1      -7.963  14.884  68.234  1.00  0.00    -0.130 A  
HETATM   26  C   UNL     1      -8.567  14.298  67.106  1.00  0.00    -0.234 A  
HETATM   27  C   UNL     1      -9.327  15.050  66.212  1.00  0.00    -0.307 A  
HETATM   28  C   UNL     1      -9.510  16.421  66.423  1.00  0.00    -0.293 A  
HETATM   29  F   UNL     1      -9.878  14.434  65.154  1.00  0.00    -0.363 F  
HETATM   30  N   UNL     1     -10.199  17.339  65.685  1.00  0.00    -0.613 NA 
HETATM   31  C   UNL     1     -10.056  18.495  66.295  1.00  0.00    -0.398 A  
HETATM   32  N   UNL     1      -9.289  18.362  67.441  1.00  0.00    -0.270 NA 
HETATM   33  C   UNL     1     -10.652  19.747  65.763  1.00  0.00    -0.522 C  
HETATM   34  C   UNL     1      -8.159  16.273  68.458  1.00  0.00    -0.193 A  
HETATM   35  C   UNL     1      -8.928  17.021  67.539  1.00  0.00    -0.219 A  
BRANCH  32  36
HETATM   36  C   UNL     1      -8.834  19.402  68.366  1.00  0.00    -0.352 C  
HETATM   37  C   UNL     1      -9.933  20.210  69.067  1.00  0.00    -0.215 C  
HETATM   38  C   UNL     1      -7.838  20.346  67.690  1.00  0.00    -0.298 C  
ENDBRANCH  32  36
ENDBRANCH  23  25
ENDBRANCH  16  18
ENDBRANCH  13  16
ENDBRANCH   9  10
ENDBRANCH   6   9
ENDBRANCH   2   3
TORSDOF 7
ENDMDL
MODEL       79
REMARK 921   NORMALIZED FREE ENERGY PREDICTED BY IDOCK:   -5.78 KCAL/MOL
REMARK 922        TOTAL FREE ENERGY PREDICTED BY IDOCK:   -9.02 KCAL/MOL
REMARK 923 INTER-LIGAND FREE ENERGY PREDICTED BY IDOCK:   -8.61 KCAL/MOL
REMARK 924 INTRA-LIGAND FREE ENERGY PREDICTED BY IDOCK:   -0.40 KCAL/MOL
REMARK 927      BINDING AFFINITY PREDICTED BY RF-SCORE:    0.00 PKD
ROOT
HETATM    1  C   UNL     1      -9.751  15.561  65.766  1.00  0.00    -0.383 C  
HETATM    2  C   UNL     1     -10.623  15.954  66.953  1.00  0.00    -0.309 C  
ENDROOT
BRANCH   2   3
HETATM    3  N   UNL     1     -10.228  15.331  68.227  1.00  0.00    -0.224 NA 
HETATM    4  C   UNL     1     -10.975  15.949  69.348  1.00  0.00    -0.309 C  
HETATM    5  C   UNL     1     -12.441  15.469  69.489  1.00  0.00    -0.048 C  
HETATM    6  N   UNL     1     -12.604  13.998  69.546  1.00  0.00    -0.110 NA 
HETATM    7  C   UNL     1     -10.421  13.867  68.256  1.00  0.00    -0.250 C  
HETATM    8  C   UNL     1     -11.894  13.412  68.387  1.00  0.00    -0.366 C  
BRANCH   6   9
HETATM    9  C   UNL     1     -12.083  13.422  70.802  1.00  0.00    -0.250 C  
BRANCH   9  10
HETATM   10  C   UNL     1     -12.291  11.937  70.909  1.00  0.00    -0.400 A  
HETATM   11  C   UNL     1     -11.501  11.048  70.189  1.00  0.00    -0.383 A  
HETATM   12  C   UNL     1     -11.741   9.686  70.308  1.00  0.00    -0.213 A  
HETATM   13  C   UNL     1     -12.768   9.230  71.137  1.00  0.00    -0.240 A  
HETATM   14  N   UNL     1     -13.526  10.078  71.862  1.00  0.00    -0.379 NA 
HETATM   15  C   UNL     1     -13.280  11.401  71.726  1.00  0.00    -0.367 A  
BRANCH  13  16
HETATM   16  N   UNL     1     -12.994   7.868  71.303  1.00  0.00    -0.505 NA 
HETATM   17  H   UNL     1     -13.954   7.582  71.499  1.00  0.00     0.000 HD 
BRANCH  16  18
HETATM   18  C   UNL     1     -12.045   6.862  71.230  1.00  0.00    -0.373 A  
HETATM   19  N   UNL     1     -11.827   6.143  72.341  1.00  0.00    -0.283 NA 
HETATM   20  C   UNL     1     -10.846   5.223  72.285  1.00  0.00    -0.207 A  
HETATM   21  C   UNL     1     -10.139   4.938  71.142  1.00  0.00    -0.207 A  
HETATM   22  F   UNL     1      -9.188   3.995  71.158  1.00  0.00    -0.142 F  
HETATM   23  C   UNL     1     -10.464   5.665  70.015  1.00  0.00    -0.297 A  
HETATM   24  N   UNL     1     -11.386   6.655  70.073  1.00  0.00    -0.366 NA 
BRANCH  23  25
HETATM   25  C   UNL     1      -9.897   5.414  68.670  1.00  0.00    -0.204 A  
HETATM   26  C   UNL     1      -9.824   4.104  68.159  1.00  0.00    -0.084 A  
HETATM   27  C   UNL     1      -9.329   3.845  66.882  1.00  0.00    -0.188 A  
HETATM   28  C   UNL     1      -8.890   4.897  66.070  1.00  0.00    -0.126 A  
HETATM   29  F   UNL     1      -9.284   2.575  66.452  1.00  0.00    -0.145 F  
HETATM   30  N   UNL     1      -8.370   4.875  64.809  1.00  0.00    -0.129 NA 
HETATM   31  C   UNL     1      -8.101   6.122  64.492  1.00  0.00    -0.118 A  
HETATM   32  N   UNL     1      -8.446   6.983  65.521  1.00  0.00    -0.138 NA 
HETATM   33  C   UNL     1      -7.491   6.491  63.189  1.00  0.00    -0.073 C  
HETATM   34  C   UNL     1      -9.465   6.485  67.842  1.00  0.00    -0.120 A  
HETATM   35  C   UNL     1      -8.961   6.203  66.552  1.00  0.00    -0.139 A  
BRANCH  32  36
HETATM   36  C   UNL     1      -8.250   8.432  65.608  1.00  0.00    -0.132 C  
HETATM   37  C   UNL     1      -7.233   8.915  66.649  1.00  0.00    -0.085 C  
HETATM   38  C   UNL     1      -9.582   9.160  65.799  1.00  0.00    -0.323 C  
ENDBRANCH  32  36
ENDBRANCH  23  25
ENDBRANCH  16  18
ENDBRANCH  13  16
ENDBRANCH   9  10
ENDBRANCH   6   9
ENDBRANCH   2   3
TORSDOF 7
ENDMDL
MODEL       80
REMARK 921   NORMALIZED FREE ENERGY PREDICTED BY IDOCK:   -5.76 KCAL/MOL
REMARK 922        TOTAL FREE ENERGY PREDICTED BY IDOCK:   -9.00 KCAL/MOL
REMARK 923 INTER-LIGAND FREE ENERGY PREDICTED BY IDOCK:   -7.95 KCAL/MOL
REMARK 924 INTRA-LIGAND FREE ENERGY PREDICTED BY IDOCK:   -1.05 KCAL/MOL
REMARK 927      BINDING AFFINITY PREDICTED BY RF-SCORE:    0.00 PKD
ROOT
HETATM    1  C   UNL     1      -9.849   3.285  62.546  1.00  0.00    -0.097 C  
HETATM    2  C   UNL     1      -8.693   3.369  63.537  1.00  0.00    -0.093 C  
ENDROOT
BRANCH   2   3
HETATM    3  N   UNL     1      -8.991   2.804  64.863  1.00  0.00    -0.123 NA 
HETATM    4  C   UNL     1      -7.768   2.201  65.446  1.00  0.00    -0.072 C  
HETATM    5  C   UNL     1      -6.761   3.223  66.031  1.00  0.00    -0.044 C  
HETATM    6  N   UNL     1      -7.346   4.176  67.003  1.00  0.00    -0.072 NA 
HETATM    7  C   UNL     1      -9.555   3.785  65.813  1.00  0.00    -0.162 C  
HETATM    8  C   UNL     1      -8.533   4.801  66.376  1.00  0.00    -0.110 C  
BRANCH   6   9
HETATM    9  C   UNL     1      -7.729   3.522  68.271  1.00  0.00    -0.060 C  
BRANCH   9  10
HETATM   10  C   UNL     1      -8.420   4.446  69.234  1.00  0.00    -0.094 A  
HETATM   11  C   UNL     1      -9.700   4.171  69.701  1.00  0.00    -0.269 A  
HETATM   12  C   UNL     1     -10.304   5.063  70.576  1.00  0.00    -0.285 A  
HETATM   13  C   UNL     1      -9.627   6.219  70.969  1.00  0.00    -0.175 A  
HETATM   14  N   UNL     1      -8.375   6.489  70.545  1.00  0.00    -0.131 NA 
HETATM   15  C   UNL     1      -7.808   5.610  69.687  1.00  0.00    -0.091 A  
BRANCH  13  16
HETATM   16  N   UNL     1     -10.197   7.102  71.879  1.00  0.00    -0.190 NA 
HETATM   17  H   UNL     1     -10.008   6.929  72.867  1.00  0.00     0.000 HD 
BRANCH  16  18
HETATM   18  C   UNL     1     -10.997   8.192  71.577  1.00  0.00    -0.243 A  
HETATM   19  N   UNL     1     -12.004   8.465  72.420  1.00  0.00    -0.389 NA 
HETATM   20  C   UNL     1     -12.826   9.475  72.077  1.00  0.00    -0.414 A  
HETATM   21  C   UNL     1     -12.628  10.270  70.975  1.00  0.00    -0.390 A  
HETATM   22  F   UNL     1     -13.479  11.269  70.707  1.00  0.00    -0.096 F  
HETATM   23  C   UNL     1     -11.531   9.979  70.189  1.00  0.00    -0.277 A  
HETATM   24  N   UNL     1     -10.744   8.914  70.469  1.00  0.00    -0.220 NA 
BRANCH  23  25
HETATM   25  C   UNL     1     -11.092  10.799  69.036  1.00  0.00    -0.308 A  
HETATM   26  C   UNL     1     -10.944  10.219  67.763  1.00  0.00    -0.360 A  
HETATM   27  C   UNL     1     -10.567  10.976  66.655  1.00  0.00    -0.262 A  
HETATM   28  C   UNL     1     -10.326  12.348  66.788  1.00  0.00    -0.221 A  
HETATM   29  F   UNL     1     -10.443  10.365  65.466  1.00  0.00    -0.333 F  
HETATM   30  N   UNL     1      -9.947  13.268  65.856  1.00  0.00    -0.286 NA 
HETATM   31  C   UNL     1      -9.839  14.418  66.484  1.00  0.00    -0.287 A  
HETATM   32  N   UNL     1     -10.155  14.283  67.826  1.00  0.00    -0.229 NA 
HETATM   33  C   UNL     1      -9.415  15.660  65.789  1.00  0.00    -0.338 C  
HETATM   34  C   UNL     1     -10.861  12.194  69.172  1.00  0.00    -0.165 A  
HETATM   35  C   UNL     1     -10.475  12.946  68.040  1.00  0.00    -0.230 A  
BRANCH  32  36
HETATM   36  C   UNL     1     -10.097  15.291  68.887  1.00  0.00    -0.225 C  
HETATM   37  C   UNL     1     -10.903  16.573  68.645  1.00  0.00    -0.345 C  
HETATM   38  C   UNL     1      -8.650  15.640  69.241  1.00  0.00    -0.262 C  
ENDBRANCH  32  36
ENDBRANCH  23  25
ENDBRANCH  16  18
ENDBRANCH  13  16
ENDBRANCH   9  10
ENDBRANCH   6   9
ENDBRANCH   2   3
TORSDOF 7
ENDMDL
MODEL       81
REMARK 921   NORMALIZED FREE ENERGY PREDICTED BY IDOCK:   -5.73 KCAL/MOL
REMARK 922        TOTAL FREE ENERGY PREDICTED BY IDOCK:   -8.94 KCAL/MOL
REMARK 923 INTER-LIGAND FREE ENERGY PREDICTED BY IDOCK:   -8.10 KCAL/MOL
REMARK 924 INTRA-LIGAND FREE ENERGY PREDICTED BY IDOCK:   -0.84 KCAL/MOL
REMARK 927      BINDING AFFINITY PREDICTED BY RF-SCORE:    0.00 PKD
ROOT
HETATM    1  C   UNL     1     -10.350  19.820  66.037  1.00  0.00    -0.612 C  
HETATM    2  C   UNL     1     -10.482  18.304  65.949  1.00  0.00    -0.307 C  
ENDROOT
BRANCH   2   3
HETATM    3  N   UNL     1      -9.783  17.573  67.019  1.00  0.00    -0.274 NA 
HETATM    4  C   UNL     1     -10.555  17.656  68.281  1.00  0.00    -0.339 C  
HETATM    5  C   UNL     1     -11.785  16.716  68.348  1.00  0.00     0.288 C  
HETATM    6  N   UNL     1     -11.490  15.295  68.050  1.00  0.00    -0.345 NA 
HETATM    7  C   UNL     1      -9.521  16.155  66.696  1.00  0.00    -0.247 C  
HETATM    8  C   UNL     1     -10.766  15.238  66.760  1.00  0.00    -0.313 C  
BRANCH   6   9
HETATM    9  C   UNL     1     -10.687  14.652  69.109  1.00  0.00    -0.255 C  
BRANCH   9  10
HETATM   10  C   UNL     1     -11.208  13.302  69.516  1.00  0.00    -0.163 A  
HETATM   11  C   UNL     1     -10.931  12.167  68.761  1.00  0.00    -0.274 A  
HETATM   12  C   UNL     1     -11.448  10.946  69.168  1.00  0.00    -0.373 A  
HETATM   13  C   UNL     1     -12.238  10.871  70.317  1.00  0.00    -0.348 A  
HETATM   14  N   UNL     1     -12.494  11.957  71.075  1.00  0.00    -0.348 NA 
HETATM   15  C   UNL     1     -11.987  13.140  70.657  1.00  0.00    -0.162 A  
BRANCH  13  16
HETATM   16  N   UNL     1     -12.726   9.649  70.765  1.00  0.00    -0.519 NA 
HETATM   17  H   UNL     1     -13.740   9.536  70.776  1.00  0.00     0.000 HD 
BRANCH  16  18
HETATM   18  C   UNL     1     -11.972   8.571  71.199  1.00  0.00    -0.272 A  
HETATM   19  N   UNL     1     -12.026   8.272  72.505  1.00  0.00    -0.391 NA 
HETATM   20  C   UNL     1     -11.228   7.276  72.933  1.00  0.00    -0.292 A  
HETATM   21  C   UNL     1     -10.447   6.518  72.093  1.00  0.00    -0.205 A  
HETATM   22  F   UNL     1      -9.692   5.529  72.590  1.00  0.00    -0.155 F  
HETATM   23  C   UNL     1     -10.494   6.833  70.751  1.00  0.00    -0.214 A  
HETATM   24  N   UNL     1     -11.222   7.887  70.313  1.00  0.00    -0.241 NA 
BRANCH  23  25
HETATM   25  C   UNL     1      -9.819   6.052  69.688  1.00  0.00    -0.205 A  
HETATM   26  C   UNL     1      -9.932   4.650  69.652  1.00  0.00    -0.281 A  
HETATM   27  C   UNL     1      -9.338   3.895  68.642  1.00  0.00    -0.164 A  
HETATM   28  C   UNL     1      -8.607   4.526  67.629  1.00  0.00    -0.103 A  
HETATM   29  F   UNL     1      -9.482   2.561  68.661  1.00  0.00    -0.212 F  
HETATM   30  N   UNL     1      -7.944   3.993  66.562  1.00  0.00    -0.097 NA 
HETATM   31  C   UNL     1      -7.404   5.001  65.914  1.00  0.00    -0.077 A  
HETATM   32  N   UNL     1      -7.706   6.207  66.527  1.00  0.00    -0.101 NA 
HETATM   33  C   UNL     1      -6.574   4.805  64.698  1.00  0.00    -0.043 C  
HETATM   34  C   UNL     1      -9.089   6.696  68.654  1.00  0.00    -0.126 A  
HETATM   35  C   UNL     1      -8.488   5.915  67.641  1.00  0.00    -0.103 A  
BRANCH  32  36
HETATM   36  C   UNL     1      -7.251   7.554  66.175  1.00  0.00    -0.074 C  
HETATM   37  C   UNL     1      -7.736   8.100  64.827  1.00  0.00    -0.123 C  
HETATM   38  C   UNL     1      -5.728   7.666  66.270  1.00  0.00    -0.036 C  
ENDBRANCH  32  36
ENDBRANCH  23  25
ENDBRANCH  16  18
ENDBRANCH  13  16
ENDBRANCH   9  10
ENDBRANCH   6   9
ENDBRANCH   2   3
TORSDOF 7
ENDMDL
MODEL       82
REMARK 921   NORMALIZED FREE ENERGY PREDICTED BY IDOCK:   -5.72 KCAL/MOL
REMARK 922        TOTAL FREE ENERGY PREDICTED BY IDOCK:   -8.94 KCAL/MOL
REMARK 923 INTER-LIGAND FREE ENERGY PREDICTED BY IDOCK:   -8.04 KCAL/MOL
REMARK 924 INTRA-LIGAND FREE ENERGY PREDICTED BY IDOCK:   -0.90 KCAL/MOL
REMARK 927      BINDING AFFINITY PREDICTED BY RF-SCORE:    0.00 PKD
ROOT
HETATM    1  C   UNL     1     -10.551  19.924  66.276  1.00  0.00    -0.534 C  
HETATM    2  C   UNL     1      -9.345  20.553  66.965  1.00  0.00    -0.345 C  
ENDROOT
BRANCH   2   3
HETATM    3  N   UNL     1      -8.084  19.822  66.762  1.00  0.00    -0.291 NA 
HETATM    4  C   UNL     1      -7.037  20.352  67.669  1.00  0.00    -0.307 C  
HETATM    5  C   UNL     1      -7.157  19.878  69.139  1.00  0.00    -0.261 C  
HETATM    6  N   UNL     1      -7.248  18.409  69.306  1.00  0.00    -0.159 NA 
HETATM    7  C   UNL     1      -8.207  18.363  66.955  1.00  0.00    -0.247 C  
HETATM    8  C   UNL     1      -8.334  17.914  68.431  1.00  0.00    -0.304 C  
BRANCH   6   9
HETATM    9  C   UNL     1      -5.982  17.725  68.977  1.00  0.00    -0.201 C  
BRANCH   9  10
HETATM   10  C   UNL     1      -6.122  16.233  68.857  1.00  0.00    -0.131 A  
HETATM   11  C   UNL     1      -5.819  15.576  67.669  1.00  0.00    -0.132 A  
HETATM   12  C   UNL     1      -5.981  14.200  67.601  1.00  0.00    -0.044 A  
HETATM   13  C   UNL     1      -6.449  13.498  68.714  1.00  0.00    -0.098 A  
HETATM   14  N   UNL     1      -6.723  14.116  69.881  1.00  0.00    -0.084 NA 
HETATM   15  C   UNL     1      -6.565  15.459  69.924  1.00  0.00    -0.144 A  
BRANCH  13  16
HETATM   16  N   UNL     1      -6.574  12.114  68.680  1.00  0.00    -0.071 NA 
HETATM   17  H   UNL     1      -5.755  11.571  68.953  1.00  0.00     0.000 HD 
BRANCH  16  18
HETATM   18  C   UNL     1      -7.703  11.400  68.310  1.00  0.00    -0.124 A  
HETATM   19  N   UNL     1      -8.063  11.448  67.019  1.00  0.00    -0.151 NA 
HETATM   20  C   UNL     1      -9.205  10.820  66.683  1.00  0.00    -0.166 A  
HETATM   21  C   UNL     1      -9.949  10.078  67.569  1.00  0.00    -0.190 A  
HETATM   22  F   UNL     1     -11.066   9.464  67.158  1.00  0.00    -0.289 F  
HETATM   23  C   UNL     1      -9.482  10.010  68.866  1.00  0.00    -0.172 A  
HETATM   24  N   UNL     1      -8.385  10.707  69.243  1.00  0.00    -0.137 NA 
BRANCH  23  25
HETATM   25  C   UNL     1     -10.082   9.163  69.923  1.00  0.00    -0.219 A  
HETATM   26  C   UNL     1     -11.089   9.674  70.762  1.00  0.00    -0.403 A  
HETATM   27  C   UNL     1     -11.694   8.886  71.739  1.00  0.00    -0.362 A  
HETATM   28  C   UNL     1     -11.308   7.552  71.908  1.00  0.00    -0.260 A  
HETATM   29  F   UNL     1     -12.650   9.431  72.509  1.00  0.00    -0.412 F  
HETATM   30  N   UNL     1     -11.752   6.614  72.792  1.00  0.00    -0.070 NA 
HETATM   31  C   UNL     1     -11.064   5.519  72.557  1.00  0.00    -0.270 A  
HETATM   32  N   UNL     1     -10.169   5.708  71.516  1.00  0.00    -0.201 NA 
HETATM   33  C   UNL     1     -11.256   4.279  73.351  1.00  0.00    -0.361 C  
HETATM   34  C   UNL     1      -9.696   7.805  70.083  1.00  0.00    -0.183 A  
HETATM   35  C   UNL     1     -10.316   7.022  71.083  1.00  0.00    -0.206 A  
BRANCH  32  36
HETATM   36  C   UNL     1      -9.172   4.776  70.984  1.00  0.00    -0.141 C  
HETATM   37  C   UNL     1      -7.717   5.263  70.999  1.00  0.00    -0.097 C  
HETATM   38  C   UNL     1      -9.551   4.301  69.580  1.00  0.00    -0.275 C  
ENDBRANCH  32  36
ENDBRANCH  23  25
ENDBRANCH  16  18
ENDBRANCH  13  16
ENDBRANCH   9  10
ENDBRANCH   6   9
ENDBRANCH   2   3
TORSDOF 7
ENDMDL
MODEL       83
REMARK 921   NORMALIZED FREE ENERGY PREDICTED BY IDOCK:   -5.70 KCAL/MOL
REMARK 922        TOTAL FREE ENERGY PREDICTED BY IDOCK:   -8.91 KCAL/MOL
REMARK 923 INTER-LIGAND FREE ENERGY PREDICTED BY IDOCK:   -8.31 KCAL/MOL
REMARK 924 INTRA-LIGAND FREE ENERGY PREDICTED BY IDOCK:   -0.60 KCAL/MOL
REMARK 927      BINDING AFFINITY PREDICTED BY RF-SCORE:    0.00 PKD
ROOT
HETATM    1  C   UNL     1     -12.372  16.216  74.371  1.00  0.00    -0.659 C  
HETATM    2  C   UNL     1     -12.808  15.093  73.438  1.00  0.00    -0.537 C  
ENDROOT
BRANCH   2   3
HETATM    3  N   UNL     1     -13.084  15.526  72.058  1.00  0.00    -0.417 NA 
HETATM    4  C   UNL     1     -11.878  16.162  71.475  1.00  0.00    -0.463 C  
HETATM    5  C   UNL     1     -10.782  15.167  71.017  1.00  0.00     0.051 C  
HETATM    6  N   UNL     1     -11.260  14.100  70.107  1.00  0.00    -0.085 NA 
HETATM    7  C   UNL     1     -13.540  14.434  71.174  1.00  0.00    -0.276 C  
HETATM    8  C   UNL     1     -12.430  13.449  70.738  1.00  0.00    -0.341 C  
BRANCH   6   9
HETATM    9  C   UNL     1     -11.629  14.620  68.774  1.00  0.00    -0.317 C  
BRANCH   9  10
HETATM   10  C   UNL     1     -11.123  13.772  67.642  1.00  0.00    -0.292 A  
HETATM   11  C   UNL     1      -9.795  13.361  67.589  1.00  0.00    -0.226 A  
HETATM   12  C   UNL     1      -9.371  12.593  66.514  1.00  0.00    -0.228 A  
HETATM   13  C   UNL     1     -10.272  12.250  65.504  1.00  0.00    -0.269 A  
HETATM   14  N   UNL     1     -11.568  12.619  65.553  1.00  0.00    -0.351 NA 
HETATM   15  C   UNL     1     -11.960  13.373  66.605  1.00  0.00    -0.399 A  
BRANCH  13  16
HETATM   16  N   UNL     1      -9.877  11.443  64.443  1.00  0.00    -0.251 NA 
HETATM   17  H   UNL     1     -10.067  11.793  63.504  1.00  0.00     0.000 HD 
BRANCH  16  18
HETATM   18  C   UNL     1      -9.249  10.212  64.536  1.00  0.00    -0.257 A  
HETATM   19  N   UNL     1      -8.295   9.940  63.633  1.00  0.00    -0.151 NA 
HETATM   20  C   UNL     1      -7.748   8.711  63.679  1.00  0.00    -0.136 A  
HETATM   21  C   UNL     1      -8.056   7.781  64.643  1.00  0.00    -0.123 A  
HETATM   22  F   UNL     1      -7.456   6.584  64.636  1.00  0.00    -0.066 F  
HETATM   23  C   UNL     1      -8.993   8.153  65.585  1.00  0.00    -0.080 A  
HETATM   24  N   UNL     1      -9.618   9.350  65.504  1.00  0.00    -0.275 NA 
BRANCH  23  25
HETATM   25  C   UNL     1      -9.359   7.332  66.764  1.00  0.00    -0.203 A  
HETATM   26  C   UNL     1     -10.272   7.820  67.717  1.00  0.00    -0.271 A  
HETATM   27  C   UNL     1     -10.660   7.053  68.814  1.00  0.00    -0.212 A  
HETATM   28  C   UNL     1     -10.143   5.765  68.992  1.00  0.00    -0.191 A  
HETATM   29  F   UNL     1     -11.536   7.573  69.689  1.00  0.00    -0.150 F  
HETATM   30  N   UNL     1     -10.375   4.855  69.982  1.00  0.00    -0.244 NA 
HETATM   31  C   UNL     1      -9.639   3.803  69.703  1.00  0.00    -0.172 A  
HETATM   32  N   UNL     1      -8.924   3.990  68.531  1.00  0.00    -0.108 NA 
HETATM   33  C   UNL     1      -9.609   2.605  70.581  1.00  0.00    -0.167 C  
HETATM   34  C   UNL     1      -8.842   6.020  66.935  1.00  0.00    -0.116 A  
HETATM   35  C   UNL     1      -9.242   5.259  68.056  1.00  0.00    -0.113 A  
BRANCH  32  36
HETATM   36  C   UNL     1      -7.941   3.104  67.904  1.00  0.00    -0.074 C  
HETATM   37  C   UNL     1      -8.507   1.971  67.039  1.00  0.00    -0.099 C  
HETATM   38  C   UNL     1      -6.967   2.538  68.939  1.00  0.00    -0.044 C  
ENDBRANCH  32  36
ENDBRANCH  23  25
ENDBRANCH  16  18
ENDBRANCH  13  16
ENDBRANCH   9  10
ENDBRANCH   6   9
ENDBRANCH   2   3
TORSDOF 7
ENDMDL
MODEL       84
REMARK 921   NORMALIZED FREE ENERGY PREDICTED BY IDOCK:   -5.70 KCAL/MOL
REMARK 922        TOTAL FREE ENERGY PREDICTED BY IDOCK:   -8.91 KCAL/MOL
REMARK 923 INTER-LIGAND FREE ENERGY PREDICTED BY IDOCK:   -8.05 KCAL/MOL
REMARK 924 INTRA-LIGAND FREE ENERGY PREDICTED BY IDOCK:   -0.86 KCAL/MOL
REMARK 927      BINDING AFFINITY PREDICTED BY RF-SCORE:    0.00 PKD
ROOT
HETATM    1  C   UNL     1     -10.357  19.684  68.125  1.00  0.00    -0.561 C  
HETATM    2  C   UNL     1     -10.823  18.448  67.364  1.00  0.00    -0.268 C  
ENDROOT
BRANCH   2   3
HETATM    3  N   UNL     1      -9.890  17.311  67.427  1.00  0.00    -0.265 NA 
HETATM    4  C   UNL     1     -10.486  16.207  68.216  1.00  0.00    -0.276 C  
HETATM    5  C   UNL     1     -11.554  15.377  67.460  1.00  0.00    -0.169 C  
HETATM    6  N   UNL     1     -11.110  14.854  66.147  1.00  0.00    -0.334 NA 
HETATM    7  C   UNL     1      -9.483  16.804  66.101  1.00  0.00    -0.264 C  
HETATM    8  C   UNL     1     -10.569  15.986  65.361  1.00  0.00    -0.408 C  
BRANCH   6   9
HETATM    9  C   UNL     1     -10.089  13.796  66.277  1.00  0.00    -0.300 C  
BRANCH   9  10
HETATM   10  C   UNL     1     -10.458  12.728  67.268  1.00  0.00    -0.238 A  
HETATM   11  C   UNL     1      -9.545  12.281  68.217  1.00  0.00    -0.212 A  
HETATM   12  C   UNL     1      -9.927  11.281  69.100  1.00  0.00    -0.058 A  
HETATM   13  C   UNL     1     -11.210  10.736  69.022  1.00  0.00    -0.262 A  
HETATM   14  N   UNL     1     -12.116  11.175  68.125  1.00  0.00    -0.610 NA 
HETATM   15  C   UNL     1     -11.721  12.146  67.268  1.00  0.00    -0.299 A  
BRANCH  13  16
HETATM   16  N   UNL     1     -11.625   9.766  69.927  1.00  0.00    -0.424 NA 
HETATM   17  H   UNL     1     -12.282  10.062  70.649  1.00  0.00     0.000 HD 
BRANCH  16  18
HETATM   18  C   UNL     1     -11.234   8.436  69.944  1.00  0.00    -0.026 A  
HETATM   19  N   UNL     1     -11.531   7.725  71.041  1.00  0.00    -0.279 NA 
HETATM   20  C   UNL     1     -11.077   6.458  71.084  1.00  0.00    -0.291 A  
HETATM   21  C   UNL     1     -10.417   5.855  70.041  1.00  0.00    -0.266 A  
HETATM   22  F   UNL     1     -10.010   4.583  70.149  1.00  0.00    -0.252 F  
HETATM   23  C   UNL     1     -10.208   6.622  68.913  1.00  0.00    -0.177 A  
HETATM   24  N   UNL     1     -10.579   7.924  68.884  1.00  0.00    -0.187 NA 
BRANCH  23  25
HETATM   25  C   UNL     1      -9.625   6.107  67.652  1.00  0.00    -0.113 A  
HETATM   26  C   UNL     1      -9.878   4.787  67.236  1.00  0.00    -0.218 A  
HETATM   27  C   UNL     1      -9.372   4.291  66.036  1.00  0.00    -0.163 A  
HETATM   28  C   UNL     1      -8.593   5.107  65.209  1.00  0.00    -0.148 A  
HETATM   29  F   UNL     1      -9.648   3.022  65.693  1.00  0.00    -0.148 F  
HETATM   30  N   UNL     1      -7.999   4.832  64.012  1.00  0.00    -0.096 NA 
HETATM   31  C   UNL     1      -7.368   5.926  63.646  1.00  0.00    -0.064 A  
HETATM   32  N   UNL     1      -7.542   6.937  64.578  1.00  0.00    -0.100 NA 
HETATM   33  C   UNL     1      -6.575   5.998  62.392  1.00  0.00    -0.033 C  
HETATM   34  C   UNL     1      -8.846   6.943  66.808  1.00  0.00    -0.129 A  
HETATM   35  C   UNL     1      -8.337   6.421  65.597  1.00  0.00    -0.147 A  
BRANCH  32  36
HETATM   36  C   UNL     1      -6.959   8.280  64.593  1.00  0.00    -0.075 C  
HETATM   37  C   UNL     1      -5.995   8.585  65.746  1.00  0.00    -0.048 C  
HETATM   38  C   UNL     1      -8.043   9.355  64.516  1.00  0.00    -0.136 C  
ENDBRANCH  32  36
ENDBRANCH  23  25
ENDBRANCH  16  18
ENDBRANCH  13  16
ENDBRANCH   9  10
ENDBRANCH   6   9
ENDBRANCH   2   3
TORSDOF 7
ENDMDL
MODEL       85
REMARK 921   NORMALIZED FREE ENERGY PREDICTED BY IDOCK:   -5.65 KCAL/MOL
REMARK 922        TOTAL FREE ENERGY PREDICTED BY IDOCK:   -8.84 KCAL/MOL
REMARK 923 INTER-LIGAND FREE ENERGY PREDICTED BY IDOCK:   -9.06 KCAL/MOL
REMARK 924 INTRA-LIGAND FREE ENERGY PREDICTED BY IDOCK:    0.21 KCAL/MOL
REMARK 927      BINDING AFFINITY PREDICTED BY RF-SCORE:    0.00 PKD
ROOT
HETATM    1  C   UNL     1      -5.133  13.249  68.188  1.00  0.00    -0.100 C  
HETATM    2  C   UNL     1      -5.689  12.258  67.171  1.00  0.00    -0.103 C  
ENDROOT
BRANCH   2   3
HETATM    3  N   UNL     1      -5.892  10.899  67.699  1.00  0.00    -0.043 NA 
HETATM    4  C   UNL     1      -7.340  10.587  67.756  1.00  0.00    -0.086 C  
HETATM    5  C   UNL     1      -7.976  10.226  66.390  1.00  0.00    -0.121 C  
HETATM    6  N   UNL     1      -7.274   9.152  65.649  1.00  0.00    -0.082 NA 
HETATM    7  C   UNL     1      -5.193   9.852  66.926  1.00  0.00    -0.041 C  
HETATM    8  C   UNL     1      -5.842   9.516  65.561  1.00  0.00    -0.059 C  
BRANCH   6   9
HETATM    9  C   UNL     1      -7.422   7.832  66.294  1.00  0.00    -0.079 C  
BRANCH   9  10
HETATM   10  C   UNL     1      -8.439   7.819  67.401  1.00  0.00    -0.119 A  
HETATM   11  C   UNL     1      -8.049   7.763  68.734  1.00  0.00    -0.126 A  
HETATM   12  C   UNL     1      -9.024   7.736  69.721  1.00  0.00    -0.146 A  
HETATM   13  C   UNL     1     -10.375   7.758  69.365  1.00  0.00    -0.219 A  
HETATM   14  N   UNL     1     -10.770   7.838  68.078  1.00  0.00    -0.123 NA 
HETATM   15  C   UNL     1      -9.803   7.856  67.132  1.00  0.00    -0.208 A  
BRANCH  13  16
HETATM   16  N   UNL     1     -11.366   7.777  70.340  1.00  0.00    -0.386 NA 
HETATM   17  H   UNL     1     -11.665   6.874  70.709  1.00  0.00     0.000 HD 
BRANCH  16  18
HETATM   18  C   UNL     1     -11.987   8.902  70.859  1.00  0.00    -0.213 A  
HETATM   19  N   UNL     1     -12.700   8.743  71.983  1.00  0.00    -0.360 NA 
HETATM   20  C   UNL     1     -13.367   9.822  72.436  1.00  0.00    -0.284 A  
HETATM   21  C   UNL     1     -13.278  11.065  71.857  1.00  0.00    -0.398 A  
HETATM   22  F   UNL     1     -13.957  12.097  72.375  1.00  0.00    -0.422 F  
HETATM   23  C   UNL     1     -12.469  11.173  70.744  1.00  0.00    -0.384 A  
HETATM   24  N   UNL     1     -11.860  10.083  70.223  1.00  0.00    -0.241 NA 
BRANCH  23  25
HETATM   25  C   UNL     1     -12.156  12.452  70.064  1.00  0.00    -0.335 A  
HETATM   26  C   UNL     1     -12.099  13.654  70.794  1.00  0.00    -0.374 A  
HETATM   27  C   UNL     1     -11.771  14.863  70.185  1.00  0.00    -0.294 A  
HETATM   28  C   UNL     1     -11.486  14.907  68.815  1.00  0.00    -0.307 A  
HETATM   29  F   UNL     1     -11.733  15.976  70.934  1.00  0.00    -0.340 F  
HETATM   30  N   UNL     1     -11.154  15.965  68.021  1.00  0.00    -0.338 NA 
HETATM   31  C   UNL     1     -11.000  15.489  66.806  1.00  0.00    -0.257 A  
HETATM   32  N   UNL     1     -11.214  14.120  66.776  1.00  0.00    -0.313 NA 
HETATM   33  C   UNL     1     -10.657  16.361  65.653  1.00  0.00    -0.337 C  
HETATM   34  C   UNL     1     -11.854  12.491  68.677  1.00  0.00    -0.340 A  
HETATM   35  C   UNL     1     -11.529  13.727  68.074  1.00  0.00    -0.310 A  
BRANCH  32  36
HETATM   36  C   UNL     1     -11.212  13.217  65.624  1.00  0.00    -0.283 C  
HETATM   37  C   UNL     1     -10.294  13.608  64.460  1.00  0.00    -0.355 C  
HETATM   38  C   UNL     1     -12.632  12.971  65.112  1.00  0.00    -0.530 C  
ENDBRANCH  32  36
ENDBRANCH  23  25
ENDBRANCH  16  18
ENDBRANCH  13  16
ENDBRANCH   9  10
ENDBRANCH   6   9
ENDBRANCH   2   3
TORSDOF 7
ENDMDL
MODEL       86
REMARK 921   NORMALIZED FREE ENERGY PREDICTED BY IDOCK:   -5.59 KCAL/MOL
REMARK 922        TOTAL FREE ENERGY PREDICTED BY IDOCK:   -8.76 KCAL/MOL
REMARK 923 INTER-LIGAND FREE ENERGY PREDICTED BY IDOCK:   -8.02 KCAL/MOL
REMARK 924 INTRA-LIGAND FREE ENERGY PREDICTED BY IDOCK:   -0.74 KCAL/MOL
REMARK 927      BINDING AFFINITY PREDICTED BY RF-SCORE:    0.00 PKD
ROOT
HETATM    1  C   UNL     1      -7.466  20.749  67.082  1.00  0.00    -0.366 C  
HETATM    2  C   UNL     1      -8.777  20.061  67.443  1.00  0.00    -0.345 C  
ENDROOT
BRANCH   2   3
HETATM    3  N   UNL     1      -9.120  18.921  66.577  1.00  0.00    -0.320 NA 
HETATM    4  C   UNL     1      -8.183  17.798  66.822  1.00  0.00    -0.250 C  
HETATM    5  C   UNL     1      -8.466  16.991  68.114  1.00  0.00    -0.227 C  
HETATM    6  N   UNL     1      -9.858  16.501  68.241  1.00  0.00    -0.236 NA 
HETATM    7  C   UNL     1     -10.509  18.447  66.743  1.00  0.00    -0.385 C  
HETATM    8  C   UNL     1     -10.769  17.652  68.045  1.00  0.00    -0.328 C  
BRANCH   6   9
HETATM    9  C   UNL     1     -10.172  15.437  67.267  1.00  0.00    -0.254 C  
BRANCH   9  10
HETATM   10  C   UNL     1     -10.865  14.252  67.879  1.00  0.00    -0.260 A  
HETATM   11  C   UNL     1     -11.165  14.218  69.237  1.00  0.00    -0.309 A  
HETATM   12  C   UNL     1     -11.790  13.095  69.760  1.00  0.00    -0.386 A  
HETATM   13  C   UNL     1     -12.102  12.020  68.925  1.00  0.00    -0.145 A  
HETATM   14  N   UNL     1     -11.841  12.047  67.603  1.00  0.00    -0.564 NA 
HETATM   15  C   UNL     1     -11.225  13.148  67.114  1.00  0.00    -0.294 A  
BRANCH  13  16
HETATM   16  N   UNL     1     -12.769  10.905  69.422  1.00  0.00    -0.528 NA 
HETATM   17  H   UNL     1     -13.676  10.690  69.008  1.00  0.00     0.000 HD 
BRANCH  16  18
HETATM   18  C   UNL     1     -12.322  10.059  70.425  1.00  0.00    -0.135 A  
HETATM   19  N   UNL     1     -12.855  10.221  71.645  1.00  0.00    -0.427 NA 
HETATM   20  C   UNL     1     -12.358   9.451  72.631  1.00  0.00     0.232 A  
HETATM   21  C   UNL     1     -11.415   8.473  72.425  1.00  0.00    -0.349 A  
HETATM   22  F   UNL     1     -10.980   7.733  73.454  1.00  0.00    -0.425 F  
HETATM   23  C   UNL     1     -10.962   8.312  71.132  1.00  0.00    -0.245 A  
HETATM   24  N   UNL     1     -11.385   9.134  70.144  1.00  0.00    -0.195 NA 
BRANCH  23  25
HETATM   25  C   UNL     1     -10.042   7.233  70.701  1.00  0.00    -0.198 A  
HETATM   26  C   UNL     1     -10.189   6.633  69.437  1.00  0.00    -0.207 A  
HETATM   27  C   UNL     1      -9.315   5.642  68.993  1.00  0.00    -0.124 A  
HETATM   28  C   UNL     1      -8.258   5.219  69.806  1.00  0.00    -0.098 A  
HETATM   29  F   UNL     1      -9.507   5.108  67.777  1.00  0.00    -0.117 F  
HETATM   30  N   UNL     1      -7.300   4.274  69.582  1.00  0.00    -0.050 NA 
HETATM   31  C   UNL     1      -6.546   4.241  70.658  1.00  0.00    -0.031 A  
HETATM   32  N   UNL     1      -6.979   5.161  71.599  1.00  0.00    -0.055 NA 
HETATM   33  C   UNL     1      -5.403   3.302  70.792  1.00  0.00    -0.008 C  
HETATM   34  C   UNL     1      -8.962   6.816  71.524  1.00  0.00    -0.137 A  
HETATM   35  C   UNL     1      -8.089   5.806  71.060  1.00  0.00    -0.120 A  
BRANCH  32  36
HETATM   36  C   UNL     1      -6.469   5.399  72.951  1.00  0.00    -0.064 C  
HETATM   37  C   UNL     1      -5.181   6.225  73.052  1.00  0.00    -0.032 C  
HETATM   38  C   UNL     1      -6.314   4.088  73.723  1.00  0.00    -0.036 C  
ENDBRANCH  32  36
ENDBRANCH  23  25
ENDBRANCH  16  18
ENDBRANCH  13  16
ENDBRANCH   9  10
ENDBRANCH   6   9
ENDBRANCH   2   3
TORSDOF 7
ENDMDL
MODEL       87
REMARK 921   NORMALIZED FREE ENERGY PREDICTED BY IDOCK:   -5.53 KCAL/MOL
REMARK 922        TOTAL FREE ENERGY PREDICTED BY IDOCK:   -8.66 KCAL/MOL
REMARK 923 INTER-LIGAND FREE ENERGY PREDICTED BY IDOCK:   -8.39 KCAL/MOL
REMARK 924 INTRA-LIGAND FREE ENERGY PREDICTED BY IDOCK:   -0.27 KCAL/MOL
REMARK 927      BINDING AFFINITY PREDICTED BY RF-SCORE:    0.00 PKD
ROOT
HETATM    1  C   UNL     1      -9.780  20.568  67.504  1.00  0.00    -0.554 C  
HETATM    2  C   UNL     1      -9.477  19.502  68.551  1.00  0.00    -0.386 C  
ENDROOT
BRANCH   2   3
HETATM    3  N   UNL     1      -8.758  18.328  68.029  1.00  0.00    -0.270 NA 
HETATM    4  C   UNL     1      -9.385  17.083  68.534  1.00  0.00    -0.265 C  
HETATM    5  C   UNL     1     -10.698  16.685  67.814  1.00  0.00    -0.327 C  
HETATM    6  N   UNL     1     -10.595  16.616  66.338  1.00  0.00    -0.250 NA 
HETATM    7  C   UNL     1      -8.690  18.282  66.555  1.00  0.00    -0.274 C  
HETATM    8  C   UNL     1     -10.016  17.891  65.859  1.00  0.00    -0.111 C  
BRANCH   6   9
HETATM    9  C   UNL     1      -9.765  15.482  65.884  1.00  0.00    -0.357 C  
BRANCH   9  10
HETATM   10  C   UNL     1     -10.226  14.154  66.415  1.00  0.00    -0.292 A  
HETATM   11  C   UNL     1      -9.438  13.418  67.293  1.00  0.00    -0.234 A  
HETATM   12  C   UNL     1      -9.898  12.189  67.743  1.00  0.00    -0.199 A  
HETATM   13  C   UNL     1     -11.135  11.707  67.308  1.00  0.00    -0.290 A  
HETATM   14  N   UNL     1     -11.923  12.419  66.477  1.00  0.00    -0.605 NA 
HETATM   15  C   UNL     1     -11.452  13.611  66.045  1.00  0.00    -0.324 A  
BRANCH  13  16
HETATM   16  N   UNL     1     -11.633  10.500  67.784  1.00  0.00    -0.667 NA 
HETATM   17  H   UNL     1     -12.426  10.099  67.281  1.00  0.00     0.000 HD 
BRANCH  16  18
HETATM   18  C   UNL     1     -11.159   9.787  68.873  1.00  0.00    -0.099 A  
HETATM   19  N   UNL     1     -11.345  10.327  70.086  1.00  0.00    -0.294 NA 
HETATM   20  C   UNL     1     -10.811   9.669  71.132  1.00  0.00    -0.334 A  
HETATM   21  C   UNL     1     -10.176   8.456  71.019  1.00  0.00    -0.199 A  
HETATM   22  F   UNL     1      -9.684   7.851  72.108  1.00  0.00    -0.194 F  
HETATM   23  C   UNL     1     -10.083   7.922  69.750  1.00  0.00    -0.199 A  
HETATM   24  N   UNL     1     -10.536   8.609  68.676  1.00  0.00    -0.175 NA 
BRANCH  23  25
HETATM   25  C   UNL     1      -9.545   6.574  69.451  1.00  0.00    -0.149 A  
HETATM   26  C   UNL     1      -8.995   5.781  70.476  1.00  0.00    -0.152 A  
HETATM   27  C   UNL     1      -8.515   4.497  70.228  1.00  0.00    -0.074 A  
HETATM   28  C   UNL     1      -8.573   3.960  68.937  1.00  0.00    -0.084 A  
HETATM   29  F   UNL     1      -8.002   3.790  71.247  1.00  0.00    -0.058 F  
HETATM   30  N   UNL     1      -8.163   2.746  68.471  1.00  0.00    -0.063 NA 
HETATM   31  C   UNL     1      -8.423   2.730  67.183  1.00  0.00    -0.098 A  
HETATM   32  N   UNL     1      -9.015   3.916  66.780  1.00  0.00    -0.127 NA 
HETATM   33  C   UNL     1      -8.086   1.567  66.323  1.00  0.00    -0.076 C  
HETATM   34  C   UNL     1      -9.617   6.027  68.142  1.00  0.00    -0.122 A  
HETATM   35  C   UNL     1      -9.121   4.725  67.907  1.00  0.00    -0.116 A  
BRANCH  32  36
HETATM   36  C   UNL     1      -9.399   4.337  65.430  1.00  0.00    -0.164 C  
HETATM   37  C   UNL     1      -8.631   5.533  64.853  1.00  0.00    -0.111 C  
HETATM   38  C   UNL     1     -10.905   4.584  65.334  1.00  0.00    -0.096 C  
ENDBRANCH  32  36
ENDBRANCH  23  25
ENDBRANCH  16  18
ENDBRANCH  13  16
ENDBRANCH   9  10
ENDBRANCH   6   9
ENDBRANCH   2   3
TORSDOF 7
ENDMDL
MODEL       88
REMARK 921   NORMALIZED FREE ENERGY PREDICTED BY IDOCK:   -5.51 KCAL/MOL
REMARK 922        TOTAL FREE ENERGY PREDICTED BY IDOCK:   -8.63 KCAL/MOL
REMARK 923 INTER-LIGAND FREE ENERGY PREDICTED BY IDOCK:   -7.95 KCAL/MOL
REMARK 924 INTRA-LIGAND FREE ENERGY PREDICTED BY IDOCK:   -0.68 KCAL/MOL
REMARK 927      BINDING AFFINITY PREDICTED BY RF-SCORE:    0.00 PKD
ROOT
HETATM    1  C   UNL     1      -5.179  17.830  69.387  1.00  0.00    -0.182 C  
HETATM    2  C   UNL     1      -6.214  18.806  68.839  1.00  0.00    -0.234 C  
ENDROOT
BRANCH   2   3
HETATM    3  N   UNL     1      -6.954  18.307  67.668  1.00  0.00    -0.202 NA 
HETATM    4  C   UNL     1      -7.330  16.887  67.871  1.00  0.00    -0.167 C  
HETATM    5  C   UNL     1      -8.539  16.669  68.814  1.00  0.00    -0.261 C  
HETATM    6  N   UNL     1      -9.748  17.447  68.456  1.00  0.00    -0.291 NA 
HETATM    7  C   UNL     1      -8.163  19.095  67.350  1.00  0.00    -0.276 C  
HETATM    8  C   UNL     1      -9.354  18.867  68.312  1.00  0.00    -0.339 C  
BRANCH   6   9
HETATM    9  C   UNL     1     -10.377  16.968  67.209  1.00  0.00    -0.311 C  
BRANCH   9  10
HETATM   10  C   UNL     1     -10.775  15.520  67.259  1.00  0.00    -0.308 A  
HETATM   11  C   UNL     1     -10.184  14.584  66.417  1.00  0.00    -0.293 A  
HETATM   12  C   UNL     1     -10.596  13.261  66.487  1.00  0.00    -0.289 A  
HETATM   13  C   UNL     1     -11.594  12.889  67.390  1.00  0.00    -0.360 A  
HETATM   14  N   UNL     1     -12.160  13.779  68.231  1.00  0.00    -0.343 NA 
HETATM   15  C   UNL     1     -11.749  15.065  68.141  1.00  0.00    -0.312 A  
BRANCH  13  16
HETATM   16  N   UNL     1     -11.988  11.561  67.507  1.00  0.00    -0.622 NA 
HETATM   17  H   UNL     1     -12.708  11.236  66.860  1.00  0.00     0.000 HD 
BRANCH  16  18
HETATM   18  C   UNL     1     -11.499  10.635  68.415  1.00  0.00    -0.259 A  
HETATM   19  N   UNL     1     -11.757  10.855  69.712  1.00  0.00    -0.307 NA 
HETATM   20  C   UNL     1     -11.210   9.998  70.594  1.00  0.00    -0.350 A  
HETATM   21  C   UNL     1     -10.491   8.887  70.223  1.00  0.00    -0.210 A  
HETATM   22  F   UNL     1      -9.992   8.067  71.157  1.00  0.00    -0.175 F  
HETATM   23  C   UNL     1     -10.325   8.681  68.869  1.00  0.00    -0.211 A  
HETATM   24  N   UNL     1     -10.792   9.579  67.970  1.00  0.00    -0.209 NA 
BRANCH  23  25
HETATM   25  C   UNL     1      -9.688   7.479  68.282  1.00  0.00    -0.163 A  
HETATM   26  C   UNL     1      -9.633   7.310  66.886  1.00  0.00    -0.225 A  
HETATM   27  C   UNL     1      -9.007   6.206  66.308  1.00  0.00    -0.154 A  
HETATM   28  C   UNL     1      -8.412   5.231  67.116  1.00  0.00    -0.106 A  
HETATM   29  F   UNL     1      -8.987   6.101  64.970  1.00  0.00    -0.081 F  
HETATM   30  N   UNL     1      -7.761   4.083  66.771  1.00  0.00    -0.088 NA 
HETATM   31  C   UNL     1      -7.401   3.504  67.895  1.00  0.00    -0.058 A  
HETATM   32  N   UNL     1      -7.792   4.256  68.991  1.00  0.00    -0.061 NA 
HETATM   33  C   UNL     1      -6.684   2.203  67.919  1.00  0.00    -0.035 C  
HETATM   34  C   UNL     1      -9.073   6.497  69.104  1.00  0.00    -0.136 A  
HETATM   35  C   UNL     1      -8.448   5.382  68.502  1.00  0.00    -0.096 A  
BRANCH  32  36
HETATM   36  C   UNL     1      -7.653   3.943  70.415  1.00  0.00    -0.044 C  
HETATM   37  C   UNL     1      -8.955   3.878  71.222  1.00  0.00    -0.161 C  
HETATM   38  C   UNL     1      -6.661   4.887  71.095  1.00  0.00    -0.031 C  
ENDBRANCH  32  36
ENDBRANCH  23  25
ENDBRANCH  16  18
ENDBRANCH  13  16
ENDBRANCH   9  10
ENDBRANCH   6   9
ENDBRANCH   2   3
TORSDOF 7
ENDMDL
MODEL       89
REMARK 921   NORMALIZED FREE ENERGY PREDICTED BY IDOCK:   -5.48 KCAL/MOL
REMARK 922        TOTAL FREE ENERGY PREDICTED BY IDOCK:   -8.59 KCAL/MOL
REMARK 923 INTER-LIGAND FREE ENERGY PREDICTED BY IDOCK:   -7.82 KCAL/MOL
REMARK 924 INTRA-LIGAND FREE ENERGY PREDICTED BY IDOCK:   -0.77 KCAL/MOL
REMARK 927      BINDING AFFINITY PREDICTED BY RF-SCORE:    0.00 PKD
ROOT
HETATM    1  C   UNL     1     -12.435  15.896  74.216  1.00  0.00    -0.773 C  
HETATM    2  C   UNL     1     -12.577  14.856  73.111  1.00  0.00    -0.452 C  
ENDROOT
BRANCH   2   3
HETATM    3  N   UNL     1     -13.013  15.405  71.816  1.00  0.00    -0.396 NA 
HETATM    4  C   UNL     1     -11.924  16.209  71.212  1.00  0.00    -0.353 C  
HETATM    5  C   UNL     1     -10.794  15.375  70.556  1.00  0.00    -0.300 C  
HETATM    6  N   UNL     1     -11.262  14.371  69.573  1.00  0.00    -0.257 NA 
HETATM    7  C   UNL     1     -13.455  14.375  70.854  1.00  0.00    -0.174 C  
HETATM    8  C   UNL     1     -12.310  13.549  70.219  1.00  0.00    -0.300 C  
BRANCH   6   9
HETATM    9  C   UNL     1     -11.793  14.992  68.343  1.00  0.00    -0.270 C  
BRANCH   9  10
HETATM   10  C   UNL     1     -11.496  14.203  67.099  1.00  0.00    -0.373 A  
HETATM   11  C   UNL     1     -12.509  13.557  66.398  1.00  0.00    -0.349 A  
HETATM   12  C   UNL     1     -12.184  12.826  65.265  1.00  0.00    -0.535 A  
HETATM   13  C   UNL     1     -10.853  12.743  64.848  1.00  0.00    -0.299 A  
HETATM   14  N   UNL     1      -9.862  13.383  65.502  1.00  0.00    -0.194 NA 
HETATM   15  C   UNL     1     -10.200  14.084  66.608  1.00  0.00    -0.275 A  
BRANCH  13  16
HETATM   16  N   UNL     1     -10.514  12.053  63.690  1.00  0.00    -0.413 NA 
HETATM   17  H   UNL     1     -10.874  12.425  62.811  1.00  0.00     0.000 HD 
BRANCH  16  18
HETATM   18  C   UNL     1      -9.734  10.910  63.613  1.00  0.00    -0.329 A  
HETATM   19  N   UNL     1      -9.595  10.344  62.405  1.00  0.00    -0.218 NA 
HETATM   20  C   UNL     1      -8.904   9.190  62.351  1.00  0.00    -0.204 A  
HETATM   21  C   UNL     1      -8.280   8.631  63.440  1.00  0.00    -0.155 A  
HETATM   22  F   UNL     1      -7.594   7.488  63.306  1.00  0.00    -0.088 F  
HETATM   23  C   UNL     1      -8.403   9.303  64.638  1.00  0.00    -0.161 A  
HETATM   24  N   UNL     1      -9.165  10.417  64.730  1.00  0.00    -0.209 NA 
BRANCH  23  25
HETATM   25  C   UNL     1      -7.701   8.919  65.885  1.00  0.00    -0.098 A  
HETATM   26  C   UNL     1      -7.269   9.902  66.794  1.00  0.00    -0.091 A  
HETATM   27  C   UNL     1      -6.639   9.565  67.990  1.00  0.00    -0.062 A  
HETATM   28  C   UNL     1      -6.421   8.222  68.317  1.00  0.00    -0.059 A  
HETATM   29  F   UNL     1      -6.250  10.549  68.816  1.00  0.00    -0.046 F  
HETATM   30  N   UNL     1      -5.827   7.670  69.414  1.00  0.00    -0.026 NA 
HETATM   31  C   UNL     1      -5.855   6.368  69.242  1.00  0.00    -0.021 A  
HETATM   32  N   UNL     1      -6.473   6.037  68.046  1.00  0.00    -0.047 NA 
HETATM   33  C   UNL     1      -5.269   5.427  70.230  1.00  0.00    -0.004 C  
HETATM   34  C   UNL     1      -7.493   7.554  66.221  1.00  0.00    -0.083 A  
HETATM   35  C   UNL     1      -6.848   7.230  67.435  1.00  0.00    -0.077 A  
BRANCH  32  36
HETATM   36  C   UNL     1      -6.651   4.715  67.441  1.00  0.00    -0.047 C  
HETATM   37  C   UNL     1      -7.692   3.804  68.103  1.00  0.00    -0.065 C  
HETATM   38  C   UNL     1      -5.316   3.980  67.313  1.00  0.00    -0.012 C  
ENDBRANCH  32  36
ENDBRANCH  23  25
ENDBRANCH  16  18
ENDBRANCH  13  16
ENDBRANCH   9  10
ENDBRANCH   6   9
ENDBRANCH   2   3
TORSDOF 7
ENDMDL
MODEL       90
REMARK 921   NORMALIZED FREE ENERGY PREDICTED BY IDOCK:   -5.47 KCAL/MOL
REMARK 922        TOTAL FREE ENERGY PREDICTED BY IDOCK:   -8.58 KCAL/MOL
REMARK 923 INTER-LIGAND FREE ENERGY PREDICTED BY IDOCK:   -7.67 KCAL/MOL
REMARK 924 INTRA-LIGAND FREE ENERGY PREDICTED BY IDOCK:   -0.91 KCAL/MOL
REMARK 927      BINDING AFFINITY PREDICTED BY RF-SCORE:    0.00 PKD
ROOT
HETATM    1  C   UNL     1     -10.543   6.654  67.260  1.00  0.00    -0.387 C  
HETATM    2  C   UNL     1      -9.634   7.838  66.954  1.00  0.00    -0.198 C  
ENDROOT
BRANCH   2   3
HETATM    3  N   UNL     1      -8.606   8.092  67.978  1.00  0.00    -0.129 NA 
HETATM    4  C   UNL     1      -7.259   8.077  67.360  1.00  0.00    -0.088 C  
HETATM    5  C   UNL     1      -6.894   9.362  66.575  1.00  0.00    -0.083 C  
HETATM    6  N   UNL     1      -7.065  10.619  67.340  1.00  0.00    -0.088 NA 
HETATM    7  C   UNL     1      -8.798   9.362  68.708  1.00  0.00    -0.132 C  
HETATM    8  C   UNL     1      -8.436  10.632  67.901  1.00  0.00    -0.120 C  
BRANCH   6   9
HETATM    9  C   UNL     1      -6.074  10.758  68.426  1.00  0.00    -0.046 C  
BRANCH   9  10
HETATM   10  C   UNL     1      -5.840  12.183  68.842  1.00  0.00    -0.061 A  
HETATM   11  C   UNL     1      -5.360  13.126  67.940  1.00  0.00    -0.112 A  
HETATM   12  C   UNL     1      -5.144  14.425  68.375  1.00  0.00    -0.105 A  
HETATM   13  C   UNL     1      -5.403  14.767  69.704  1.00  0.00    -0.092 A  
HETATM   14  N   UNL     1      -5.893  13.871  70.586  1.00  0.00    -0.183 NA 
HETATM   15  C   UNL     1      -6.090  12.608  70.143  1.00  0.00    -0.093 A  
BRANCH  13  16
HETATM   16  N   UNL     1      -5.235  16.074  70.148  1.00  0.00    -0.142 NA 
HETATM   17  H   UNL     1      -4.511  16.232  70.849  1.00  0.00     0.000 HD 
BRANCH  16  18
HETATM   18  C   UNL     1      -5.955  17.182  69.730  1.00  0.00    -0.237 A  
HETATM   19  N   UNL     1      -5.558  18.378  70.188  1.00  0.00    -0.239 NA 
HETATM   20  C   UNL     1      -6.311  19.440  69.844  1.00  0.00    -0.249 A  
HETATM   21  C   UNL     1      -7.388  19.360  68.995  1.00  0.00    -0.360 A  
HETATM   22  F   UNL     1      -8.080  20.465  68.684  1.00  0.00    -0.098 F  
HETATM   23  C   UNL     1      -7.699  18.109  68.503  1.00  0.00    -0.297 A  
HETATM   24  N   UNL     1      -7.008  17.017  68.906  1.00  0.00    -0.208 NA 
BRANCH  23  25
HETATM   25  C   UNL     1      -8.745  17.851  67.486  1.00  0.00    -0.243 A  
HETATM   26  C   UNL     1      -9.358  18.918  66.806  1.00  0.00    -0.343 A  
HETATM   27  C   UNL     1     -10.318  18.700  65.819  1.00  0.00    -0.198 A  
HETATM   28  C   UNL     1     -10.695  17.396  65.480  1.00  0.00    -0.078 A  
HETATM   29  F   UNL     1     -10.867  19.760  65.205  1.00  0.00    -0.576 F  
HETATM   30  N   UNL     1     -11.605  16.955  64.564  1.00  0.00    -0.697 NA 
HETATM   31  C   UNL     1     -11.604  15.643  64.635  1.00  0.00    -0.249 A  
HETATM   32  N   UNL     1     -10.694  15.196  65.580  1.00  0.00    -0.340 NA 
HETATM   33  C   UNL     1     -12.498  14.805  63.795  1.00  0.00     0.340 C  
HETATM   34  C   UNL     1      -9.116  16.525  67.135  1.00  0.00    -0.227 A  
HETATM   35  C   UNL     1     -10.095  16.322  66.136  1.00  0.00    -0.344 A  
BRANCH  32  36
HETATM   36  C   UNL     1     -10.428  13.824  66.021  1.00  0.00    -0.297 C  
HETATM   37  C   UNL     1     -10.395  12.756  64.921  1.00  0.00    -0.330 C  
HETATM   38  C   UNL     1     -11.391  13.404  67.132  1.00  0.00    -0.344 C  
ENDBRANCH  32  36
ENDBRANCH  23  25
ENDBRANCH  16  18
ENDBRANCH  13  16
ENDBRANCH   9  10
ENDBRANCH   6   9
ENDBRANCH   2   3
TORSDOF 7
ENDMDL
MODEL       91
REMARK 921   NORMALIZED FREE ENERGY PREDICTED BY IDOCK:   -5.45 KCAL/MOL
REMARK 922        TOTAL FREE ENERGY PREDICTED BY IDOCK:   -8.55 KCAL/MOL
REMARK 923 INTER-LIGAND FREE ENERGY PREDICTED BY IDOCK:   -7.85 KCAL/MOL
REMARK 924 INTRA-LIGAND FREE ENERGY PREDICTED BY IDOCK:   -0.70 KCAL/MOL
REMARK 927      BINDING AFFINITY PREDICTED BY RF-SCORE:    0.00 PKD
ROOT
HETATM    1  C   UNL     1     -11.183   2.032  73.953  1.00  0.00    -0.260 C  
HETATM    2  C   UNL     1     -10.318   2.601  72.835  1.00  0.00    -0.154 C  
ENDROOT
BRANCH   2   3
HETATM    3  N   UNL     1      -9.742   3.924  73.129  1.00  0.00    -0.120 NA 
HETATM    4  C   UNL     1      -9.243   4.550  71.881  1.00  0.00    -0.136 C  
HETATM    5  C   UNL     1     -10.347   5.155  70.977  1.00  0.00    -0.208 C  
HETATM    6  N   UNL     1     -11.259   6.098  71.666  1.00  0.00    -0.279 NA 
HETATM    7  C   UNL     1     -10.683   4.844  73.799  1.00  0.00    -0.301 C  
HETATM    8  C   UNL     1     -11.782   5.428  72.878  1.00  0.00    -0.162 C  
BRANCH   6   9
HETATM    9  C   UNL     1     -10.588   7.360  72.036  1.00  0.00    -0.208 C  
BRANCH   9  10
HETATM   10  C   UNL     1      -9.966   8.071  70.868  1.00  0.00    -0.207 A  
HETATM   11  C   UNL     1      -8.612   8.387  70.856  1.00  0.00    -0.167 A  
HETATM   12  C   UNL     1      -8.086   9.059  69.762  1.00  0.00    -0.109 A  
HETATM   13  C   UNL     1      -8.917   9.413  68.697  1.00  0.00    -0.132 A  
HETATM   14  N   UNL     1     -10.227   9.092  68.681  1.00  0.00    -0.199 NA 
HETATM   15  C   UNL     1     -10.721   8.443  69.760  1.00  0.00    -0.211 A  
BRANCH  13  16
HETATM   16  N   UNL     1      -8.400  10.046  67.573  1.00  0.00    -0.118 NA 
HETATM   17  H   UNL     1      -8.557   9.589  66.675  1.00  0.00     0.000 HD 
BRANCH  16  18
HETATM   18  C   UNL     1      -7.691  11.237  67.553  1.00  0.00    -0.122 A  
HETATM   19  N   UNL     1      -6.363  11.156  67.391  1.00  0.00    -0.061 NA 
HETATM   20  C   UNL     1      -5.672  12.310  67.455  1.00  0.00    -0.139 A  
HETATM   21  C   UNL     1      -6.267  13.541  67.587  1.00  0.00    -0.130 A  
HETATM   22  F   UNL     1      -5.515  14.649  67.625  1.00  0.00    -0.122 F  
HETATM   23  C   UNL     1      -7.644  13.558  67.676  1.00  0.00    -0.177 A  
HETATM   24  N   UNL     1      -8.349  12.403  67.703  1.00  0.00    -0.157 NA 
BRANCH  23  25
HETATM   25  C   UNL     1      -8.461  14.793  67.700  1.00  0.00    -0.185 A  
HETATM   26  C   UNL     1      -9.837  14.734  67.993  1.00  0.00    -0.218 A  
HETATM   27  C   UNL     1     -10.620  15.885  68.058  1.00  0.00    -0.287 A  
HETATM   28  C   UNL     1     -10.046  17.140  67.831  1.00  0.00    -0.308 A  
HETATM   29  F   UNL     1     -11.926  15.763  68.342  1.00  0.00    -0.363 F  
HETATM   30  N   UNL     1     -10.616  18.380  67.836  1.00  0.00    -0.384 NA 
HETATM   31  C   UNL     1      -9.659  19.234  67.552  1.00  0.00    -0.313 A  
HETATM   32  N   UNL     1      -8.449  18.584  67.367  1.00  0.00    -0.255 NA 
HETATM   33  C   UNL     1      -9.910  20.694  67.441  1.00  0.00    -0.527 C  
HETATM   34  C   UNL     1      -7.873  16.068  67.483  1.00  0.00    -0.170 A  
HETATM   35  C   UNL     1      -8.684  17.224  67.547  1.00  0.00    -0.210 A  
BRANCH  32  36
HETATM   36  C   UNL     1      -7.156  19.147  66.971  1.00  0.00    -0.203 C  
HETATM   37  C   UNL     1      -6.456  18.464  65.790  1.00  0.00    -0.305 C  
HETATM   38  C   UNL     1      -6.204  19.240  68.164  1.00  0.00    -0.238 C  
ENDBRANCH  32  36
ENDBRANCH  23  25
ENDBRANCH  16  18
ENDBRANCH  13  16
ENDBRANCH   9  10
ENDBRANCH   6   9
ENDBRANCH   2   3
TORSDOF 7
ENDMDL
MODEL       92
REMARK 921   NORMALIZED FREE ENERGY PREDICTED BY IDOCK:   -5.44 KCAL/MOL
REMARK 922        TOTAL FREE ENERGY PREDICTED BY IDOCK:   -8.53 KCAL/MOL
REMARK 923 INTER-LIGAND FREE ENERGY PREDICTED BY IDOCK:   -7.58 KCAL/MOL
REMARK 924 INTRA-LIGAND FREE ENERGY PREDICTED BY IDOCK:   -0.95 KCAL/MOL
REMARK 927      BINDING AFFINITY PREDICTED BY RF-SCORE:    0.00 PKD
ROOT
HETATM    1  C   UNL     1      -9.667   4.870  66.684  1.00  0.00    -0.197 C  
HETATM    2  C   UNL     1      -9.006   6.241  66.611  1.00  0.00    -0.135 C  
ENDROOT
BRANCH   2   3
HETATM    3  N   UNL     1      -8.088   6.530  67.725  1.00  0.00    -0.114 NA 
HETATM    4  C   UNL     1      -6.710   6.717  67.212  1.00  0.00    -0.067 C  
HETATM    5  C   UNL     1      -6.450   8.094  66.550  1.00  0.00    -0.055 C  
HETATM    6  N   UNL     1      -6.822   9.259  67.386  1.00  0.00    -0.076 NA 
HETATM    7  C   UNL     1      -8.479   7.708  68.526  1.00  0.00    -0.129 C  
HETATM    8  C   UNL     1      -8.218   9.071  67.840  1.00  0.00    -0.110 C  
BRANCH   6   9
HETATM    9  C   UNL     1      -5.929   9.425  68.551  1.00  0.00    -0.044 C  
BRANCH   9  10
HETATM   10  C   UNL     1      -5.759  10.857  68.974  1.00  0.00    -0.040 A  
HETATM   11  C   UNL     1      -5.338  11.827  68.071  1.00  0.00    -0.047 A  
HETATM   12  C   UNL     1      -5.179  13.133  68.513  1.00  0.00    -0.070 A  
HETATM   13  C   UNL     1      -5.436  13.453  69.847  1.00  0.00    -0.099 A  
HETATM   14  N   UNL     1      -5.869  12.529  70.729  1.00  0.00    -0.290 NA 
HETATM   15  C   UNL     1      -6.011  11.261  70.281  1.00  0.00    -0.154 A  
BRANCH  13  16
HETATM   16  N   UNL     1      -5.326  14.764  70.297  1.00  0.00    -0.109 NA 
HETATM   17  H   UNL     1      -4.666  14.936  71.056  1.00  0.00     0.000 HD 
BRANCH  16  18
HETATM   18  C   UNL     1      -6.024  15.859  69.816  1.00  0.00    -0.163 A  
HETATM   19  N   UNL     1      -5.609  17.072  70.211  1.00  0.00    -0.224 NA 
HETATM   20  C   UNL     1      -6.342  18.126  69.805  1.00  0.00    -0.120 A  
HETATM   21  C   UNL     1      -7.415  18.019  68.954  1.00  0.00    -0.227 A  
HETATM   22  F   UNL     1      -8.086  19.116  68.578  1.00  0.00    -0.333 F  
HETATM   23  C   UNL     1      -7.744  16.748  68.528  1.00  0.00    -0.223 A  
HETATM   24  N   UNL     1      -7.075  15.668  68.994  1.00  0.00    -0.139 NA 
BRANCH  23  25
HETATM   25  C   UNL     1      -8.788  16.452  67.519  1.00  0.00    -0.187 A  
HETATM   26  C   UNL     1      -9.463  17.498  66.862  1.00  0.00    -0.278 A  
HETATM   27  C   UNL     1     -10.422  17.246  65.883  1.00  0.00    -0.262 A  
HETATM   28  C   UNL     1     -10.737  15.930  65.528  1.00  0.00    -0.372 A  
HETATM   29  F   UNL     1     -11.031  18.286  65.292  1.00  0.00    -0.449 F  
HETATM   30  N   UNL     1     -11.634  15.457  64.616  1.00  0.00    -0.369 NA 
HETATM   31  C   UNL     1     -11.566  14.145  64.666  1.00  0.00    -0.406 A  
HETATM   32  N   UNL     1     -10.623  13.731  65.593  1.00  0.00    -0.290 NA 
HETATM   33  C   UNL     1     -12.427  13.276  63.823  1.00  0.00    -0.339 C  
HETATM   34  C   UNL     1      -9.096  15.115  67.151  1.00  0.00    -0.226 A  
HETATM   35  C   UNL     1     -10.075  14.878  66.160  1.00  0.00    -0.298 A  
BRANCH  32  36
HETATM   36  C   UNL     1     -10.284  12.368  66.010  1.00  0.00    -0.245 C  
HETATM   37  C   UNL     1      -9.930  11.387  64.885  1.00  0.00    -0.311 C  
HETATM   38  C   UNL     1     -11.375  11.774  66.901  1.00  0.00    -0.386 C  
ENDBRANCH  32  36
ENDBRANCH  23  25
ENDBRANCH  16  18
ENDBRANCH  13  16
ENDBRANCH   9  10
ENDBRANCH   6   9
ENDBRANCH   2   3
TORSDOF 7
ENDMDL
MODEL       93
REMARK 921   NORMALIZED FREE ENERGY PREDICTED BY IDOCK:   -5.42 KCAL/MOL
REMARK 922        TOTAL FREE ENERGY PREDICTED BY IDOCK:   -8.51 KCAL/MOL
REMARK 923 INTER-LIGAND FREE ENERGY PREDICTED BY IDOCK:   -9.47 KCAL/MOL
REMARK 924 INTRA-LIGAND FREE ENERGY PREDICTED BY IDOCK:    0.95 KCAL/MOL
REMARK 927      BINDING AFFINITY PREDICTED BY RF-SCORE:    0.00 PKD
ROOT
HETATM    1  C   UNL     1      -9.059  10.053  62.355  1.00  0.00    -0.310 C  
HETATM    2  C   UNL     1      -9.017  11.042  63.515  1.00  0.00    -0.108 C  
ENDROOT
BRANCH   2   3
HETATM    3  N   UNL     1     -10.312  11.243  64.185  1.00  0.00    -0.322 NA 
HETATM    4  C   UNL     1     -10.139  11.176  65.656  1.00  0.00    -0.253 C  
HETATM    5  C   UNL     1      -9.533  12.452  66.293  1.00  0.00    -0.220 C  
HETATM    6  N   UNL     1     -10.234  13.709  65.941  1.00  0.00    -0.304 NA 
HETATM    7  C   UNL     1     -10.975  12.514  63.826  1.00  0.00    -0.447 C  
HETATM    8  C   UNL     1     -10.345  13.774  64.466  1.00  0.00    -0.285 C  
BRANCH   6   9
HETATM    9  C   UNL     1     -11.575  13.796  66.553  1.00  0.00    -0.365 C  
BRANCH   9  10
HETATM   10  C   UNL     1     -11.707  12.996  67.818  1.00  0.00    -0.405 A  
HETATM   11  C   UNL     1     -11.843  11.613  67.783  1.00  0.00    -0.247 A  
HETATM   12  C   UNL     1     -11.979  10.919  68.976  1.00  0.00    -0.322 A  
HETATM   13  C   UNL     1     -11.984  11.612  70.189  1.00  0.00    -0.359 A  
HETATM   14  N   UNL     1     -11.828  12.951  70.242  1.00  0.00    -0.271 NA 
HETATM   15  C   UNL     1     -11.704  13.609  69.067  1.00  0.00    -0.333 A  
BRANCH  13  16
HETATM   16  N   UNL     1     -12.074  10.930  71.397  1.00  0.00    -0.224 NA 
HETATM   17  H   UNL     1     -11.736  11.419  72.227  1.00  0.00     0.000 HD 
BRANCH  16  18
HETATM   18  C   UNL     1     -12.576   9.653  71.584  1.00  0.00    -0.402 A  
HETATM   19  N   UNL     1     -13.870   9.547  71.922  1.00  0.00    -0.308 NA 
HETATM   20  C   UNL     1     -14.330   8.309  72.182  1.00  0.00    -0.404 A  
HETATM   21  C   UNL     1     -13.572   7.173  72.033  1.00  0.00    -0.087 A  
HETATM   22  F   UNL     1     -14.104   5.972  72.293  1.00  0.00    -0.221 F  
HETATM   23  C   UNL     1     -12.270   7.348  71.612  1.00  0.00    -0.330 A  
HETATM   24  N   UNL     1     -11.763   8.590  71.431  1.00  0.00    -0.283 NA 
BRANCH  23  25
HETATM   25  C   UNL     1     -11.345   6.239  71.280  1.00  0.00    -0.356 A  
HETATM   26  C   UNL     1     -10.807   5.429  72.298  1.00  0.00    -0.286 A  
HETATM   27  C   UNL     1      -9.965   4.357  72.009  1.00  0.00    -0.185 A  
HETATM   28  C   UNL     1      -9.634   4.059  70.683  1.00  0.00    -0.190 A  
HETATM   29  F   UNL     1      -9.483   3.622  73.024  1.00  0.00    -0.117 F  
HETATM   30  N   UNL     1      -8.834   3.076  70.177  1.00  0.00    -0.076 NA 
HETATM   31  C   UNL     1      -8.834   3.228  68.871  1.00  0.00    -0.114 A  
HETATM   32  N   UNL     1      -9.634   4.294  68.493  1.00  0.00    -0.153 NA 
HETATM   33  C   UNL     1      -8.044   2.346  67.974  1.00  0.00    -0.067 C  
HETATM   34  C   UNL     1     -11.022   5.930  69.932  1.00  0.00    -0.444 A  
HETATM   35  C   UNL     1     -10.162   4.843  69.658  1.00  0.00    -0.195 A  
BRANCH  32  36
HETATM   36  C   UNL     1      -9.855   4.845  67.154  1.00  0.00    -0.190 C  
HETATM   37  C   UNL     1      -9.670   3.871  65.984  1.00  0.00    -0.172 C  
HETATM   38  C   UNL     1      -9.015   6.103  66.928  1.00  0.00    -0.118 C  
ENDBRANCH  32  36
ENDBRANCH  23  25
ENDBRANCH  16  18
ENDBRANCH  13  16
ENDBRANCH   9  10
ENDBRANCH   6   9
ENDBRANCH   2   3
TORSDOF 7
ENDMDL
MODEL       94
REMARK 921   NORMALIZED FREE ENERGY PREDICTED BY IDOCK:   -5.41 KCAL/MOL
REMARK 922        TOTAL FREE ENERGY PREDICTED BY IDOCK:   -8.50 KCAL/MOL
REMARK 923 INTER-LIGAND FREE ENERGY PREDICTED BY IDOCK:   -7.66 KCAL/MOL
REMARK 924 INTRA-LIGAND FREE ENERGY PREDICTED BY IDOCK:   -0.84 KCAL/MOL
REMARK 927      BINDING AFFINITY PREDICTED BY RF-SCORE:    0.00 PKD
ROOT
HETATM    1  C   UNL     1     -11.132  16.438  64.931  1.00  0.00    -0.249 C  
HETATM    2  C   UNL     1     -10.302  15.348  65.600  1.00  0.00    -0.372 C  
ENDROOT
BRANCH   2   3
HETATM    3  N   UNL     1     -10.965  14.035  65.663  1.00  0.00    -0.295 NA 
HETATM    4  C   UNL     1     -10.055  13.035  66.269  1.00  0.00    -0.282 C  
HETATM    5  C   UNL     1      -9.934  13.124  67.811  1.00  0.00    -0.227 C  
HETATM    6  N   UNL     1     -11.228  13.107  68.532  1.00  0.00    -0.255 NA 
HETATM    7  C   UNL     1     -12.242  14.051  66.404  1.00  0.00    -0.460 C  
HETATM    8  C   UNL     1     -12.096  14.151  67.941  1.00  0.00    -0.274 C  
BRANCH   6   9
HETATM    9  C   UNL     1     -11.897  11.792  68.459  1.00  0.00    -0.303 C  
BRANCH   9  10
HETATM   10  C   UNL     1     -11.449  10.835  69.527  1.00  0.00    -0.365 A  
HETATM   11  C   UNL     1     -10.262  10.122  69.402  1.00  0.00    -0.246 A  
HETATM   12  C   UNL     1      -9.899   9.237  70.407  1.00  0.00    -0.290 A  
HETATM   13  C   UNL     1     -10.726   9.068  71.519  1.00  0.00    -0.351 A  
HETATM   14  N   UNL     1     -11.868   9.770  71.668  1.00  0.00    -0.390 NA 
HETATM   15  C   UNL     1     -12.207  10.623  70.674  1.00  0.00    -0.365 A  
BRANCH  13  16
HETATM   16  N   UNL     1     -10.357   8.220  72.557  1.00  0.00    -0.326 NA 
HETATM   17  H   UNL     1     -10.027   8.660  73.416  1.00  0.00     0.000 HD 
BRANCH  16  18
HETATM   18  C   UNL     1     -10.395   6.835  72.539  1.00  0.00    -0.198 A  
HETATM   19  N   UNL     1     -11.193   6.232  73.432  1.00  0.00    -0.037 NA 
HETATM   20  C   UNL     1     -11.162   4.887  73.463  1.00  0.00    -0.298 A  
HETATM   21  C   UNL     1     -10.432   4.126  72.582  1.00  0.00    -0.155 A  
HETATM   22  F   UNL     1     -10.465   2.789  72.662  1.00  0.00    -0.215 F  
HETATM   23  C   UNL     1      -9.689   4.809  71.641  1.00  0.00    -0.169 A  
HETATM   24  N   UNL     1      -9.639   6.162  71.650  1.00  0.00    -0.152 NA 
BRANCH  23  25
HETATM   25  C   UNL     1      -8.942   4.160  70.539  1.00  0.00    -0.154 A  
HETATM   26  C   UNL     1      -7.994   3.156  70.813  1.00  0.00    -0.054 A  
HETATM   27  C   UNL     1      -7.304   2.505  69.792  1.00  0.00    -0.043 A  
HETATM   28  C   UNL     1      -7.544   2.840  68.455  1.00  0.00    -0.048 A  
HETATM   29  F   UNL     1      -6.413   1.556  70.117  1.00  0.00    -0.023 F  
HETATM   30  N   UNL     1      -6.988   2.346  67.312  1.00  0.00    -0.044 NA 
HETATM   31  C   UNL     1      -7.538   2.999  66.313  1.00  0.00    -0.077 A  
HETATM   32  N   UNL     1      -8.468   3.919  66.771  1.00  0.00    -0.103 NA 
HETATM   33  C   UNL     1      -7.157   2.747  64.899  1.00  0.00    -0.053 C  
HETATM   34  C   UNL     1      -9.197   4.493  69.182  1.00  0.00    -0.194 A  
HETATM   35  C   UNL     1      -8.484   3.827  68.160  1.00  0.00    -0.093 A  
BRANCH  32  36
HETATM   36  C   UNL     1      -9.250   4.892  66.004  1.00  0.00    -0.151 C  
HETATM   37  C   UNL     1     -10.316   4.312  65.067  1.00  0.00    -0.203 C  
HETATM   38  C   UNL     1      -8.339   5.850  65.235  1.00  0.00    -0.146 C  
ENDBRANCH  32  36
ENDBRANCH  23  25
ENDBRANCH  16  18
ENDBRANCH  13  16
ENDBRANCH   9  10
ENDBRANCH   6   9
ENDBRANCH   2   3
TORSDOF 7
ENDMDL
MODEL       95
REMARK 921   NORMALIZED FREE ENERGY PREDICTED BY IDOCK:   -5.39 KCAL/MOL
REMARK 922        TOTAL FREE ENERGY PREDICTED BY IDOCK:   -8.47 KCAL/MOL
REMARK 923 INTER-LIGAND FREE ENERGY PREDICTED BY IDOCK:   -7.81 KCAL/MOL
REMARK 924 INTRA-LIGAND FREE ENERGY PREDICTED BY IDOCK:   -0.65 KCAL/MOL
REMARK 927      BINDING AFFINITY PREDICTED BY RF-SCORE:    0.00 PKD
ROOT
HETATM    1  C   UNL     1     -12.151  14.085  66.939  1.00  0.00    -0.465 C  
HETATM    2  C   UNL     1     -11.929  13.450  65.571  1.00  0.00    -0.398 C  
ENDROOT
BRANCH   2   3
HETATM    3  N   UNL     1     -10.515  13.215  65.236  1.00  0.00    -0.298 NA 
HETATM    4  C   UNL     1      -9.935  12.205  66.153  1.00  0.00    -0.233 C  
HETATM    5  C   UNL     1     -10.327  10.741  65.830  1.00  0.00    -0.238 C  
HETATM    6  N   UNL     1     -10.072  10.330  64.430  1.00  0.00    -0.281 NA 
HETATM    7  C   UNL     1     -10.299  12.790  63.838  1.00  0.00    -0.324 C  
HETATM    8  C   UNL     1     -10.706  11.327  63.537  1.00  0.00    -0.335 C  
BRANCH   6   9
HETATM    9  C   UNL     1      -8.631  10.224  64.127  1.00  0.00    -0.192 C  
BRANCH   9  10
HETATM   10  C   UNL     1      -7.914   9.214  64.977  1.00  0.00    -0.120 A  
HETATM   11  C   UNL     1      -7.002   9.611  65.949  1.00  0.00    -0.097 A  
HETATM   12  C   UNL     1      -6.352   8.641  66.698  1.00  0.00    -0.059 A  
HETATM   13  C   UNL     1      -6.615   7.289  66.466  1.00  0.00    -0.056 A  
HETATM   14  N   UNL     1      -7.515   6.888  65.546  1.00  0.00    -0.082 NA 
HETATM   15  C   UNL     1      -8.132   7.849  64.821  1.00  0.00    -0.141 A  
BRANCH  13  16
HETATM   16  N   UNL     1      -6.008   6.305  67.237  1.00  0.00    -0.017 NA 
HETATM   17  H   UNL     1      -5.052   6.050  66.988  1.00  0.00     0.000 HD 
BRANCH  16  18
HETATM   18  C   UNL     1      -6.574   5.637  68.311  1.00  0.00    -0.049 A  
HETATM   19  N   UNL     1      -5.938   4.543  68.756  1.00  0.00    -0.025 NA 
HETATM   20  C   UNL     1      -6.536   3.853  69.745  1.00  0.00    -0.033 A  
HETATM   21  C   UNL     1      -7.694   4.263  70.360  1.00  0.00    -0.049 A  
HETATM   22  F   UNL     1      -8.222   3.534  71.352  1.00  0.00    -0.058 F  
HETATM   23  C   UNL     1      -8.257   5.436  69.902  1.00  0.00    -0.096 A  
HETATM   24  N   UNL     1      -7.719   6.097  68.851  1.00  0.00    -0.091 NA 
BRANCH  23  25
HETATM   25  C   UNL     1      -9.432   6.093  70.522  1.00  0.00    -0.182 A  
HETATM   26  C   UNL     1     -10.275   5.377  71.391  1.00  0.00    -0.279 A  
HETATM   27  C   UNL     1     -11.365   5.982  72.014  1.00  0.00    -0.290 A  
HETATM   28  C   UNL     1     -11.645   7.334  71.787  1.00  0.00    -0.275 A  
HETATM   29  F   UNL     1     -12.133   5.245  72.833  1.00  0.00    -0.359 F  
HETATM   30  N   UNL     1     -12.647   8.117  72.279  1.00  0.00    -0.302 NA 
HETATM   31  C   UNL     1     -12.483   9.311  71.753  1.00  0.00    -0.381 A  
HETATM   32  N   UNL     1     -11.374   9.342  70.923  1.00  0.00    -0.285 NA 
HETATM   33  C   UNL     1     -13.411  10.435  72.040  1.00  0.00    -0.440 C  
HETATM   34  C   UNL     1      -9.705   7.470  70.300  1.00  0.00    -0.179 A  
HETATM   35  C   UNL     1     -10.818   8.066  70.936  1.00  0.00    -0.230 A  
BRANCH  32  36
HETATM   36  C   UNL     1     -10.878  10.443  70.095  1.00  0.00    -0.271 C  
HETATM   37  C   UNL     1     -11.832  10.951  69.007  1.00  0.00    -0.370 C  
HETATM   38  C   UNL     1      -9.517  10.108  69.485  1.00  0.00    -0.235 C  
ENDBRANCH  32  36
ENDBRANCH  23  25
ENDBRANCH  16  18
ENDBRANCH  13  16
ENDBRANCH   9  10
ENDBRANCH   6   9
ENDBRANCH   2   3
TORSDOF 7
ENDMDL
MODEL       96
REMARK 921   NORMALIZED FREE ENERGY PREDICTED BY IDOCK:   -5.37 KCAL/MOL
REMARK 922        TOTAL FREE ENERGY PREDICTED BY IDOCK:   -8.45 KCAL/MOL
REMARK 923 INTER-LIGAND FREE ENERGY PREDICTED BY IDOCK:   -7.64 KCAL/MOL
REMARK 924 INTRA-LIGAND FREE ENERGY PREDICTED BY IDOCK:   -0.81 KCAL/MOL
REMARK 927      BINDING AFFINITY PREDICTED BY RF-SCORE:    0.00 PKD
ROOT
HETATM    1  C   UNL     1     -14.410   6.876  72.434  1.00  0.00     0.040 C  
HETATM    2  C   UNL     1     -13.348   7.310  71.430  1.00  0.00    -0.331 C  
ENDROOT
BRANCH   2   3
HETATM    3  N   UNL     1     -11.964   7.125  71.895  1.00  0.00    -0.295 NA 
HETATM    4  C   UNL     1     -11.379   5.909  71.281  1.00  0.00    -0.168 C  
HETATM    5  C   UNL     1     -10.934   6.081  69.807  1.00  0.00    -0.401 C  
HETATM    6  N   UNL     1     -10.031   7.231  69.568  1.00  0.00    -0.167 NA 
HETATM    7  C   UNL     1     -11.087   8.282  71.625  1.00  0.00    -0.265 C  
HETATM    8  C   UNL     1     -10.663   8.439  70.144  1.00  0.00    -0.236 C  
BRANCH   6   9
HETATM    9  C   UNL     1      -8.693   7.030  70.160  1.00  0.00    -0.141 C  
BRANCH   9  10
HETATM   10  C   UNL     1      -7.795   8.227  70.028  1.00  0.00    -0.104 A  
HETATM   11  C   UNL     1      -7.146   8.510  68.830  1.00  0.00    -0.062 A  
HETATM   12  C   UNL     1      -6.313   9.618  68.761  1.00  0.00    -0.046 A  
HETATM   13  C   UNL     1      -6.133  10.425  69.886  1.00  0.00    -0.068 A  
HETATM   14  N   UNL     1      -6.774  10.180  71.047  1.00  0.00    -0.331 NA 
HETATM   15  C   UNL     1      -7.576   9.091  71.096  1.00  0.00    -0.102 A  
BRANCH  13  16
HETATM   16  N   UNL     1      -5.339  11.564  69.823  1.00  0.00    -0.063 NA 
HETATM   17  H   UNL     1      -4.329  11.421  69.818  1.00  0.00     0.000 HD 
BRANCH  16  18
HETATM   18  C   UNL     1      -5.785  12.875  69.767  1.00  0.00    -0.112 A  
HETATM   19  N   UNL     1      -5.170  13.765  70.559  1.00  0.00    -0.103 NA 
HETATM   20  C   UNL     1      -5.662  15.019  70.560  1.00  0.00    -0.138 A  
HETATM   21  C   UNL     1      -6.683  15.431  69.738  1.00  0.00    -0.170 A  
HETATM   22  F   UNL     1      -7.108  16.701  69.781  1.00  0.00    -0.208 F  
HETATM   23  C   UNL     1      -7.222  14.481  68.895  1.00  0.00    -0.125 A  
HETATM   24  N   UNL     1      -6.801  13.196  68.943  1.00  0.00    -0.102 NA 
BRANCH  23  25
HETATM   25  C   UNL     1      -8.240  14.769  67.858  1.00  0.00    -0.154 A  
HETATM   26  C   UNL     1      -8.498  16.094  67.460  1.00  0.00    -0.177 A  
HETATM   27  C   UNL     1      -9.424  16.389  66.461  1.00  0.00    -0.272 A  
HETATM   28  C   UNL     1     -10.126  15.359  65.825  1.00  0.00    -0.363 A  
HETATM   29  F   UNL     1      -9.626  17.673  66.125  1.00  0.00    -0.288 F  
HETATM   30  N   UNL     1     -11.069  15.417  64.841  1.00  0.00    -0.425 NA 
HETATM   31  C   UNL     1     -11.432  14.177  64.596  1.00  0.00    -0.387 A  
HETATM   32  N   UNL     1     -10.734  13.286  65.395  1.00  0.00    -0.290 NA 
HETATM   33  C   UNL     1     -12.473  13.843  63.591  1.00  0.00    -0.066 C  
HETATM   34  C   UNL     1      -8.941  13.721  67.204  1.00  0.00    -0.241 A  
HETATM   35  C   UNL     1      -9.880  14.038  66.198  1.00  0.00    -0.303 A  
BRANCH  32  36
HETATM   36  C   UNL     1     -10.880  11.832  65.492  1.00  0.00    -0.297 C  
HETATM   37  C   UNL     1     -10.955  11.254  66.911  1.00  0.00    -0.348 C  
HETATM   38  C   UNL     1      -9.796  11.112  64.688  1.00  0.00    -0.330 C  
ENDBRANCH  32  36
ENDBRANCH  23  25
ENDBRANCH  16  18
ENDBRANCH  13  16
ENDBRANCH   9  10
ENDBRANCH   6   9
ENDBRANCH   2   3
TORSDOF 7
ENDMDL
MODEL       97
REMARK 921   NORMALIZED FREE ENERGY PREDICTED BY IDOCK:   -5.36 KCAL/MOL
REMARK 922        TOTAL FREE ENERGY PREDICTED BY IDOCK:   -8.42 KCAL/MOL
REMARK 923 INTER-LIGAND FREE ENERGY PREDICTED BY IDOCK:   -8.05 KCAL/MOL
REMARK 924 INTRA-LIGAND FREE ENERGY PREDICTED BY IDOCK:   -0.38 KCAL/MOL
REMARK 927      BINDING AFFINITY PREDICTED BY RF-SCORE:    0.00 PKD
ROOT
HETATM    1  C   UNL     1      -6.843  17.208  66.703  1.00  0.00    -0.278 C  
HETATM    2  C   UNL     1      -8.155  17.958  66.904  1.00  0.00    -0.229 C  
ENDROOT
BRANCH   2   3
HETATM    3  N   UNL     1      -8.624  17.992  68.299  1.00  0.00    -0.280 NA 
HETATM    4  C   UNL     1     -10.071  18.311  68.341  1.00  0.00    -0.391 C  
HETATM    5  C   UNL     1     -11.003  17.126  67.985  1.00  0.00    -0.229 C  
HETATM    6  N   UNL     1     -10.753  15.890  68.763  1.00  0.00    -0.250 NA 
HETATM    7  C   UNL     1      -8.375  16.739  69.040  1.00  0.00    -0.163 C  
HETATM    8  C   UNL     1      -9.312  15.567  68.660  1.00  0.00    -0.201 C  
BRANCH   6   9
HETATM    9  C   UNL     1     -11.139  16.030  70.182  1.00  0.00    -0.371 C  
BRANCH   9  10
HETATM   10  C   UNL     1     -11.870  14.834  70.723  1.00  0.00    -0.370 A  
HETATM   11  C   UNL     1     -12.494  14.874  71.965  1.00  0.00    -0.408 A  
HETATM   12  C   UNL     1     -13.143  13.739  72.429  1.00  0.00    -0.520 A  
HETATM   13  C   UNL     1     -13.156  12.578  71.654  1.00  0.00    -0.315 A  
HETATM   14  N   UNL     1     -12.577  12.529  70.436  1.00  0.00    -0.096 NA 
HETATM   15  C   UNL     1     -11.944  13.645  70.005  1.00  0.00    -0.343 A  
BRANCH  13  16
HETATM   16  N   UNL     1     -13.838  11.445  72.082  1.00  0.00    -0.167 NA 
HETATM   17  H   UNL     1     -14.766  11.591  72.482  1.00  0.00     0.000 HD 
BRANCH  16  18
HETATM   18  C   UNL     1     -13.383  10.138  72.020  1.00  0.00    -0.387 A  
HETATM   19  N   UNL     1     -14.201   9.182  72.483  1.00  0.00    -0.512 NA 
HETATM   20  C   UNL     1     -13.720   7.924  72.495  1.00  0.00     0.226 A  
HETATM   21  C   UNL     1     -12.492   7.580  71.984  1.00  0.00    -0.257 A  
HETATM   22  F   UNL     1     -12.087   6.303  72.013  1.00  0.00    -0.356 F  
HETATM   23  C   UNL     1     -11.731   8.602  71.457  1.00  0.00    -0.305 A  
HETATM   24  N   UNL     1     -12.160   9.884  71.515  1.00  0.00    -0.400 NA 
BRANCH  23  25
HETATM   25  C   UNL     1     -10.441   8.404  70.755  1.00  0.00    -0.230 A  
HETATM   26  C   UNL     1      -9.965   9.369  69.848  1.00  0.00    -0.237 A  
HETATM   27  C   UNL     1      -8.738   9.223  69.204  1.00  0.00    -0.139 A  
HETATM   28  C   UNL     1      -7.943   8.099  69.450  1.00  0.00    -0.114 A  
HETATM   29  F   UNL     1      -8.339  10.179  68.350  1.00  0.00    -0.104 F  
HETATM   30  N   UNL     1      -6.729   7.752  68.933  1.00  0.00    -0.048 NA 
HETATM   31  C   UNL     1      -6.409   6.596  69.470  1.00  0.00    -0.042 A  
HETATM   32  N   UNL     1      -7.388   6.167  70.351  1.00  0.00    -0.086 NA 
HETATM   33  C   UNL     1      -5.152   5.884  69.122  1.00  0.00    -0.004 C  
HETATM   34  C   UNL     1      -9.629   7.268  71.017  1.00  0.00    -0.158 A  
HETATM   35  C   UNL     1      -8.390   7.133  70.350  1.00  0.00    -0.128 A  
BRANCH  32  36
HETATM   36  C   UNL     1      -7.461   4.912  71.102  1.00  0.00    -0.073 C  
HETATM   37  C   UNL     1      -6.448   4.747  72.241  1.00  0.00    -0.038 C  
HETATM   38  C   UNL     1      -7.400   3.703  70.166  1.00  0.00    -0.041 C  
ENDBRANCH  32  36
ENDBRANCH  23  25
ENDBRANCH  16  18
ENDBRANCH  13  16
ENDBRANCH   9  10
ENDBRANCH   6   9
ENDBRANCH   2   3
TORSDOF 7
ENDMDL
MODEL       98
REMARK 921   NORMALIZED FREE ENERGY PREDICTED BY IDOCK:   -5.30 KCAL/MOL
REMARK 922        TOTAL FREE ENERGY PREDICTED BY IDOCK:   -8.35 KCAL/MOL
REMARK 923 INTER-LIGAND FREE ENERGY PREDICTED BY IDOCK:   -8.47 KCAL/MOL
REMARK 924 INTRA-LIGAND FREE ENERGY PREDICTED BY IDOCK:    0.13 KCAL/MOL
REMARK 927      BINDING AFFINITY PREDICTED BY RF-SCORE:    0.00 PKD
ROOT
HETATM    1  C   UNL     1      -6.934   1.805  66.940  1.00  0.00    -0.039 C  
HETATM    2  C   UNL     1      -7.228   2.527  68.250  1.00  0.00    -0.048 C  
ENDROOT
BRANCH   2   3
HETATM    3  N   UNL     1      -8.605   3.034  68.366  1.00  0.00    -0.081 NA 
HETATM    4  C   UNL     1      -9.189   2.629  69.667  1.00  0.00    -0.129 C  
HETATM    5  C   UNL     1      -8.705   3.465  70.879  1.00  0.00    -0.075 C  
HETATM    6  N   UNL     1      -8.852   4.930  70.713  1.00  0.00    -0.123 NA 
HETATM    7  C   UNL     1      -8.711   4.500  68.214  1.00  0.00    -0.100 C  
HETATM    8  C   UNL     1      -8.214   5.313  69.433  1.00  0.00    -0.095 C  
BRANCH   6   9
HETATM    9  C   UNL     1     -10.264   5.360  70.723  1.00  0.00    -0.243 C  
BRANCH   9  10
HETATM   10  C   UNL     1     -10.439   6.840  70.530  1.00  0.00    -0.238 A  
HETATM   11  C   UNL     1     -11.005   7.632  71.524  1.00  0.00    -0.263 A  
HETATM   12  C   UNL     1     -11.162   8.991  71.293  1.00  0.00    -0.385 A  
HETATM   13  C   UNL     1     -10.759   9.542  70.075  1.00  0.00    -0.243 A  
HETATM   14  N   UNL     1     -10.185   8.793  69.111  1.00  0.00    -0.203 NA 
HETATM   15  C   UNL     1     -10.048   7.469  69.353  1.00  0.00    -0.190 A  
BRANCH  13  16
HETATM   16  N   UNL     1     -10.866  10.909  69.843  1.00  0.00    -0.446 NA 
HETATM   17  H   UNL     1     -11.061  11.499  70.653  1.00  0.00     0.000 HD 
BRANCH  16  18
HETATM   18  C   UNL     1     -10.734  11.548  68.621  1.00  0.00    -0.207 A  
HETATM   19  N   UNL     1     -11.454  11.066  67.597  1.00  0.00    -0.509 NA 
HETATM   20  C   UNL     1     -11.259  11.640  66.395  1.00  0.00    -0.287 A  
HETATM   21  C   UNL     1     -10.441  12.727  66.199  1.00  0.00    -0.267 A  
HETATM   22  F   UNL     1     -10.311  13.256  64.976  1.00  0.00    -0.299 F  
HETATM   23  C   UNL     1      -9.786  13.217  67.309  1.00  0.00    -0.231 A  
HETATM   24  N   UNL     1      -9.900  12.600  68.508  1.00  0.00    -0.191 NA 
BRANCH  23  25
HETATM   25  C   UNL     1      -8.963  14.449  67.314  1.00  0.00    -0.221 A  
HETATM   26  C   UNL     1      -7.559  14.370  67.349  1.00  0.00    -0.196 A  
HETATM   27  C   UNL     1      -6.762  15.513  67.317  1.00  0.00    -0.093 A  
HETATM   28  C   UNL     1      -7.351  16.780  67.247  1.00  0.00    -0.175 A  
HETATM   29  F   UNL     1      -5.427  15.373  67.354  1.00  0.00    -0.120 F  
HETATM   30  N   UNL     1      -6.774  18.016  67.213  1.00  0.00    -0.176 NA 
HETATM   31  C   UNL     1      -7.756  18.888  67.162  1.00  0.00    -0.235 A  
HETATM   32  N   UNL     1      -8.987  18.251  67.150  1.00  0.00    -0.259 NA 
HETATM   33  C   UNL     1      -7.512  20.353  67.140  1.00  0.00    -0.358 C  
HETATM   34  C   UNL     1      -9.564  15.734  67.228  1.00  0.00    -0.220 A  
HETATM   35  C   UNL     1      -8.741  16.883  67.203  1.00  0.00    -0.201 A  
BRANCH  32  36
HETATM   36  C   UNL     1     -10.327  18.844  67.169  1.00  0.00    -0.413 C  
HETATM   37  C   UNL     1     -10.740  19.618  65.911  1.00  0.00    -0.515 C  
HETATM   38  C   UNL     1     -10.530  19.713  68.411  1.00  0.00    -0.401 C  
ENDBRANCH  32  36
ENDBRANCH  23  25
ENDBRANCH  16  18
ENDBRANCH  13  16
ENDBRANCH   9  10
ENDBRANCH   6   9
ENDBRANCH   2   3
TORSDOF 7
ENDMDL
MODEL       99
REMARK 921   NORMALIZED FREE ENERGY PREDICTED BY IDOCK:   -5.20 KCAL/MOL
REMARK 922        TOTAL FREE ENERGY PREDICTED BY IDOCK:   -8.21 KCAL/MOL
REMARK 923 INTER-LIGAND FREE ENERGY PREDICTED BY IDOCK:   -7.47 KCAL/MOL
REMARK 924 INTRA-LIGAND FREE ENERGY PREDICTED BY IDOCK:   -0.74 KCAL/MOL
REMARK 927      BINDING AFFINITY PREDICTED BY RF-SCORE:    0.00 PKD
ROOT
HETATM    1  C   UNL     1     -11.678   1.497  73.463  1.00  0.00    -0.306 C  
HETATM    2  C   UNL     1     -10.778   2.451  72.684  1.00  0.00    -0.030 C  
ENDROOT
BRANCH   2   3
HETATM    3  N   UNL     1     -10.295   3.601  73.466  1.00  0.00    -0.146 NA 
HETATM    4  C   UNL     1      -8.941   3.994  73.009  1.00  0.00    -0.101 C  
HETATM    5  C   UNL     1      -8.916   4.796  71.683  1.00  0.00    -0.134 C  
HETATM    6  N   UNL     1      -9.801   5.984  71.666  1.00  0.00    -0.169 NA 
HETATM    7  C   UNL     1     -11.192   4.773  73.412  1.00  0.00    -0.343 C  
HETATM    8  C   UNL     1     -11.156   5.553  72.075  1.00  0.00    -0.184 C  
BRANCH   6   9
HETATM    9  C   UNL     1      -9.321   7.058  72.559  1.00  0.00    -0.138 C  
BRANCH   9  10
HETATM   10  C   UNL     1      -8.382   8.019  71.887  1.00  0.00    -0.167 A  
HETATM   11  C   UNL     1      -7.041   8.085  72.247  1.00  0.00    -0.093 A  
HETATM   12  C   UNL     1      -6.216   9.001  71.610  1.00  0.00    -0.076 A  
HETATM   13  C   UNL     1      -6.740   9.843  70.628  1.00  0.00    -0.094 A  
HETATM   14  N   UNL     1      -8.033   9.776  70.249  1.00  0.00    -0.178 NA 
HETATM   15  C   UNL     1      -8.821   8.881  70.887  1.00  0.00    -0.219 A  
BRANCH  13  16
HETATM   16  N   UNL     1      -5.921  10.736  69.946  1.00  0.00    -0.069 NA 
HETATM   17  H   UNL     1      -5.171  10.334  69.383  1.00  0.00     0.000 HD 
BRANCH  16  18
HETATM   18  C   UNL     1      -6.022  12.118  69.957  1.00  0.00    -0.156 A  
HETATM   19  N   UNL     1      -5.249  12.781  70.829  1.00  0.00    -0.132 NA 
HETATM   20  C   UNL     1      -5.412  14.116  70.892  1.00  0.00    -0.162 A  
HETATM   21  C   UNL     1      -6.252  14.815  70.058  1.00  0.00    -0.158 A  
HETATM   22  F   UNL     1      -6.349  16.147  70.166  1.00  0.00    -0.195 F  
HETATM   23  C   UNL     1      -6.964  14.078  69.135  1.00  0.00    -0.103 A  
HETATM   24  N   UNL     1      -6.880  12.727  69.116  1.00  0.00    -0.087 NA 
BRANCH  23  25
HETATM   25  C   UNL     1      -7.821  14.668  68.080  1.00  0.00    -0.128 A  
HETATM   26  C   UNL     1      -7.506  15.922  67.523  1.00  0.00    -0.194 A  
HETATM   27  C   UNL     1      -8.275  16.481  66.504  1.00  0.00    -0.300 A  
HETATM   28  C   UNL     1      -9.389  15.798  66.007  1.00  0.00    -0.349 A  
HETATM   29  F   UNL     1      -7.924  17.681  66.014  1.00  0.00    -0.287 F  
HETATM   30  N   UNL     1     -10.275  16.154  65.032  1.00  0.00    -0.506 NA 
HETATM   31  C   UNL     1     -11.151  15.179  64.945  1.00  0.00    -0.414 A  
HETATM   32  N   UNL     1     -10.857  14.164  65.843  1.00  0.00    -0.289 NA 
HETATM   33  C   UNL     1     -12.295  15.225  63.999  1.00  0.00     0.046 C  
HETATM   34  C   UNL     1      -8.944  13.966  67.567  1.00  0.00    -0.197 A  
HETATM   35  C   UNL     1      -9.715  14.551  66.538  1.00  0.00    -0.285 A  
BRANCH  32  36
HETATM   36  C   UNL     1     -11.610  12.939  66.120  1.00  0.00    -0.372 C  
HETATM   37  C   UNL     1     -11.710  12.527  67.594  1.00  0.00    -0.423 C  
HETATM   38  C   UNL     1     -11.092  11.769  65.282  1.00  0.00    -0.333 C  
ENDBRANCH  32  36
ENDBRANCH  23  25
ENDBRANCH  16  18
ENDBRANCH  13  16
ENDBRANCH   9  10
ENDBRANCH   6   9
ENDBRANCH   2   3
TORSDOF 7
ENDMDL
MODEL      100
REMARK 921   NORMALIZED FREE ENERGY PREDICTED BY IDOCK:   -5.20 KCAL/MOL
REMARK 922        TOTAL FREE ENERGY PREDICTED BY IDOCK:   -8.20 KCAL/MOL
REMARK 923 INTER-LIGAND FREE ENERGY PREDICTED BY IDOCK:   -7.59 KCAL/MOL
REMARK 924 INTRA-LIGAND FREE ENERGY PREDICTED BY IDOCK:   -0.61 KCAL/MOL
REMARK 927      BINDING AFFINITY PREDICTED BY RF-SCORE:    0.00 PKD
ROOT
HETATM    1  C   UNL     1     -12.412  15.595  74.340  1.00  0.00    -0.790 C  
HETATM    2  C   UNL     1     -12.795  14.569  73.280  1.00  0.00    -0.399 C  
ENDROOT
BRANCH   2   3
HETATM    3  N   UNL     1     -13.241  15.155  72.005  1.00  0.00    -0.348 NA 
HETATM    4  C   UNL     1     -12.272  16.180  71.550  1.00  0.00    -0.306 C  
HETATM    5  C   UNL     1     -10.980  15.609  70.914  1.00  0.00    -0.272 C  
HETATM    6  N   UNL     1     -11.210  14.636  69.821  1.00  0.00    -0.265 NA 
HETATM    7  C   UNL     1     -13.443  14.159  70.933  1.00  0.00    -0.090 C  
HETATM    8  C   UNL     1     -12.138  13.596  70.320  1.00  0.00    -0.357 C  
BRANCH   6   9
HETATM    9  C   UNL     1     -11.766  15.271  68.609  1.00  0.00    -0.346 C  
BRANCH   9  10
HETATM   10  C   UNL     1     -11.437  14.532  67.343  1.00  0.00    -0.385 A  
HETATM   11  C   UNL     1     -12.410  13.816  66.655  1.00  0.00    -0.403 A  
HETATM   12  C   UNL     1     -12.054  13.135  65.499  1.00  0.00    -0.490 A  
HETATM   13  C   UNL     1     -10.733  13.172  65.049  1.00  0.00    -0.323 A  
HETATM   14  N   UNL     1      -9.782  13.882  65.690  1.00  0.00    -0.190 NA 
HETATM   15  C   UNL     1     -10.149  14.532  66.818  1.00  0.00    -0.264 A  
BRANCH  13  16
HETATM   16  N   UNL     1     -10.367  12.534  63.869  1.00  0.00    -0.449 NA 
HETATM   17  H   UNL     1     -10.578  13.022  62.998  1.00  0.00     0.000 HD 
BRANCH  16  18
HETATM   18  C   UNL     1      -9.745  11.301  63.760  1.00  0.00    -0.298 A  
HETATM   19  N   UNL     1      -9.439  10.876  62.525  1.00  0.00    -0.270 NA 
HETATM   20  C   UNL     1      -8.909   9.643  62.421  1.00  0.00    -0.250 A  
HETATM   21  C   UNL     1      -8.597   8.860  63.506  1.00  0.00    -0.090 A  
HETATM   22  F   UNL     1      -8.054   7.648  63.326  1.00  0.00    -0.138 F  
HETATM   23  C   UNL     1      -8.872   9.387  64.751  1.00  0.00    -0.204 A  
HETATM   24  N   UNL     1      -9.484  10.588  64.873  1.00  0.00    -0.227 NA 
BRANCH  23  25
HETATM   25  C   UNL     1      -8.493   8.743  66.031  1.00  0.00    -0.144 A  
HETATM   26  C   UNL     1      -8.719   7.369  66.232  1.00  0.00    -0.163 A  
HETATM   27  C   UNL     1      -8.339   6.732  67.412  1.00  0.00    -0.122 A  
HETATM   28  C   UNL     1      -7.716   7.456  68.434  1.00  0.00    -0.120 A  
HETATM   29  F   UNL     1      -8.581   5.418  67.544  1.00  0.00    -0.110 F  
HETATM   30  N   UNL     1      -7.273   7.045  69.657  1.00  0.00    -0.078 NA 
HETATM   31  C   UNL     1      -6.776   8.107  70.252  1.00  0.00    -0.037 A  
HETATM   32  N   UNL     1      -6.869   9.224  69.438  1.00  0.00    -0.048 NA 
HETATM   33  C   UNL     1      -6.216   8.052  71.627  1.00  0.00    -0.040 C  
HETATM   34  C   UNL     1      -7.849   9.478  67.061  1.00  0.00    -0.098 A  
HETATM   35  C   UNL     1      -7.476   8.818  68.253  1.00  0.00    -0.092 A  
BRANCH  32  36
HETATM   36  C   UNL     1      -6.502  10.610  69.738  1.00  0.00    -0.110 C  
HETATM   37  C   UNL     1      -5.249  11.144  69.032  1.00  0.00    -0.040 C  
HETATM   38  C   UNL     1      -6.393  10.840  71.246  1.00  0.00     0.767 C  
ENDBRANCH  32  36
ENDBRANCH  23  25
ENDBRANCH  16  18
ENDBRANCH  13  16
ENDBRANCH   9  10
ENDBRANCH   6   9
ENDBRANCH   2   3
TORSDOF 7
ENDMDL
MODEL      101
REMARK 921   NORMALIZED FREE ENERGY PREDICTED BY IDOCK:   -5.15 KCAL/MOL
REMARK 922        TOTAL FREE ENERGY PREDICTED BY IDOCK:   -8.13 KCAL/MOL
REMARK 923 INTER-LIGAND FREE ENERGY PREDICTED BY IDOCK:   -6.97 KCAL/MOL
REMARK 924 INTRA-LIGAND FREE ENERGY PREDICTED BY IDOCK:   -1.16 KCAL/MOL
REMARK 927      BINDING AFFINITY PREDICTED BY RF-SCORE:    0.00 PKD
ROOT
HETATM    1  C   UNL     1     -10.429  19.831  66.082  1.00  0.00    -0.613 C  
HETATM    2  C   UNL     1     -10.481  18.378  66.541  1.00  0.00    -0.381 C  
ENDROOT
BRANCH   2   3
HETATM    3  N   UNL     1      -9.242  17.899  67.175  1.00  0.00    -0.254 NA 
HETATM    4  C   UNL     1      -9.517  17.464  68.565  1.00  0.00    -0.297 C  
HETATM    5  C   UNL     1     -10.196  16.076  68.684  1.00  0.00    -0.231 C  
HETATM    6  N   UNL     1      -9.500  14.986  67.960  1.00  0.00    -0.191 NA 
HETATM    7  C   UNL     1      -8.584  16.801  66.438  1.00  0.00    -0.303 C  
HETATM    8  C   UNL     1      -9.285  15.427  66.564  1.00  0.00    -0.292 C  
BRANCH   6   9
HETATM    9  C   UNL     1      -8.208  14.632  68.583  1.00  0.00    -0.159 C  
BRANCH   9  10
HETATM   10  C   UNL     1      -7.701  13.278  68.176  1.00  0.00    -0.143 A  
HETATM   11  C   UNL     1      -6.393  13.103  67.735  1.00  0.00    -0.156 A  
HETATM   12  C   UNL     1      -5.975  11.836  67.354  1.00  0.00    -0.105 A  
HETATM   13  C   UNL     1      -6.866  10.762  67.411  1.00  0.00    -0.078 A  
HETATM   14  N   UNL     1      -8.130  10.910  67.859  1.00  0.00    -0.111 NA 
HETATM   15  C   UNL     1      -8.519  12.154  68.219  1.00  0.00    -0.176 A  
BRANCH  13  16
HETATM   16  N   UNL     1      -6.453   9.478  67.076  1.00  0.00    -0.066 NA 
HETATM   17  H   UNL     1      -5.447   9.310  67.052  1.00  0.00     0.000 HD 
BRANCH  16  18
HETATM   18  C   UNL     1      -7.273   8.403  66.772  1.00  0.00    -0.078 A  
HETATM   19  N   UNL     1      -7.608   8.233  65.485  1.00  0.00    -0.084 NA 
HETATM   20  C   UNL     1      -8.471   7.237  65.208  1.00  0.00    -0.057 A  
HETATM   21  C   UNL     1      -8.939   6.357  66.154  1.00  0.00    -0.150 A  
HETATM   22  F   UNL     1      -9.781   5.378  65.801  1.00  0.00    -0.174 F  
HETATM   23  C   UNL     1      -8.497   6.545  67.448  1.00  0.00    -0.119 A  
HETATM   24  N   UNL     1      -7.700   7.593  67.760  1.00  0.00    -0.119 NA 
BRANCH  23  25
HETATM   25  C   UNL     1      -8.796   5.627  68.571  1.00  0.00    -0.108 A  
HETATM   26  C   UNL     1      -8.272   4.321  68.585  1.00  0.00    -0.087 A  
HETATM   27  C   UNL     1      -8.509   3.451  69.648  1.00  0.00    -0.060 A  
HETATM   28  C   UNL     1      -9.282   3.864  70.738  1.00  0.00    -0.128 A  
HETATM   29  F   UNL     1      -7.982   2.217  69.603  1.00  0.00    -0.043 F  
HETATM   30  N   UNL     1      -9.642   3.188  71.866  1.00  0.00    -0.141 NA 
HETATM   31  C   UNL     1     -10.383   4.009  72.576  1.00  0.00    -0.152 A  
HETATM   32  N   UNL     1     -10.516   5.234  71.944  1.00  0.00    -0.217 NA 
HETATM   33  C   UNL     1     -10.986   3.608  73.874  1.00  0.00    -0.276 C  
HETATM   34  C   UNL     1      -9.570   6.054  69.684  1.00  0.00    -0.177 A  
HETATM   35  C   UNL     1      -9.805   5.157  70.749  1.00  0.00    -0.202 A  
BRANCH  32  36
HETATM   36  C   UNL     1     -11.307   6.397  72.352  1.00  0.00    -0.287 C  
HETATM   37  C   UNL     1     -12.399   6.848  71.374  1.00  0.00    -0.421 C  
HETATM   38  C   UNL     1     -10.408   7.579  72.717  1.00  0.00    -0.331 C  
ENDBRANCH  32  36
ENDBRANCH  23  25
ENDBRANCH  16  18
ENDBRANCH  13  16
ENDBRANCH   9  10
ENDBRANCH   6   9
ENDBRANCH   2   3
TORSDOF 7
ENDMDL
MODEL      102
REMARK 921   NORMALIZED FREE ENERGY PREDICTED BY IDOCK:   -5.09 KCAL/MOL
REMARK 922        TOTAL FREE ENERGY PREDICTED BY IDOCK:   -8.05 KCAL/MOL
REMARK 923 INTER-LIGAND FREE ENERGY PREDICTED BY IDOCK:   -7.07 KCAL/MOL
REMARK 924 INTRA-LIGAND FREE ENERGY PREDICTED BY IDOCK:   -0.98 KCAL/MOL
REMARK 927      BINDING AFFINITY PREDICTED BY RF-SCORE:    0.00 PKD
ROOT
HETATM    1  C   UNL     1      -9.429   4.383  70.695  1.00  0.00    -0.242 C  
HETATM    2  C   UNL     1      -9.637   3.748  69.325  1.00  0.00    -0.138 C  
ENDROOT
BRANCH   2   3
HETATM    3  N   UNL     1      -8.630   4.130  68.322  1.00  0.00    -0.093 NA 
HETATM    4  C   UNL     1      -9.147   3.870  66.957  1.00  0.00    -0.152 C  
HETATM    5  C   UNL     1     -10.162   4.921  66.441  1.00  0.00    -0.278 C  
HETATM    6  N   UNL     1      -9.691   6.324  66.525  1.00  0.00    -0.157 NA 
HETATM    7  C   UNL     1      -8.197   5.539  68.423  1.00  0.00    -0.099 C  
HETATM    8  C   UNL     1      -9.230   6.571  67.910  1.00  0.00    -0.110 C  
BRANCH   6   9
HETATM    9  C   UNL     1      -8.601   6.610  65.571  1.00  0.00    -0.093 C  
BRANCH   9  10
HETATM   10  C   UNL     1      -8.010   7.982  65.734  1.00  0.00    -0.111 A  
HETATM   11  C   UNL     1      -8.783   9.124  65.552  1.00  0.00    -0.210 A  
HETATM   12  C   UNL     1      -8.189  10.369  65.697  1.00  0.00    -0.158 A  
HETATM   13  C   UNL     1      -6.832  10.461  66.016  1.00  0.00    -0.128 A  
HETATM   14  N   UNL     1      -6.075   9.364  66.221  1.00  0.00    -0.059 NA 
HETATM   15  C   UNL     1      -6.671   8.160  66.067  1.00  0.00    -0.053 A  
BRANCH  13  16
HETATM   16  N   UNL     1      -6.230  11.699  66.210  1.00  0.00    -0.443 NA 
HETATM   17  H   UNL     1      -5.713  12.087  65.420  1.00  0.00     0.000 HD 
BRANCH  16  18
HETATM   18  C   UNL     1      -6.263  12.456  67.370  1.00  0.00    -0.158 A  
HETATM   19  N   UNL     1      -5.431  12.097  68.358  1.00  0.00    -0.053 NA 
HETATM   20  C   UNL     1      -5.525  12.786  69.511  1.00  0.00    -0.084 A  
HETATM   21  C   UNL     1      -6.356  13.867  69.680  1.00  0.00    -0.123 A  
HETATM   22  F   UNL     1      -6.383  14.516  70.852  1.00  0.00    -0.187 F  
HETATM   23  C   UNL     1      -7.132  14.228  68.598  1.00  0.00    -0.111 A  
HETATM   24  N   UNL     1      -7.115  13.494  67.461  1.00  0.00    -0.166 NA 
BRANCH  23  25
HETATM   25  C   UNL     1      -7.991  15.434  68.555  1.00  0.00    -0.140 A  
HETATM   26  C   UNL     1      -9.314  15.386  69.033  1.00  0.00    -0.232 A  
HETATM   27  C   UNL     1     -10.130  16.516  69.037  1.00  0.00    -0.279 A  
HETATM   28  C   UNL     1      -9.644  17.738  68.559  1.00  0.00    -0.322 A  
HETATM   29  F   UNL     1     -11.383  16.407  69.506  1.00  0.00    -0.304 F  
HETATM   30  N   UNL     1     -10.259  18.951  68.464  1.00  0.00    -0.379 NA 
HETATM   31  C   UNL     1      -9.383  19.777  67.936  1.00  0.00    -0.344 A  
HETATM   32  N   UNL     1      -8.181  19.134  67.687  1.00  0.00    -0.280 NA 
HETATM   33  C   UNL     1      -9.707  21.198  67.654  1.00  0.00    -0.043 C  
HETATM   34  C   UNL     1      -7.490  16.676  68.082  1.00  0.00    -0.170 A  
HETATM   35  C   UNL     1      -8.333  17.810  68.088  1.00  0.00    -0.264 A  
BRANCH  32  36
HETATM   36  C   UNL     1      -6.974  19.663  67.047  1.00  0.00    -0.202 C  
HETATM   37  C   UNL     1      -6.329  20.880  67.722  1.00  0.00    -0.396 C  
HETATM   38  C   UNL     1      -7.215  19.951  65.565  1.00  0.00    -0.305 C  
ENDBRANCH  32  36
ENDBRANCH  23  25
ENDBRANCH  16  18
ENDBRANCH  13  16
ENDBRANCH   9  10
ENDBRANCH   6   9
ENDBRANCH   2   3
TORSDOF 7
ENDMDL
MODEL      103
REMARK 921   NORMALIZED FREE ENERGY PREDICTED BY IDOCK:   -5.07 KCAL/MOL
REMARK 922        TOTAL FREE ENERGY PREDICTED BY IDOCK:   -8.01 KCAL/MOL
REMARK 923 INTER-LIGAND FREE ENERGY PREDICTED BY IDOCK:   -7.08 KCAL/MOL
REMARK 924 INTRA-LIGAND FREE ENERGY PREDICTED BY IDOCK:   -0.93 KCAL/MOL
REMARK 927      BINDING AFFINITY PREDICTED BY RF-SCORE:    0.00 PKD
ROOT
HETATM    1  C   UNL     1     -10.074  20.795  67.766  1.00  0.00    -0.159 C  
HETATM    2  C   UNL     1     -10.150  19.379  68.324  1.00  0.00    -0.433 C  
ENDROOT
BRANCH   2   3
HETATM    3  N   UNL     1     -11.007  18.468  67.548  1.00  0.00    -0.284 NA 
HETATM    4  C   UNL     1     -10.431  18.255  66.198  1.00  0.00    -0.383 C  
HETATM    5  C   UNL     1      -9.232  17.275  66.156  1.00  0.00    -0.162 C  
HETATM    6  N   UNL     1      -9.488  15.960  66.790  1.00  0.00    -0.224 NA 
HETATM    7  C   UNL     1     -11.227  17.161  68.200  1.00  0.00     0.024 C  
HETATM    8  C   UNL     1     -10.012  16.203  68.153  1.00  0.00    -0.230 C  
BRANCH   6   9
HETATM    9  C   UNL     1     -10.445  15.141  66.019  1.00  0.00    -0.319 C  
BRANCH   9  10
HETATM   10  C   UNL     1     -10.627  13.756  66.574  1.00  0.00    -0.279 A  
HETATM   11  C   UNL     1      -9.553  13.046  67.100  1.00  0.00    -0.230 A  
HETATM   12  C   UNL     1      -9.766  11.764  67.585  1.00  0.00    -0.186 A  
HETATM   13  C   UNL     1     -11.044  11.203  67.533  1.00  0.00    -0.291 A  
HETATM   14  N   UNL     1     -12.101  11.887  67.049  1.00  0.00    -0.520 NA 
HETATM   15  C   UNL     1     -11.870  13.133  66.575  1.00  0.00    -0.400 A  
BRANCH  13  16
HETATM   16  N   UNL     1     -11.286   9.938  68.055  1.00  0.00    -0.536 NA 
HETATM   17  H   UNL     1     -12.065   9.851  68.708  1.00  0.00     0.000 HD 
BRANCH  16  18
HETATM   18  C   UNL     1     -10.573   8.783  67.775  1.00  0.00    -0.191 A  
HETATM   19  N   UNL     1     -10.503   8.403  66.490  1.00  0.00    -0.161 NA 
HETATM   20  C   UNL     1      -9.879   7.238  66.235  1.00  0.00     0.041 A  
HETATM   21  C   UNL     1      -9.252   6.488  67.202  1.00  0.00    -0.128 A  
HETATM   22  F   UNL     1      -8.635   5.347  66.870  1.00  0.00    -0.111 F  
HETATM   23  C   UNL     1      -9.301   6.974  68.492  1.00  0.00    -0.135 A  
HETATM   24  N   UNL     1      -9.998   8.097  68.781  1.00  0.00    -0.184 NA 
BRANCH  23  25
HETATM   25  C   UNL     1      -8.582   6.369  69.637  1.00  0.00    -0.134 A  
HETATM   26  C   UNL     1      -7.289   6.804  69.979  1.00  0.00    -0.085 A  
HETATM   27  C   UNL     1      -6.606   6.277  71.074  1.00  0.00    -0.050 A  
HETATM   28  C   UNL     1      -7.203   5.290  71.867  1.00  0.00    -0.085 A  
HETATM   29  F   UNL     1      -5.374   6.733  71.350  1.00  0.00    -0.025 F  
HETATM   30  N   UNL     1      -6.724   4.638  72.965  1.00  0.00    -0.058 NA 
HETATM   31  C   UNL     1      -7.660   3.794  73.338  1.00  0.00    -0.070 A  
HETATM   32  N   UNL     1      -8.768   3.880  72.511  1.00  0.00    -0.101 NA 
HETATM   33  C   UNL     1      -7.484   2.880  74.497  1.00  0.00    -0.047 C  
HETATM   34  C   UNL     1      -9.196   5.377  70.449  1.00  0.00    -0.190 A  
HETATM   35  C   UNL     1      -8.487   4.849  71.551  1.00  0.00    -0.121 A  
BRANCH  32  36
HETATM   36  C   UNL     1      -9.992   3.077  72.531  1.00  0.00    -0.159 C  
HETATM   37  C   UNL     1     -10.763   3.054  73.856  1.00  0.00    -0.284 C  
HETATM   38  C   UNL     1      -9.725   1.649  72.053  1.00  0.00    -0.189 C  
ENDBRANCH  32  36
ENDBRANCH  23  25
ENDBRANCH  16  18
ENDBRANCH  13  16
ENDBRANCH   9  10
ENDBRANCH   6   9
ENDBRANCH   2   3
TORSDOF 7
ENDMDL
MODEL      104
REMARK 921   NORMALIZED FREE ENERGY PREDICTED BY IDOCK:   -5.05 KCAL/MOL
REMARK 922        TOTAL FREE ENERGY PREDICTED BY IDOCK:   -7.99 KCAL/MOL
REMARK 923 INTER-LIGAND FREE ENERGY PREDICTED BY IDOCK:   -8.16 KCAL/MOL
REMARK 924 INTRA-LIGAND FREE ENERGY PREDICTED BY IDOCK:    0.17 KCAL/MOL
REMARK 927      BINDING AFFINITY PREDICTED BY RF-SCORE:    0.00 PKD
ROOT
HETATM    1  C   UNL     1     -10.165  18.640  66.843  1.00  0.00    -0.423 C  
HETATM    2  C   UNL     1     -10.783  17.284  66.519  1.00  0.00    -0.078 C  
ENDROOT
BRANCH   2   3
HETATM    3  N   UNL     1     -10.211  16.627  65.333  1.00  0.00    -0.616 NA 
HETATM    4  C   UNL     1      -9.347  15.495  65.746  1.00  0.00    -0.257 C  
HETATM    5  C   UNL     1     -10.116  14.218  66.168  1.00  0.00    -0.313 C  
HETATM    6  N   UNL     1     -11.106  13.739  65.176  1.00  0.00    -0.315 NA 
HETATM    7  C   UNL     1     -11.226  16.146  64.374  1.00  0.00    -0.171 C  
HETATM    8  C   UNL     1     -11.987  14.875  64.822  1.00  0.00    -0.361 C  
BRANCH   6   9
HETATM    9  C   UNL     1     -10.468  13.196  63.960  1.00  0.00    -0.234 C  
BRANCH   9  10
HETATM   10  C   UNL     1      -9.883  11.826  64.153  1.00  0.00    -0.248 A  
HETATM   11  C   UNL     1      -9.787  10.929  63.094  1.00  0.00    -0.392 A  
HETATM   12  C   UNL     1      -9.256   9.669  63.325  1.00  0.00    -0.132 A  
HETATM   13  C   UNL     1      -8.832   9.316  64.608  1.00  0.00    -0.178 A  
HETATM   14  N   UNL     1      -8.894  10.182  65.640  1.00  0.00    -0.158 NA 
HETATM   15  C   UNL     1      -9.423  11.403  65.396  1.00  0.00    -0.216 A  
BRANCH  13  16
HETATM   16  N   UNL     1      -8.255   8.075  64.850  1.00  0.00    -0.200 NA 
HETATM   17  H   UNL     1      -7.700   7.671  64.094  1.00  0.00     0.000 HD 
BRANCH  16  18
HETATM   18  C   UNL     1      -8.360   7.332  66.015  1.00  0.00    -0.140 A  
HETATM   19  N   UNL     1      -7.590   6.239  66.115  1.00  0.00    -0.088 NA 
HETATM   20  C   UNL     1      -7.756   5.478  67.213  1.00  0.00    -0.100 A  
HETATM   21  C   UNL     1      -8.596   5.815  68.247  1.00  0.00    -0.112 A  
HETATM   22  F   UNL     1      -8.696   5.017  69.318  1.00  0.00    -0.089 F  
HETATM   23  C   UNL     1      -9.305   6.991  68.111  1.00  0.00    -0.125 A  
HETATM   24  N   UNL     1      -9.218   7.724  66.977  1.00  0.00    -0.138 NA 
BRANCH  23  25
HETATM   25  C   UNL     1     -10.161   7.574  69.170  1.00  0.00    -0.202 A  
HETATM   26  C   UNL     1     -10.439   6.849  70.344  1.00  0.00    -0.229 A  
HETATM   27  C   UNL     1     -11.211   7.389  71.371  1.00  0.00    -0.246 A  
HETATM   28  C   UNL     1     -11.732   8.683  71.254  1.00  0.00    -0.289 A  
HETATM   29  F   UNL     1     -11.441   6.648  72.466  1.00  0.00    -0.273 F  
HETATM   30  N   UNL     1     -12.507   9.398  72.119  1.00  0.00    -0.349 NA 
HETATM   31  C   UNL     1     -12.744  10.555  71.542  1.00  0.00    -0.452 A  
HETATM   32  N   UNL     1     -12.125  10.630  70.304  1.00  0.00    -0.312 NA 
HETATM   33  C   UNL     1     -13.586  11.599  72.180  1.00  0.00    -0.124 C  
HETATM   34  C   UNL     1     -10.677   8.893  69.055  1.00  0.00    -0.148 A  
HETATM   35  C   UNL     1     -11.463   9.423  70.103  1.00  0.00    -0.138 A  
BRANCH  32  36
HETATM   36  C   UNL     1     -12.189  11.705  69.310  1.00  0.00    -0.164 C  
HETATM   37  C   UNL     1     -11.953  11.291  67.853  1.00  0.00    -0.080 C  
HETATM   38  C   UNL     1     -11.261  12.861  69.685  1.00  0.00    -0.072 C  
ENDBRANCH  32  36
ENDBRANCH  23  25
ENDBRANCH  16  18
ENDBRANCH  13  16
ENDBRANCH   9  10
ENDBRANCH   6   9
ENDBRANCH   2   3
TORSDOF 7
ENDMDL
MODEL      105
REMARK 921   NORMALIZED FREE ENERGY PREDICTED BY IDOCK:   -4.99 KCAL/MOL
REMARK 922        TOTAL FREE ENERGY PREDICTED BY IDOCK:   -7.90 KCAL/MOL
REMARK 923 INTER-LIGAND FREE ENERGY PREDICTED BY IDOCK:   -7.58 KCAL/MOL
REMARK 924 INTRA-LIGAND FREE ENERGY PREDICTED BY IDOCK:   -0.32 KCAL/MOL
REMARK 927      BINDING AFFINITY PREDICTED BY RF-SCORE:    0.00 PKD
ROOT
HETATM    1  C   UNL     1      -7.633  19.241  68.140  1.00  0.00    -0.325 C  
HETATM    2  C   UNL     1      -7.570  17.763  68.509  1.00  0.00    -0.276 C  
ENDROOT
BRANCH   2   3
HETATM    3  N   UNL     1      -6.646  16.971  67.682  1.00  0.00    -0.138 NA 
HETATM    4  C   UNL     1      -5.421  16.650  68.453  1.00  0.00    -0.121 C  
HETATM    5  C   UNL     1      -5.590  15.504  69.484  1.00  0.00    -0.109 C  
HETATM    6  N   UNL     1      -6.158  14.254  68.927  1.00  0.00    -0.085 NA 
HETATM    7  C   UNL     1      -7.238  15.724  67.159  1.00  0.00    -0.206 C  
HETATM    8  C   UNL     1      -7.406  14.598  68.207  1.00  0.00    -0.117 C  
BRANCH   6   9
HETATM    9  C   UNL     1      -5.222  13.568  68.014  1.00  0.00    -0.110 C  
BRANCH   9  10
HETATM   10  C   UNL     1      -5.618  12.151  67.707  1.00  0.00    -0.081 A  
HETATM   11  C   UNL     1      -6.152  11.806  66.470  1.00  0.00     0.063 A  
HETATM   12  C   UNL     1      -6.519  10.489  66.239  1.00  0.00    -0.114 A  
HETATM   13  C   UNL     1      -6.356   9.534  67.245  1.00  0.00    -0.069 A  
HETATM   14  N   UNL     1      -5.816   9.846  68.441  1.00  0.00    -0.042 NA 
HETATM   15  C   UNL     1      -5.472  11.137  68.648  1.00  0.00    -0.043 A  
BRANCH  13  16
HETATM   16  N   UNL     1      -6.675   8.200  67.016  1.00  0.00    -0.064 NA 
HETATM   17  H   UNL     1      -6.030   7.665  66.434  1.00  0.00     0.000 HD 
BRANCH  16  18
HETATM   18  C   UNL     1      -7.785   7.526  67.501  1.00  0.00    -0.118 A  
HETATM   19  N   UNL     1      -7.877   6.218  67.221  1.00  0.00    -0.107 NA 
HETATM   20  C   UNL     1      -8.996   5.588  67.625  1.00  0.00    -0.108 A  
HETATM   21  C   UNL     1      -9.979   6.195  68.368  1.00  0.00    -0.140 A  
HETATM   22  F   UNL     1     -11.058   5.499  68.751  1.00  0.00    -0.284 F  
HETATM   23  C   UNL     1      -9.787   7.525  68.683  1.00  0.00    -0.165 A  
HETATM   24  N   UNL     1      -8.711   8.197  68.212  1.00  0.00    -0.133 NA 
BRANCH  23  25
HETATM   25  C   UNL     1     -10.675   8.306  69.575  1.00  0.00    -0.179 A  
HETATM   26  C   UNL     1     -11.342   7.681  70.644  1.00  0.00    -0.288 A  
HETATM   27  C   UNL     1     -12.154   8.401  71.519  1.00  0.00    -0.301 A  
HETATM   28  C   UNL     1     -12.323   9.780  71.350  1.00  0.00    -0.388 A  
HETATM   29  F   UNL     1     -12.764   7.748  72.521  1.00  0.00    -0.222 F  
HETATM   30  N   UNL     1     -13.065  10.669  72.071  1.00  0.00    -0.472 NA 
HETATM   31  C   UNL     1     -12.903  11.842  71.501  1.00  0.00    -0.316 A  
HETATM   32  N   UNL     1     -12.051  11.754  70.412  1.00  0.00    -0.365 NA 
HETATM   33  C   UNL     1     -13.587  13.063  71.999  1.00  0.00    -0.530 C  
HETATM   34  C   UNL     1     -10.833   9.708  69.409  1.00  0.00    -0.239 A  
HETATM   35  C   UNL     1     -11.665  10.422  70.301  1.00  0.00    -0.321 A  
BRANCH  32  36
HETATM   36  C   UNL     1     -11.662  12.801  69.465  1.00  0.00    -0.318 C  
HETATM   37  C   UNL     1     -12.272  14.188  69.704  1.00  0.00    -0.376 C  
HETATM   38  C   UNL     1     -11.909  12.361  68.021  1.00  0.00    -0.376 C  
ENDBRANCH  32  36
ENDBRANCH  23  25
ENDBRANCH  16  18
ENDBRANCH  13  16
ENDBRANCH   9  10
ENDBRANCH   6   9
ENDBRANCH   2   3
TORSDOF 7
ENDMDL
MODEL      106
REMARK 921   NORMALIZED FREE ENERGY PREDICTED BY IDOCK:   -4.98 KCAL/MOL
REMARK 922        TOTAL FREE ENERGY PREDICTED BY IDOCK:   -7.89 KCAL/MOL
REMARK 923 INTER-LIGAND FREE ENERGY PREDICTED BY IDOCK:   -6.58 KCAL/MOL
REMARK 924 INTRA-LIGAND FREE ENERGY PREDICTED BY IDOCK:   -1.31 KCAL/MOL
REMARK 927      BINDING AFFINITY PREDICTED BY RF-SCORE:    0.00 PKD
ROOT
HETATM    1  C   UNL     1      -5.153  10.435  62.974  1.00  0.00    -0.134 C  
HETATM    2  C   UNL     1      -5.294   8.939  62.715  1.00  0.00    -0.070 C  
ENDROOT
BRANCH   2   3
HETATM    3  N   UNL     1      -5.221   8.106  63.926  1.00  0.00    -0.041 NA 
HETATM    4  C   UNL     1      -6.285   8.500  64.879  1.00  0.00    -0.060 C  
HETATM    5  C   UNL     1      -7.699   7.976  64.521  1.00  0.00    -0.125 C  
HETATM    6  N   UNL     1      -7.772   6.515  64.285  1.00  0.00    -0.100 NA 
HETATM    7  C   UNL     1      -5.315   6.657  63.656  1.00  0.00    -0.027 C  
HETATM    8  C   UNL     1      -6.734   6.159  63.291  1.00  0.00    -0.040 C  
BRANCH   6   9
HETATM    9  C   UNL     1      -7.576   5.734  65.523  1.00  0.00    -0.083 C  
BRANCH   9  10
HETATM   10  C   UNL     1      -8.526   6.112  66.624  1.00  0.00    -0.116 A  
HETATM   11  C   UNL     1      -8.058   6.557  67.855  1.00  0.00    -0.116 A  
HETATM   12  C   UNL     1      -8.973   6.878  68.847  1.00  0.00    -0.131 A  
HETATM   13  C   UNL     1     -10.342   6.745  68.601  1.00  0.00    -0.186 A  
HETATM   14  N   UNL     1     -10.813   6.340  67.405  1.00  0.00    -0.329 NA 
HETATM   15  C   UNL     1      -9.904   6.025  66.454  1.00  0.00    -0.110 A  
BRANCH  13  16
HETATM   16  N   UNL     1     -11.275   7.105  69.567  1.00  0.00    -0.463 NA 
HETATM   17  H   UNL     1     -11.858   6.358  69.944  1.00  0.00     0.000 HD 
BRANCH  16  18
HETATM   18  C   UNL     1     -11.491   8.379  70.067  1.00  0.00     0.092 A  
HETATM   19  N   UNL     1     -11.885   8.477  71.345  1.00  0.00    -0.286 NA 
HETATM   20  C   UNL     1     -12.172   9.711  71.800  1.00  0.00    -0.384 A  
HETATM   21  C   UNL     1     -11.996  10.852  71.054  1.00  0.00    -0.270 A  
HETATM   22  F   UNL     1     -12.285  12.049  71.580  1.00  0.00    -0.280 F  
HETATM   23  C   UNL     1     -11.517  10.685  69.770  1.00  0.00    -0.302 A  
HETATM   24  N   UNL     1     -11.307   9.447  69.266  1.00  0.00     0.053 NA 
BRANCH  23  25
HETATM   25  C   UNL     1     -11.152  11.801  68.867  1.00  0.00    -0.297 A  
HETATM   26  C   UNL     1     -12.020  12.197  67.833  1.00  0.00    -0.218 A  
HETATM   27  C   UNL     1     -11.716  13.266  66.993  1.00  0.00    -0.389 A  
HETATM   28  C   UNL     1     -10.524  13.979  67.164  1.00  0.00    -0.270 A  
HETATM   29  F   UNL     1     -12.586  13.596  66.025  1.00  0.00    -0.456 F  
HETATM   30  N   UNL     1     -10.027  15.039  66.464  1.00  0.00    -0.253 NA 
HETATM   31  C   UNL     1      -8.867  15.336  67.007  1.00  0.00    -0.237 A  
HETATM   32  N   UNL     1      -8.585  14.495  68.071  1.00  0.00    -0.154 NA 
HETATM   33  C   UNL     1      -8.011  16.434  66.488  1.00  0.00    -0.342 C  
HETATM   34  C   UNL     1      -9.947  12.531  69.051  1.00  0.00     0.209 A  
HETATM   35  C   UNL     1      -9.652  13.609  68.187  1.00  0.00    -0.221 A  
BRANCH  32  36
HETATM   36  C   UNL     1      -7.378  14.437  68.899  1.00  0.00    -0.127 C  
HETATM   37  C   UNL     1      -6.924  15.761  69.525  1.00  0.00    -0.191 C  
HETATM   38  C   UNL     1      -6.217  13.790  68.140  1.00  0.00    -0.126 C  
ENDBRANCH  32  36
ENDBRANCH  23  25
ENDBRANCH  16  18
ENDBRANCH  13  16
ENDBRANCH   9  10
ENDBRANCH   6   9
ENDBRANCH   2   3
TORSDOF 7
ENDMDL
MODEL      107
REMARK 921   NORMALIZED FREE ENERGY PREDICTED BY IDOCK:   -4.97 KCAL/MOL
REMARK 922        TOTAL FREE ENERGY PREDICTED BY IDOCK:   -7.87 KCAL/MOL
REMARK 923 INTER-LIGAND FREE ENERGY PREDICTED BY IDOCK:   -7.46 KCAL/MOL
REMARK 924 INTRA-LIGAND FREE ENERGY PREDICTED BY IDOCK:   -0.41 KCAL/MOL
REMARK 927      BINDING AFFINITY PREDICTED BY RF-SCORE:    0.00 PKD
ROOT
HETATM    1  C   UNL     1      -9.613  16.828  66.959  1.00  0.00    -0.244 C  
HETATM    2  C   UNL     1     -10.728  16.567  67.965  1.00  0.00    -0.343 C  
ENDROOT
BRANCH   2   3
HETATM    3  N   UNL     1     -10.315  15.771  69.132  1.00  0.00    -0.224 NA 
HETATM    4  C   UNL     1     -11.120  16.150  70.318  1.00  0.00    -0.369 C  
HETATM    5  C   UNL     1     -12.554  15.564  70.338  1.00  0.00    -0.378 C  
HETATM    6  N   UNL     1     -12.621  14.095  70.153  1.00  0.00    -0.324 NA 
HETATM    7  C   UNL     1     -10.411  14.312  68.920  1.00  0.00    -0.238 C  
HETATM    8  C   UNL     1     -11.853  13.751  68.935  1.00  0.00    -0.360 C  
BRANCH   6   9
HETATM    9  C   UNL     1     -12.084  13.356  71.314  1.00  0.00     0.104 C  
BRANCH   9  10
HETATM   10  C   UNL     1     -12.293  11.871  71.224  1.00  0.00    -0.212 A  
HETATM   11  C   UNL     1     -11.537  11.090  70.356  1.00  0.00    -0.389 A  
HETATM   12  C   UNL     1     -11.777   9.725  70.295  1.00  0.00    -0.253 A  
HETATM   13  C   UNL     1     -12.771   9.157  71.096  1.00  0.00    -0.213 A  
HETATM   14  N   UNL     1     -13.495   9.895  71.961  1.00  0.00    -0.410 NA 
HETATM   15  C   UNL     1     -13.250  11.225  72.000  1.00  0.00    -0.331 A  
BRANCH  13  16
HETATM   16  N   UNL     1     -12.995   7.785  71.082  1.00  0.00    -0.537 NA 
HETATM   17  H   UNL     1     -13.917   7.473  70.778  1.00  0.00     0.000 HD 
BRANCH  16  18
HETATM   18  C   UNL     1     -12.089   6.800  71.443  1.00  0.00    -0.366 A  
HETATM   19  N   UNL     1     -12.361   6.093  72.549  1.00  0.00    -0.050 NA 
HETATM   20  C   UNL     1     -11.437   5.195  72.938  1.00  0.00    -0.254 A  
HETATM   21  C   UNL     1     -10.299   4.920  72.218  1.00  0.00    -0.206 A  
HETATM   22  F   UNL     1      -9.432   3.998  72.658  1.00  0.00    -0.134 F  
HETATM   23  C   UNL     1     -10.117   5.633  71.051  1.00  0.00    -0.207 A  
HETATM   24  N   UNL     1     -10.990   6.602  70.689  1.00  0.00    -0.262 NA 
BRANCH  23  25
HETATM   25  C   UNL     1      -9.018   5.387  70.088  1.00  0.00    -0.157 A  
HETATM   26  C   UNL     1      -7.735   5.918  70.317  1.00  0.00    -0.096 A  
HETATM   27  C   UNL     1      -6.676   5.671  69.445  1.00  0.00    -0.059 A  
HETATM   28  C   UNL     1      -6.870   4.878  68.309  1.00  0.00    -0.056 A  
HETATM   29  F   UNL     1      -5.476   6.206  69.718  1.00  0.00    -0.011 F  
HETATM   30  N   UNL     1      -5.991   4.516  67.330  1.00  0.00    -0.023 NA 
HETATM   31  C   UNL     1      -6.663   3.776  66.477  1.00  0.00    -0.046 A  
HETATM   32  N   UNL     1      -7.982   3.626  66.877  1.00  0.00    -0.087 NA 
HETATM   33  C   UNL     1      -6.037   3.216  65.252  1.00  0.00    -0.019 C  
HETATM   34  C   UNL     1      -9.214   4.570  68.942  1.00  0.00    -0.190 A  
HETATM   35  C   UNL     1      -8.131   4.334  68.066  1.00  0.00    -0.090 A  
BRANCH  32  36
HETATM   36  C   UNL     1      -9.078   2.944  66.186  1.00  0.00    -0.130 C  
HETATM   37  C   UNL     1      -8.806   1.500  65.749  1.00  0.00    -0.120 C  
HETATM   38  C   UNL     1      -9.580   3.767  64.998  1.00  0.00    -0.177 C  
ENDBRANCH  32  36
ENDBRANCH  23  25
ENDBRANCH  16  18
ENDBRANCH  13  16
ENDBRANCH   9  10
ENDBRANCH   6   9
ENDBRANCH   2   3
TORSDOF 7
ENDMDL
MODEL      108
REMARK 921   NORMALIZED FREE ENERGY PREDICTED BY IDOCK:   -4.95 KCAL/MOL
REMARK 922        TOTAL FREE ENERGY PREDICTED BY IDOCK:   -7.84 KCAL/MOL
REMARK 923 INTER-LIGAND FREE ENERGY PREDICTED BY IDOCK:   -8.21 KCAL/MOL
REMARK 924 INTRA-LIGAND FREE ENERGY PREDICTED BY IDOCK:    0.37 KCAL/MOL
REMARK 927      BINDING AFFINITY PREDICTED BY RF-SCORE:    0.00 PKD
ROOT
HETATM    1  C   UNL     1      -5.149   6.349  67.038  1.00  0.00    -0.008 C  
HETATM    2  C   UNL     1      -5.563   7.730  67.534  1.00  0.00    -0.036 C  
ENDROOT
BRANCH   2   3
HETATM    3  N   UNL     1      -6.040   7.755  68.926  1.00  0.00    -0.034 NA 
HETATM    4  C   UNL     1      -7.484   8.088  68.963  1.00  0.00    -0.093 C  
HETATM    5  C   UNL     1      -8.427   6.917  68.588  1.00  0.00    -0.121 C  
HETATM    6  N   UNL     1      -8.195   5.671  69.354  1.00  0.00    -0.102 NA 
HETATM    7  C   UNL     1      -5.810   6.491  69.655  1.00  0.00    -0.015 C  
HETATM    8  C   UNL     1      -6.756   5.333  69.256  1.00  0.00    -0.052 C  
BRANCH   6   9
HETATM    9  C   UNL     1      -8.588   5.799  70.771  1.00  0.00    -0.129 C  
BRANCH   9  10
HETATM   10  C   UNL     1      -9.674   6.812  71.000  1.00  0.00    -0.182 A  
HETATM   11  C   UNL     1     -10.958   6.614  70.503  1.00  0.00    -0.337 A  
HETATM   12  C   UNL     1     -11.923   7.585  70.725  1.00  0.00    -0.224 A  
HETATM   13  C   UNL     1     -11.596   8.743  71.434  1.00  0.00    -0.299 A  
HETATM   14  N   UNL     1     -10.363   8.940  71.944  1.00  0.00    -0.342 NA 
HETATM   15  C   UNL     1      -9.435   7.984  71.710  1.00  0.00    -0.169 A  
BRANCH  13  16
HETATM   16  N   UNL     1     -12.561   9.707  71.705  1.00  0.00    -0.373 NA 
HETATM   17  H   UNL     1     -13.326   9.430  72.320  1.00  0.00     0.000 HD 
BRANCH  16  18
HETATM   18  C   UNL     1     -12.584  11.005  71.222  1.00  0.00    -0.412 A  
HETATM   19  N   UNL     1     -12.943  11.971  72.080  1.00  0.00    -0.346 NA 
HETATM   20  C   UNL     1     -13.043  13.219  71.582  1.00  0.00    -0.363 A  
HETATM   21  C   UNL     1     -12.716  13.545  70.288  1.00  0.00    -0.052 A  
HETATM   22  F   UNL     1     -12.823  14.813  69.869  1.00  0.00    -0.311 F  
HETATM   23  C   UNL     1     -12.285  12.515  69.479  1.00  0.00    -0.080 A  
HETATM   24  N   UNL     1     -12.262  11.241  69.935  1.00  0.00    -0.300 NA 
BRANCH  23  25
HETATM   25  C   UNL     1     -11.777  12.696  68.099  1.00  0.00    -0.396 A  
HETATM   26  C   UNL     1     -11.908  13.936  67.447  1.00  0.00    -0.437 A  
HETATM   27  C   UNL     1     -11.405  14.143  66.164  1.00  0.00    -0.337 A  
HETATM   28  C   UNL     1     -10.750  13.108  65.489  1.00  0.00    -0.283 A  
HETATM   29  F   UNL     1     -11.562  15.349  65.595  1.00  0.00    -0.273 F  
HETATM   30  N   UNL     1     -10.194  13.086  64.243  1.00  0.00    -0.361 NA 
HETATM   31  C   UNL     1      -9.714  11.874  64.068  1.00  0.00    -0.154 A  
HETATM   32  N   UNL     1      -9.931  11.086  65.186  1.00  0.00    -0.259 NA 
HETATM   33  C   UNL     1      -9.051  11.463  62.804  1.00  0.00    -0.266 C  
HETATM   34  C   UNL     1     -11.099  11.647  67.421  1.00  0.00    -0.337 A  
HETATM   35  C   UNL     1     -10.601  11.873  66.118  1.00  0.00    -0.258 A  
BRANCH  32  36
HETATM   36  C   UNL     1      -9.622   9.668  65.383  1.00  0.00    -0.291 C  
HETATM   37  C   UNL     1     -10.448   8.938  66.449  1.00  0.00    -0.071 C  
HETATM   38  C   UNL     1      -8.129   9.457  65.640  1.00  0.00    -0.112 C  
ENDBRANCH  32  36
ENDBRANCH  23  25
ENDBRANCH  16  18
ENDBRANCH  13  16
ENDBRANCH   9  10
ENDBRANCH   6   9
ENDBRANCH   2   3
TORSDOF 7
ENDMDL
MODEL      109
REMARK 921   NORMALIZED FREE ENERGY PREDICTED BY IDOCK:   -4.94 KCAL/MOL
REMARK 922        TOTAL FREE ENERGY PREDICTED BY IDOCK:   -7.83 KCAL/MOL
REMARK 923 INTER-LIGAND FREE ENERGY PREDICTED BY IDOCK:   -7.76 KCAL/MOL
REMARK 924 INTRA-LIGAND FREE ENERGY PREDICTED BY IDOCK:   -0.07 KCAL/MOL
REMARK 927      BINDING AFFINITY PREDICTED BY RF-SCORE:    0.00 PKD
ROOT
HETATM    1  C   UNL     1     -10.374  19.696  67.246  1.00  0.00    -0.577 C  
HETATM    2  C   UNL     1      -9.881  18.317  67.669  1.00  0.00    -0.320 C  
ENDROOT
BRANCH   2   3
HETATM    3  N   UNL     1     -10.782  17.213  67.300  1.00  0.00    -0.263 NA 
HETATM    4  C   UNL     1     -10.504  16.771  65.912  1.00  0.00    -0.301 C  
HETATM    5  C   UNL     1      -9.243  15.885  65.758  1.00  0.00    -0.206 C  
HETATM    6  N   UNL     1      -9.201  14.711  66.661  1.00  0.00    -0.259 NA 
HETATM    7  C   UNL     1     -10.702  16.052  68.210  1.00  0.00    -0.298 C  
HETATM    8  C   UNL     1      -9.429  15.188  68.044  1.00  0.00    -0.199 C  
BRANCH   6   9
HETATM    9  C   UNL     1     -10.209  13.691  66.305  1.00  0.00    -0.296 C  
BRANCH   9  10
HETATM   10  C   UNL     1     -10.555  12.772  67.443  1.00  0.00    -0.241 A  
HETATM   11  C   UNL     1      -9.562  12.128  68.174  1.00  0.00    -0.208 A  
HETATM   12  C   UNL     1      -9.931  11.276  69.205  1.00  0.00    -0.058 A  
HETATM   13  C   UNL     1     -11.283  11.071  69.489  1.00  0.00    -0.279 A  
HETATM   14  N   UNL     1     -12.257  11.707  68.806  1.00  0.00    -0.395 NA 
HETATM   15  C   UNL     1     -11.876  12.528  67.801  1.00  0.00    -0.313 A  
BRANCH  13  16
HETATM   16  N   UNL     1     -11.671  10.256  70.546  1.00  0.00    -0.306 NA 
HETATM   17  H   UNL     1     -12.265  10.680  71.260  1.00  0.00     0.000 HD 
BRANCH  16  18
HETATM   18  C   UNL     1     -11.331   8.925  70.726  1.00  0.00    -0.278 A  
HETATM   19  N   UNL     1     -11.668   8.359  71.894  1.00  0.00    -0.310 NA 
HETATM   20  C   UNL     1     -11.262   7.091  72.094  1.00  0.00    -0.256 A  
HETATM   21  C   UNL     1     -10.612   6.346  71.140  1.00  0.00    -0.236 A  
HETATM   22  F   UNL     1     -10.255   5.082  71.404  1.00  0.00    -0.238 F  
HETATM   23  C   UNL     1     -10.361   6.967  69.934  1.00  0.00    -0.205 A  
HETATM   24  N   UNL     1     -10.682   8.268  69.745  1.00  0.00    -0.238 NA 
BRANCH  23  25
HETATM   25  C   UNL     1      -9.783   6.286  68.752  1.00  0.00    -0.141 A  
HETATM   26  C   UNL     1      -9.619   6.978  67.537  1.00  0.00    -0.155 A  
HETATM   27  C   UNL     1      -9.045   6.371  66.422  1.00  0.00    -0.154 A  
HETATM   28  C   UNL     1      -8.611   5.043  66.489  1.00  0.00    -0.110 A  
HETATM   29  F   UNL     1      -8.916   7.084  65.292  1.00  0.00    -0.066 F  
HETATM   30  N   UNL     1      -8.036   4.258  65.533  1.00  0.00    -0.094 NA 
HETATM   31  C   UNL     1      -7.828   3.084  66.086  1.00  0.00    -0.081 A  
HETATM   32  N   UNL     1      -8.246   3.074  67.407  1.00  0.00    -0.081 NA 
HETATM   33  C   UNL     1      -7.233   1.950  65.333  1.00  0.00    -0.053 C  
HETATM   34  C   UNL     1      -9.331   4.941  68.826  1.00  0.00    -0.184 A  
HETATM   35  C   UNL     1      -8.756   4.339  67.684  1.00  0.00    -0.106 A  
BRANCH  32  36
HETATM   36  C   UNL     1      -8.261   1.959  68.356  1.00  0.00    -0.056 C  
HETATM   37  C   UNL     1      -9.637   1.550  68.896  1.00  0.00    -0.156 C  
HETATM   38  C   UNL     1      -7.295   2.206  69.515  1.00  0.00    -0.043 C  
ENDBRANCH  32  36
ENDBRANCH  23  25
ENDBRANCH  16  18
ENDBRANCH  13  16
ENDBRANCH   9  10
ENDBRANCH   6   9
ENDBRANCH   2   3
TORSDOF 7
ENDMDL
MODEL      110
REMARK 921   NORMALIZED FREE ENERGY PREDICTED BY IDOCK:   -4.93 KCAL/MOL
REMARK 922        TOTAL FREE ENERGY PREDICTED BY IDOCK:   -7.83 KCAL/MOL
REMARK 923 INTER-LIGAND FREE ENERGY PREDICTED BY IDOCK:   -7.03 KCAL/MOL
REMARK 924 INTRA-LIGAND FREE ENERGY PREDICTED BY IDOCK:   -0.80 KCAL/MOL
REMARK 927      BINDING AFFINITY PREDICTED BY RF-SCORE:    0.00 PKD
ROOT
HETATM    1  C   UNL     1      -8.764   2.118  72.023  1.00  0.00    -0.095 C  
HETATM    2  C   UNL     1      -8.654   1.781  70.540  1.00  0.00    -0.052 C  
ENDROOT
BRANCH   2   3
HETATM    3  N   UNL     1      -9.629   2.481  69.687  1.00  0.00    -0.052 NA 
HETATM    4  C   UNL     1      -9.180   3.872  69.438  1.00  0.00    -0.153 C  
HETATM    5  C   UNL     1      -8.055   4.006  68.381  1.00  0.00    -0.076 C  
HETATM    6  N   UNL     1      -8.344   3.347  67.086  1.00  0.00    -0.091 NA 
HETATM    7  C   UNL     1      -9.880   1.807  68.398  1.00  0.00     0.233 C  
HETATM    8  C   UNL     1      -8.738   1.947  67.362  1.00  0.00    -0.108 C  
BRANCH   6   9
HETATM    9  C   UNL     1      -9.412   4.033  66.331  1.00  0.00    -0.191 C  
BRANCH   9  10
HETATM   10  C   UNL     1      -9.082   5.459  65.991  1.00  0.00    -0.159 A  
HETATM   11  C   UNL     1      -8.002   5.771  65.172  1.00  0.00    -0.119 A  
HETATM   12  C   UNL     1      -7.726   7.103  64.899  1.00  0.00    -0.117 A  
HETATM   13  C   UNL     1      -8.524   8.107  65.452  1.00  0.00    -0.147 A  
HETATM   14  N   UNL     1      -9.590   7.821  66.228  1.00  0.00    -0.155 NA 
HETATM   15  C   UNL     1      -9.838   6.517  66.486  1.00  0.00    -0.111 A  
BRANCH  13  16
HETATM   16  N   UNL     1      -8.291   9.444  65.154  1.00  0.00    -0.137 NA 
HETATM   17  H   UNL     1      -8.098   9.671  64.178  1.00  0.00     0.000 HD 
BRANCH  16  18
HETATM   18  C   UNL     1      -8.294  10.499  66.053  1.00  0.00    -0.158 A  
HETATM   19  N   UNL     1      -7.631  10.323  67.205  1.00  0.00    -0.095 NA 
HETATM   20  C   UNL     1      -7.707  11.320  68.107  1.00  0.00    -0.112 A  
HETATM   21  C   UNL     1      -8.345  12.513  67.865  1.00  0.00    -0.167 A  
HETATM   22  F   UNL     1      -8.363  13.467  68.804  1.00  0.00    -0.140 F  
HETATM   23  C   UNL     1      -8.944  12.655  66.630  1.00  0.00    -0.164 A  
HETATM   24  N   UNL     1      -8.954  11.632  65.745  1.00  0.00    -0.125 NA 
BRANCH  23  25
HETATM   25  C   UNL     1      -9.569  13.909  66.148  1.00  0.00    -0.249 A  
HETATM   26  C   UNL     1     -10.715  13.868  65.332  1.00  0.00    -0.330 A  
HETATM   27  C   UNL     1     -11.342  15.033  64.895  1.00  0.00    -0.417 A  
HETATM   28  C   UNL     1     -10.840  16.285  65.266  1.00  0.00    -0.297 A  
HETATM   29  F   UNL     1     -12.432  14.928  64.118  1.00  0.00    -0.518 F  
HETATM   30  N   UNL     1     -11.282  17.537  64.953  1.00  0.00    -0.635 NA 
HETATM   31  C   UNL     1     -10.460  18.382  65.534  1.00  0.00     0.071 A  
HETATM   32  N   UNL     1      -9.476  17.712  66.244  1.00  0.00    -0.424 NA 
HETATM   33  C   UNL     1     -10.611  19.853  65.395  1.00  0.00    -0.187 C  
HETATM   34  C   UNL     1      -9.064  15.179  66.537  1.00  0.00    -0.328 A  
HETATM   35  C   UNL     1      -9.710  16.350  66.081  1.00  0.00    -0.327 A  
BRANCH  32  36
HETATM   36  C   UNL     1      -8.332  18.266  66.971  1.00  0.00    -0.248 C  
HETATM   37  C   UNL     1      -8.659  19.044  68.252  1.00  0.00    -0.366 C  
HETATM   38  C   UNL     1      -7.450  19.114  66.053  1.00  0.00    -0.287 C  
ENDBRANCH  32  36
ENDBRANCH  23  25
ENDBRANCH  16  18
ENDBRANCH  13  16
ENDBRANCH   9  10
ENDBRANCH   6   9
ENDBRANCH   2   3
TORSDOF 7
ENDMDL
MODEL      111
REMARK 921   NORMALIZED FREE ENERGY PREDICTED BY IDOCK:   -4.93 KCAL/MOL
REMARK 922        TOTAL FREE ENERGY PREDICTED BY IDOCK:   -7.82 KCAL/MOL
REMARK 923 INTER-LIGAND FREE ENERGY PREDICTED BY IDOCK:   -8.81 KCAL/MOL
REMARK 924 INTRA-LIGAND FREE ENERGY PREDICTED BY IDOCK:    0.99 KCAL/MOL
REMARK 927      BINDING AFFINITY PREDICTED BY RF-SCORE:    0.00 PKD
ROOT
HETATM    1  C   UNL     1      -5.644  20.963  69.627  1.00  0.00    -0.345 C  
HETATM    2  C   UNL     1      -6.202  20.262  68.394  1.00  0.00    -0.294 C  
ENDROOT
BRANCH   2   3
HETATM    3  N   UNL     1      -7.604  19.830  68.525  1.00  0.00    -0.326 NA 
HETATM    4  C   UNL     1      -8.403  20.346  67.389  1.00  0.00    -0.318 C  
HETATM    5  C   UNL     1      -8.216  19.568  66.062  1.00  0.00    -0.270 C  
HETATM    6  N   UNL     1      -8.416  18.104  66.174  1.00  0.00    -0.490 NA 
HETATM    7  C   UNL     1      -7.767  18.365  68.616  1.00  0.00    -0.301 C  
HETATM    8  C   UNL     1      -7.566  17.609  67.281  1.00  0.00    -0.199 C  
BRANCH   6   9
HETATM    9  C   UNL     1      -9.827  17.745  66.421  1.00  0.00    -0.324 C  
BRANCH   9  10
HETATM   10  C   UNL     1      -9.992  16.452  67.168  1.00  0.00    -0.260 A  
HETATM   11  C   UNL     1      -9.257  15.323  66.822  1.00  0.00    -0.274 A  
HETATM   12  C   UNL     1      -9.457  14.146  67.530  1.00  0.00    -0.210 A  
HETATM   13  C   UNL     1     -10.389  14.109  68.569  1.00  0.00    -0.249 A  
HETATM   14  N   UNL     1     -11.091  15.201  68.934  1.00  0.00    -0.256 NA 
HETATM   15  C   UNL     1     -10.887  16.335  68.226  1.00  0.00    -0.340 A  
BRANCH  13  16
HETATM   16  N   UNL     1     -10.570  12.952  69.319  1.00  0.00    -0.435 NA 
HETATM   17  H   UNL     1     -10.831  13.075  70.298  1.00  0.00     0.000 HD 
BRANCH  16  18
HETATM   18  C   UNL     1     -10.430  11.650  68.868  1.00  0.00    -0.175 A  
HETATM   19  N   UNL     1      -9.883  11.477  67.656  1.00  0.00    -0.179 NA 
HETATM   20  C   UNL     1      -9.825  10.215  67.191  1.00  0.00    -0.187 A  
HETATM   21  C   UNL     1     -10.213   9.120  67.924  1.00  0.00    -0.216 A  
HETATM   22  F   UNL     1     -10.109   7.891  67.401  1.00  0.00    -0.200 F  
HETATM   23  C   UNL     1     -10.700   9.363  69.191  1.00  0.00    -0.197 A  
HETATM   24  N   UNL     1     -10.848  10.630  69.643  1.00  0.00    -0.261 NA 
BRANCH  23  25
HETATM   25  C   UNL     1     -11.050   8.304  70.167  1.00  0.00    -0.189 A  
HETATM   26  C   UNL     1     -12.395   8.047  70.490  1.00  0.00     0.287 A  
HETATM   27  C   UNL     1     -12.752   7.032  71.377  1.00  0.00    -0.374 A  
HETATM   28  C   UNL     1     -11.766   6.237  71.970  1.00  0.00    -0.322 A  
HETATM   29  F   UNL     1     -14.052   6.836  71.645  1.00  0.00    -0.392 F  
HETATM   30  N   UNL     1     -11.884   5.208  72.858  1.00  0.00    -0.179 NA 
HETATM   31  C   UNL     1     -10.664   4.798  73.123  1.00  0.00    -0.243 A  
HETATM   32  N   UNL     1      -9.727   5.531  72.413  1.00  0.00    -0.153 NA 
HETATM   33  C   UNL     1     -10.391   3.696  74.081  1.00  0.00    -0.246 C  
HETATM   34  C   UNL     1     -10.047   7.489  70.757  1.00  0.00    -0.192 A  
HETATM   35  C   UNL     1     -10.426   6.468  71.658  1.00  0.00    -0.213 A  
BRANCH  32  36
HETATM   36  C   UNL     1      -8.265   5.449  72.466  1.00  0.00    -0.114 C  
HETATM   37  C   UNL     1      -7.604   4.512  71.448  1.00  0.00    -0.073 C  
HETATM   38  C   UNL     1      -7.781   5.115  73.878  1.00  0.00    -0.098 C  
ENDBRANCH  32  36
ENDBRANCH  23  25
ENDBRANCH  16  18
ENDBRANCH  13  16
ENDBRANCH   9  10
ENDBRANCH   6   9
ENDBRANCH   2   3
TORSDOF 7
ENDMDL
MODEL      112
REMARK 921   NORMALIZED FREE ENERGY PREDICTED BY IDOCK:   -4.92 KCAL/MOL
REMARK 922        TOTAL FREE ENERGY PREDICTED BY IDOCK:   -7.80 KCAL/MOL
REMARK 923 INTER-LIGAND FREE ENERGY PREDICTED BY IDOCK:   -7.27 KCAL/MOL
REMARK 924 INTRA-LIGAND FREE ENERGY PREDICTED BY IDOCK:   -0.53 KCAL/MOL
REMARK 927      BINDING AFFINITY PREDICTED BY RF-SCORE:    0.00 PKD
ROOT
HETATM    1  C   UNL     1     -11.947   1.893  73.628  1.00  0.00    -0.183 C  
HETATM    2  C   UNL     1     -10.582   2.569  73.560  1.00  0.00    -0.157 C  
ENDROOT
BRANCH   2   3
HETATM    3  N   UNL     1     -10.579   3.972  74.004  1.00  0.00    -0.213 NA 
HETATM    4  C   UNL     1      -9.205   4.385  74.377  1.00  0.00    -0.105 C  
HETATM    5  C   UNL     1      -8.275   4.691  73.176  1.00  0.00    -0.100 C  
HETATM    6  N   UNL     1      -8.828   5.660  72.201  1.00  0.00    -0.137 NA 
HETATM    7  C   UNL     1     -11.120   4.913  73.001  1.00  0.00    -0.295 C  
HETATM    8  C   UNL     1     -10.177   5.195  71.807  1.00  0.00    -0.209 C  
BRANCH   6   9
HETATM    9  C   UNL     1      -8.905   7.029  72.749  1.00  0.00    -0.122 C  
BRANCH   9  10
HETATM   10  C   UNL     1      -8.037   8.015  72.019  1.00  0.00    -0.164 A  
HETATM   11  C   UNL     1      -6.670   8.085  72.262  1.00  0.00    -0.072 A  
HETATM   12  C   UNL     1      -5.912   9.023  71.576  1.00  0.00    -0.064 A  
HETATM   13  C   UNL     1      -6.527   9.882  70.663  1.00  0.00    -0.106 A  
HETATM   14  N   UNL     1      -7.847   9.810  70.397  1.00  0.00    -0.210 NA 
HETATM   15  C   UNL     1      -8.569   8.894  71.082  1.00  0.00    -0.208 A  
BRANCH  13  16
HETATM   16  N   UNL     1      -5.777  10.797  69.933  1.00  0.00    -0.055 NA 
HETATM   17  H   UNL     1      -4.820  10.528  69.703  1.00  0.00     0.000 HD 
BRANCH  16  18
HETATM   18  C   UNL     1      -6.202  12.038  69.487  1.00  0.00    -0.117 A  
HETATM   19  N   UNL     1      -5.376  13.076  69.686  1.00  0.00    -0.083 NA 
HETATM   20  C   UNL     1      -5.830  14.291  69.325  1.00  0.00    -0.088 A  
HETATM   21  C   UNL     1      -7.036  14.492  68.696  1.00  0.00    -0.103 A  
HETATM   22  F   UNL     1      -7.413  15.730  68.349  1.00  0.00    -0.114 F  
HETATM   23  C   UNL     1      -7.804  13.372  68.456  1.00  0.00    -0.115 A  
HETATM   24  N   UNL     1      -7.404  12.154  68.891  1.00  0.00    -0.089 NA 
BRANCH  23  25
HETATM   25  C   UNL     1      -9.069  13.379  67.685  1.00  0.00    -0.203 A  
HETATM   26  C   UNL     1     -10.119  14.243  68.045  1.00  0.00    -0.227 A  
HETATM   27  C   UNL     1     -11.305  14.295  67.314  1.00  0.00    -0.334 A  
HETATM   28  C   UNL     1     -11.476  13.479  66.191  1.00  0.00    -0.325 A  
HETATM   29  F   UNL     1     -12.270  15.141  67.707  1.00  0.00    -0.270 F  
HETATM   30  N   UNL     1     -12.540  13.361  65.345  1.00  0.00    -0.522 NA 
HETATM   31  C   UNL     1     -12.214  12.448  64.457  1.00  0.00    -0.431 A  
HETATM   32  N   UNL     1     -10.938  11.960  64.690  1.00  0.00    -0.305 NA 
HETATM   33  C   UNL     1     -13.144  12.028  63.378  1.00  0.00    -0.101 C  
HETATM   34  C   UNL     1      -9.235  12.558  66.537  1.00  0.00    -0.210 A  
HETATM   35  C   UNL     1     -10.445  12.620  65.811  1.00  0.00    -0.277 A  
BRANCH  32  36
HETATM   36  C   UNL     1     -10.222  10.893  63.986  1.00  0.00    -0.357 C  
HETATM   37  C   UNL     1      -9.568   9.823  64.869  1.00  0.00    -0.316 C  
HETATM   38  C   UNL     1      -9.195  11.467  63.009  1.00  0.00    -0.281 C  
ENDBRANCH  32  36
ENDBRANCH  23  25
ENDBRANCH  16  18
ENDBRANCH  13  16
ENDBRANCH   9  10
ENDBRANCH   6   9
ENDBRANCH   2   3
TORSDOF 7
ENDMDL
MODEL      113
REMARK 921   NORMALIZED FREE ENERGY PREDICTED BY IDOCK:   -4.91 KCAL/MOL
REMARK 922        TOTAL FREE ENERGY PREDICTED BY IDOCK:   -7.79 KCAL/MOL
REMARK 923 INTER-LIGAND FREE ENERGY PREDICTED BY IDOCK:   -7.72 KCAL/MOL
REMARK 924 INTRA-LIGAND FREE ENERGY PREDICTED BY IDOCK:   -0.07 KCAL/MOL
REMARK 927      BINDING AFFINITY PREDICTED BY RF-SCORE:    0.00 PKD
ROOT
HETATM    1  C   UNL     1     -10.757  17.091  68.027  1.00  0.00    -0.365 C  
HETATM    2  C   UNL     1     -11.259  15.739  67.532  1.00  0.00    -0.218 C  
ENDROOT
BRANCH   2   3
HETATM    3  N   UNL     1     -10.724  15.338  66.221  1.00  0.00    -0.310 NA 
HETATM    4  C   UNL     1      -9.629  14.354  66.397  1.00  0.00    -0.299 C  
HETATM    5  C   UNL     1     -10.102  12.915  66.721  1.00  0.00    -0.238 C  
HETATM    6  N   UNL     1     -11.102  12.368  65.775  1.00  0.00    -0.303 NA 
HETATM    7  C   UNL     1     -11.744  14.781  65.309  1.00  0.00    -0.311 C  
HETATM    8  C   UNL     1     -12.207  13.346  65.659  1.00  0.00    -0.463 C  
BRANCH   6   9
HETATM    9  C   UNL     1     -10.527  12.095  64.442  1.00  0.00    -0.317 C  
BRANCH   9  10
HETATM   10  C   UNL     1      -9.839  10.762  64.350  1.00  0.00    -0.374 A  
HETATM   11  C   UNL     1      -9.363  10.281  63.135  1.00  0.00    -0.343 A  
HETATM   12  C   UNL     1      -8.751   9.037  63.096  1.00  0.00    -0.114 A  
HETATM   13  C   UNL     1      -8.626   8.286  64.267  1.00  0.00     0.120 A  
HETATM   14  N   UNL     1      -9.060   8.748  65.458  1.00  0.00    -0.192 NA 
HETATM   15  C   UNL     1      -9.660   9.960  65.472  1.00  0.00    -0.277 A  
BRANCH  13  16
HETATM   16  N   UNL     1      -7.975   7.057  64.256  1.00  0.00    -0.215 NA 
HETATM   17  H   UNL     1      -7.258   6.923  63.544  1.00  0.00     0.000 HD 
BRANCH  16  18
HETATM   18  C   UNL     1      -8.206   5.998  65.119  1.00  0.00    -0.142 A  
HETATM   19  N   UNL     1      -7.803   4.783  64.718  1.00  0.00    -0.089 NA 
HETATM   20  C   UNL     1      -8.103   3.747  65.524  1.00  0.00    -0.097 A  
HETATM   21  C   UNL     1      -8.711   3.892  66.748  1.00  0.00    -0.115 A  
HETATM   22  F   UNL     1      -8.961   2.816  67.504  1.00  0.00    -0.121 F  
HETATM   23  C   UNL     1      -9.034   5.178  67.131  1.00  0.00    -0.112 A  
HETATM   24  N   UNL     1      -8.820   6.222  66.297  1.00  0.00    -0.144 NA 
BRANCH  23  25
HETATM   25  C   UNL     1      -9.579   5.538  68.460  1.00  0.00    -0.162 A  
HETATM   26  C   UNL     1     -10.909   5.979  68.591  1.00  0.00    -0.379 A  
HETATM   27  C   UNL     1     -11.457   6.288  69.835  1.00  0.00    -0.389 A  
HETATM   28  C   UNL     1     -10.685   6.165  70.995  1.00  0.00    -0.260 A  
HETATM   29  F   UNL     1     -12.732   6.704  69.894  1.00  0.00    -0.049 F  
HETATM   30  N   UNL     1     -11.008   6.416  72.296  1.00  0.00    -0.241 NA 
HETATM   31  C   UNL     1      -9.933   6.159  73.007  1.00  0.00    -0.176 A  
HETATM   32  N   UNL     1      -8.894   5.726  72.199  1.00  0.00    -0.137 NA 
HETATM   33  C   UNL     1      -9.897   6.345  74.480  1.00  0.00    -0.356 C  
HETATM   34  C   UNL     1      -8.797   5.398  69.638  1.00  0.00    -0.123 A  
HETATM   35  C   UNL     1      -9.367   5.722  70.890  1.00  0.00    -0.160 A  
BRANCH  32  36
HETATM   36  C   UNL     1      -7.515   5.403  72.573  1.00  0.00    -0.096 C  
HETATM   37  C   UNL     1      -7.292   4.025  73.208  1.00  0.00    -0.070 C  
HETATM   38  C   UNL     1      -6.912   6.494  73.460  1.00  0.00    -0.077 C  
ENDBRANCH  32  36
ENDBRANCH  23  25
ENDBRANCH  16  18
ENDBRANCH  13  16
ENDBRANCH   9  10
ENDBRANCH   6   9
ENDBRANCH   2   3
TORSDOF 7
ENDMDL
MODEL      114
REMARK 921   NORMALIZED FREE ENERGY PREDICTED BY IDOCK:   -4.89 KCAL/MOL
REMARK 922        TOTAL FREE ENERGY PREDICTED BY IDOCK:   -7.77 KCAL/MOL
REMARK 923 INTER-LIGAND FREE ENERGY PREDICTED BY IDOCK:   -7.03 KCAL/MOL
REMARK 924 INTRA-LIGAND FREE ENERGY PREDICTED BY IDOCK:   -0.74 KCAL/MOL
REMARK 927      BINDING AFFINITY PREDICTED BY RF-SCORE:    0.00 PKD
ROOT
HETATM    1  C   UNL     1      -9.254   2.676  69.904  1.00  0.00    -0.205 C  
HETATM    2  C   UNL     1      -9.396   3.111  68.449  1.00  0.00    -0.184 C  
ENDROOT
BRANCH   2   3
HETATM    3  N   UNL     1      -8.270   3.916  67.946  1.00  0.00    -0.091 NA 
HETATM    4  C   UNL     1      -8.667   4.625  66.706  1.00  0.00    -0.111 C  
HETATM    5  C   UNL     1      -9.551   5.877  66.934  1.00  0.00    -0.142 C  
HETATM    6  N   UNL     1      -8.996   6.855  67.899  1.00  0.00    -0.122 NA 
HETATM    7  C   UNL     1      -7.754   4.892  68.927  1.00  0.00    -0.073 C  
HETATM    8  C   UNL     1      -8.659   6.129  69.144  1.00  0.00    -0.119 C  
BRANCH   6   9
HETATM    9  C   UNL     1      -7.800   7.545  67.376  1.00  0.00    -0.118 C  
BRANCH   9  10
HETATM   10  C   UNL     1      -7.306   8.645  68.273  1.00  0.00    -0.087 A  
HETATM   11  C   UNL     1      -5.955   8.775  68.574  1.00  0.00    -0.045 A  
HETATM   12  C   UNL     1      -5.548   9.797  69.420  1.00  0.00    -0.034 A  
HETATM   13  C   UNL     1      -6.494  10.671  69.961  1.00  0.00    -0.138 A  
HETATM   14  N   UNL     1      -7.805  10.574  69.660  1.00  0.00    -0.128 NA 
HETATM   15  C   UNL     1      -8.181   9.567  68.839  1.00  0.00    -0.116 A  
BRANCH  13  16
HETATM   16  N   UNL     1      -6.101  11.727  70.775  1.00  0.00    -0.524 NA 
HETATM   17  H   UNL     1      -5.788  11.491  71.717  1.00  0.00     0.000 HD 
BRANCH  16  18
HETATM   18  C   UNL     1      -6.094  13.070  70.432  1.00  0.00    -0.041 A  
HETATM   19  N   UNL     1      -5.177  13.848  71.026  1.00  0.00    -0.126 NA 
HETATM   20  C   UNL     1      -5.229  15.165  70.750  1.00  0.00    -0.138 A  
HETATM   21  C   UNL     1      -6.102  15.714  69.842  1.00  0.00    -0.162 A  
HETATM   22  F   UNL     1      -6.082  17.033  69.605  1.00  0.00    -0.186 F  
HETATM   23  C   UNL     1      -6.969  14.846  69.213  1.00  0.00    -0.151 A  
HETATM   24  N   UNL     1      -6.992  13.533  69.541  1.00  0.00     0.040 NA 
BRANCH  23  25
HETATM   25  C   UNL     1      -7.892  15.235  68.121  1.00  0.00    -0.122 A  
HETATM   26  C   UNL     1      -7.768  16.490  67.495  1.00  0.00    -0.171 A  
HETATM   27  C   UNL     1      -8.600  16.865  66.442  1.00  0.00    -0.293 A  
HETATM   28  C   UNL     1      -9.588  15.990  65.979  1.00  0.00    -0.350 A  
HETATM   29  F   UNL     1      -8.432  18.075  65.886  1.00  0.00    -0.208 F  
HETATM   30  N   UNL     1     -10.505  16.150  64.981  1.00  0.00    -0.615 NA 
HETATM   31  C   UNL     1     -11.218  15.046  64.946  1.00  0.00    -0.416 A  
HETATM   32  N   UNL     1     -10.783  14.142  65.901  1.00  0.00    -0.292 NA 
HETATM   33  C   UNL     1     -12.342  14.862  63.993  1.00  0.00    -0.089 C  
HETATM   34  C   UNL     1      -8.886  14.339  67.644  1.00  0.00    -0.196 A  
HETATM   35  C   UNL     1      -9.724  14.739  66.579  1.00  0.00    -0.278 A  
BRANCH  32  36
HETATM   36  C   UNL     1     -11.340  12.831  66.245  1.00  0.00    -0.320 C  
HETATM   37  C   UNL     1     -11.856  12.672  67.680  1.00  0.00    -0.390 C  
HETATM   38  C   UNL     1     -10.358  11.707  65.912  1.00  0.00    -0.289 C  
ENDBRANCH  32  36
ENDBRANCH  23  25
ENDBRANCH  16  18
ENDBRANCH  13  16
ENDBRANCH   9  10
ENDBRANCH   6   9
ENDBRANCH   2   3
TORSDOF 7
ENDMDL
MODEL      115
REMARK 921   NORMALIZED FREE ENERGY PREDICTED BY IDOCK:   -4.87 KCAL/MOL
REMARK 922        TOTAL FREE ENERGY PREDICTED BY IDOCK:   -7.73 KCAL/MOL
REMARK 923 INTER-LIGAND FREE ENERGY PREDICTED BY IDOCK:   -6.98 KCAL/MOL
REMARK 924 INTRA-LIGAND FREE ENERGY PREDICTED BY IDOCK:   -0.75 KCAL/MOL
REMARK 927      BINDING AFFINITY PREDICTED BY RF-SCORE:    0.00 PKD
ROOT
HETATM    1  C   UNL     1     -11.481   3.744  73.362  1.00  0.00    -0.165 C  
HETATM    2  C   UNL     1     -11.014   5.117  72.893  1.00  0.00    -0.284 C  
ENDROOT
BRANCH   2   3
HETATM    3  N   UNL     1      -9.705   5.113  72.219  1.00  0.00    -0.159 NA 
HETATM    4  C   UNL     1      -9.808   4.422  70.912  1.00  0.00    -0.196 C  
HETATM    5  C   UNL     1     -10.462   5.264  69.787  1.00  0.00    -0.269 C  
HETATM    6  N   UNL     1      -9.854   6.600  69.586  1.00  0.00    -0.157 NA 
HETATM    7  C   UNL     1      -9.137   6.462  72.019  1.00  0.00    -0.141 C  
HETATM    8  C   UNL     1      -9.812   7.287  70.897  1.00  0.00    -0.184 C  
BRANCH   6   9
HETATM    9  C   UNL     1      -8.495   6.520  69.014  1.00  0.00    -0.125 C  
BRANCH   9  10
HETATM   10  C   UNL     1      -7.863   7.865  68.787  1.00  0.00    -0.118 A  
HETATM   11  C   UNL     1      -8.485   8.827  67.999  1.00  0.00    -0.126 A  
HETATM   12  C   UNL     1      -7.855  10.048  67.805  1.00  0.00    -0.094 A  
HETATM   13  C   UNL     1      -6.611  10.291  68.391  1.00  0.00    -0.056 A  
HETATM   14  N   UNL     1      -6.005   9.378  69.178  1.00  0.00    -0.041 NA 
HETATM   15  C   UNL     1      -6.633   8.192  69.349  1.00  0.00    -0.035 A  
BRANCH  13  16
HETATM   16  N   UNL     1      -5.985  11.523  68.245  1.00  0.00    -0.045 NA 
HETATM   17  H   UNL     1      -5.590  11.733  67.328  1.00  0.00     0.000 HD 
BRANCH  16  18
HETATM   18  C   UNL     1      -5.845  12.495  69.222  1.00  0.00    -0.086 A  
HETATM   19  N   UNL     1      -5.188  12.150  70.339  1.00  0.00    -0.102 NA 
HETATM   20  C   UNL     1      -5.127  13.073  71.318  1.00  0.00    -0.170 A  
HETATM   21  C   UNL     1      -5.620  14.348  71.186  1.00  0.00    -0.183 A  
HETATM   22  F   UNL     1      -5.506  15.220  72.197  1.00  0.00    -0.027 F  
HETATM   23  C   UNL     1      -6.220  14.660  69.983  1.00  0.00    -0.159 A  
HETATM   24  N   UNL     1      -6.369  13.720  69.021  1.00  0.00    -0.094 NA 
BRANCH  23  25
HETATM   25  C   UNL     1      -6.697  16.014  69.617  1.00  0.00    -0.171 A  
HETATM   26  C   UNL     1      -5.910  17.147  69.893  1.00  0.00    -0.236 A  
HETATM   27  C   UNL     1      -6.320  18.428  69.526  1.00  0.00    -0.230 A  
HETATM   28  C   UNL     1      -7.539  18.615  68.865  1.00  0.00    -0.254 A  
HETATM   29  F   UNL     1      -5.525  19.470  69.817  1.00  0.00    -0.205 F  
HETATM   30  N   UNL     1      -8.133  19.761  68.425  1.00  0.00    -0.306 NA 
HETATM   31  C   UNL     1      -9.276  19.407  67.881  1.00  0.00    -0.320 A  
HETATM   32  N   UNL     1      -9.452  18.034  67.939  1.00  0.00    -0.267 NA 
HETATM   33  C   UNL     1     -10.220  20.402  67.310  1.00  0.00    -0.432 C  
HETATM   34  C   UNL     1      -7.929  16.199  68.934  1.00  0.00    -0.223 A  
HETATM   35  C   UNL     1      -8.332  17.505  68.574  1.00  0.00    -0.274 A  
BRANCH  32  36
HETATM   36  C   UNL     1     -10.606  17.238  67.516  1.00  0.00    -0.329 C  
HETATM   37  C   UNL     1     -11.144  16.232  68.541  1.00  0.00    -0.368 C  
HETATM   38  C   UNL     1     -10.337  16.538  66.183  1.00  0.00    -0.344 C  
ENDBRANCH  32  36
ENDBRANCH  23  25
ENDBRANCH  16  18
ENDBRANCH  13  16
ENDBRANCH   9  10
ENDBRANCH   6   9
ENDBRANCH   2   3
TORSDOF 7
ENDMDL
MODEL      116
REMARK 921   NORMALIZED FREE ENERGY PREDICTED BY IDOCK:   -4.82 KCAL/MOL
REMARK 922        TOTAL FREE ENERGY PREDICTED BY IDOCK:   -7.66 KCAL/MOL
REMARK 923 INTER-LIGAND FREE ENERGY PREDICTED BY IDOCK:   -6.85 KCAL/MOL
REMARK 924 INTRA-LIGAND FREE ENERGY PREDICTED BY IDOCK:   -0.82 KCAL/MOL
REMARK 927      BINDING AFFINITY PREDICTED BY RF-SCORE:    0.00 PKD
ROOT
HETATM    1  C   UNL     1      -6.683  20.614  66.112  1.00  0.00    -0.263 C  
HETATM    2  C   UNL     1      -8.168  20.273  66.149  1.00  0.00    -0.107 C  
ENDROOT
BRANCH   2   3
HETATM    3  N   UNL     1      -8.562  19.404  67.270  1.00  0.00    -0.289 NA 
HETATM    4  C   UNL     1     -10.035  19.246  67.297  1.00  0.00    -0.363 C  
HETATM    5  C   UNL     1     -10.597  18.258  66.244  1.00  0.00    -0.296 C  
HETATM    6  N   UNL     1      -9.963  16.920  66.255  1.00  0.00    -0.296 NA 
HETATM    7  C   UNL     1      -7.925  18.072  67.239  1.00  0.00    -0.212 C  
HETATM    8  C   UNL     1      -8.496  17.107  66.173  1.00  0.00    -0.203 C  
BRANCH   6   9
HETATM    9  C   UNL     1     -10.306  16.142  67.462  1.00  0.00    -0.286 C  
BRANCH   9  10
HETATM   10  C   UNL     1      -9.686  14.774  67.489  1.00  0.00    -0.213 A  
HETATM   11  C   UNL     1     -10.246  13.717  66.779  1.00  0.00    -0.268 A  
HETATM   12  C   UNL     1      -9.647  12.468  66.847  1.00  0.00    -0.229 A  
HETATM   13  C   UNL     1      -8.503  12.286  67.627  1.00  0.00    -0.166 A  
HETATM   14  N   UNL     1      -7.932  13.305  68.301  1.00  0.00    -0.139 NA 
HETATM   15  C   UNL     1      -8.536  14.514  68.226  1.00  0.00    -0.171 A  
BRANCH  13  16
HETATM   16  N   UNL     1      -7.863  11.053  67.672  1.00  0.00    -0.111 NA 
HETATM   17  H   UNL     1      -7.747  10.562  66.785  1.00  0.00     0.000 HD 
BRANCH  16  18
HETATM   18  C   UNL     1      -7.367  10.425  68.803  1.00  0.00    -0.089 A  
HETATM   19  N   UNL     1      -6.124  10.750  69.188  1.00  0.00    -0.041 NA 
HETATM   20  C   UNL     1      -5.618  10.077  70.239  1.00  0.00    -0.051 A  
HETATM   21  C   UNL     1      -6.338   9.159  70.966  1.00  0.00    -0.071 A  
HETATM   22  F   UNL     1      -5.774   8.541  72.012  1.00  0.00    -0.036 F  
HETATM   23  C   UNL     1      -7.635   8.925  70.559  1.00  0.00    -0.093 A  
HETATM   24  N   UNL     1      -8.131   9.527  69.453  1.00  0.00    -0.106 NA 
BRANCH  23  25
HETATM   25  C   UNL     1      -8.595   8.066  71.291  1.00  0.00    -0.145 A  
HETATM   26  C   UNL     1      -9.681   8.636  71.982  1.00  0.00    -0.391 A  
HETATM   27  C   UNL     1     -10.618   7.847  72.646  1.00  0.00    -0.329 A  
HETATM   28  C   UNL     1     -10.497   6.454  72.640  1.00  0.00    -0.210 A  
HETATM   29  F   UNL     1     -11.632   8.450  73.288  1.00  0.00    -0.246 F  
HETATM   30  N   UNL     1     -11.282   5.501  73.220  1.00  0.00    -0.272 NA 
HETATM   31  C   UNL     1     -10.738   4.340  72.933  1.00  0.00    -0.167 A  
HETATM   32  N   UNL     1      -9.603   4.500  72.156  1.00  0.00    -0.147 NA 
HETATM   33  C   UNL     1     -11.307   3.058  73.424  1.00  0.00    -0.211 C  
HETATM   34  C   UNL     1      -8.478   6.650  71.270  1.00  0.00    -0.125 A  
HETATM   35  C   UNL     1      -9.434   5.867  71.955  1.00  0.00    -0.151 A  
BRANCH  32  36
HETATM   36  C   UNL     1      -8.667   3.479  71.679  1.00  0.00    -0.089 C  
HETATM   37  C   UNL     1      -9.226   2.469  70.670  1.00  0.00    -0.203 C  
HETATM   38  C   UNL     1      -8.006   2.745  72.846  1.00  0.00    -0.062 C  
ENDBRANCH  32  36
ENDBRANCH  23  25
ENDBRANCH  16  18
ENDBRANCH  13  16
ENDBRANCH   9  10
ENDBRANCH   6   9
ENDBRANCH   2   3
TORSDOF 7
ENDMDL
MODEL      117
REMARK 921   NORMALIZED FREE ENERGY PREDICTED BY IDOCK:   -4.80 KCAL/MOL
REMARK 922        TOTAL FREE ENERGY PREDICTED BY IDOCK:   -7.64 KCAL/MOL
REMARK 923 INTER-LIGAND FREE ENERGY PREDICTED BY IDOCK:   -6.45 KCAL/MOL
REMARK 924 INTRA-LIGAND FREE ENERGY PREDICTED BY IDOCK:   -1.19 KCAL/MOL
REMARK 927      BINDING AFFINITY PREDICTED BY RF-SCORE:    0.00 PKD
ROOT
HETATM    1  C   UNL     1     -10.881   2.658  63.110  1.00  0.00    -0.230 C  
HETATM    2  C   UNL     1      -9.689   3.438  63.653  1.00  0.00    -0.141 C  
ENDROOT
BRANCH   2   3
HETATM    3  N   UNL     1      -9.549   3.386  65.117  1.00  0.00    -0.154 NA 
HETATM    4  C   UNL     1      -8.220   2.838  65.482  1.00  0.00    -0.089 C  
HETATM    5  C   UNL     1      -7.047   3.840  65.336  1.00  0.00    -0.066 C  
HETATM    6  N   UNL     1      -7.250   5.131  66.033  1.00  0.00    -0.072 NA 
HETATM    7  C   UNL     1      -9.739   4.693  65.778  1.00  0.00    -0.197 C  
HETATM    8  C   UNL     1      -8.559   5.680  65.610  1.00  0.00    -0.150 C  
BRANCH   6   9
HETATM    9  C   UNL     1      -7.212   4.990  67.502  1.00  0.00    -0.070 C  
BRANCH   9  10
HETATM   10  C   UNL     1      -6.893   6.273  68.217  1.00  0.00    -0.071 A  
HETATM   11  C   UNL     1      -5.810   7.058  67.836  1.00  0.00    -0.025 A  
HETATM   12  C   UNL     1      -5.544   8.225  68.537  1.00  0.00    -0.037 A  
HETATM   13  C   UNL     1      -6.357   8.592  69.612  1.00  0.00    -0.039 A  
HETATM   14  N   UNL     1      -7.426   7.856  69.978  1.00  0.00    -0.077 NA 
HETATM   15  C   UNL     1      -7.663   6.718  69.286  1.00  0.00    -0.105 A  
BRANCH  13  16
HETATM   16  N   UNL     1      -6.135   9.781  70.297  1.00  0.00    -0.059 NA 
HETATM   17  H   UNL     1      -5.774   9.703  71.249  1.00  0.00     0.000 HD 
BRANCH  16  18
HETATM   18  C   UNL     1      -6.354  11.061  69.815  1.00  0.00    -0.124 A  
HETATM   19  N   UNL     1      -5.391  11.969  70.028  1.00  0.00    -0.086 NA 
HETATM   20  C   UNL     1      -5.646  13.230  69.630  1.00  0.00    -0.100 A  
HETATM   21  C   UNL     1      -6.785  13.593  68.953  1.00  0.00    -0.108 A  
HETATM   22  F   UNL     1      -6.962  14.865  68.571  1.00  0.00    -0.096 F  
HETATM   23  C   UNL     1      -7.703  12.594  68.703  1.00  0.00    -0.066 A  
HETATM   24  N   UNL     1      -7.505  11.340  69.173  1.00  0.00    -0.110 NA 
BRANCH  23  25
HETATM   25  C   UNL     1      -8.925  12.772  67.885  1.00  0.00    -0.186 A  
HETATM   26  C   UNL     1      -9.915  13.694  68.272  1.00  0.00    -0.236 A  
HETATM   27  C   UNL     1     -11.056  13.906  67.500  1.00  0.00    -0.286 A  
HETATM   28  C   UNL     1     -11.243  13.198  66.308  1.00  0.00    -0.301 A  
HETATM   29  F   UNL     1     -11.965  14.800  67.922  1.00  0.00    -0.357 F  
HETATM   30  N   UNL     1     -12.271  13.240  65.413  1.00  0.00    -0.428 NA 
HETATM   31  C   UNL     1     -11.981  12.374  64.467  1.00  0.00    -0.402 A  
HETATM   32  N   UNL     1     -10.764  11.759  64.711  1.00  0.00    -0.289 NA 
HETATM   33  C   UNL     1     -12.892  12.122  63.321  1.00  0.00    -0.312 C  
HETATM   34  C   UNL     1      -9.105  12.061  66.668  1.00  0.00    -0.205 A  
HETATM   35  C   UNL     1     -10.271  12.285  65.901  1.00  0.00    -0.249 A  
BRANCH  32  36
HETATM   36  C   UNL     1     -10.107  10.692  63.952  1.00  0.00    -0.289 C  
HETATM   37  C   UNL     1      -9.296   9.681  64.771  1.00  0.00    -0.286 C  
HETATM   38  C   UNL     1      -9.247  11.264  62.823  1.00  0.00    -0.354 C  
ENDBRANCH  32  36
ENDBRANCH  23  25
ENDBRANCH  16  18
ENDBRANCH  13  16
ENDBRANCH   9  10
ENDBRANCH   6   9
ENDBRANCH   2   3
TORSDOF 7
ENDMDL
MODEL      118
REMARK 921   NORMALIZED FREE ENERGY PREDICTED BY IDOCK:   -4.76 KCAL/MOL
REMARK 922        TOTAL FREE ENERGY PREDICTED BY IDOCK:   -7.58 KCAL/MOL
REMARK 923 INTER-LIGAND FREE ENERGY PREDICTED BY IDOCK:   -7.52 KCAL/MOL
REMARK 924 INTRA-LIGAND FREE ENERGY PREDICTED BY IDOCK:   -0.07 KCAL/MOL
REMARK 927      BINDING AFFINITY PREDICTED BY RF-SCORE:    0.00 PKD
ROOT
HETATM    1  C   UNL     1      -5.616  20.860  69.729  1.00  0.00    -0.308 C  
HETATM    2  C   UNL     1      -5.155  20.511  68.319  1.00  0.00    -0.226 C  
ENDROOT
BRANCH   2   3
HETATM    3  N   UNL     1      -5.669  19.227  67.815  1.00  0.00    -0.189 NA 
HETATM    4  C   UNL     1      -6.795  18.763  68.660  1.00  0.00    -0.272 C  
HETATM    5  C   UNL     1      -8.140  19.485  68.396  1.00  0.00    -0.342 C  
HETATM    6  N   UNL     1      -8.567  19.492  66.977  1.00  0.00    -0.290 NA 
HETATM    7  C   UNL     1      -6.102  19.275  66.403  1.00  0.00    -0.165 C  
HETATM    8  C   UNL     1      -7.443  20.008  66.163  1.00  0.00    -0.302 C  
BRANCH   6   9
HETATM    9  C   UNL     1      -8.961  18.151  66.501  1.00  0.00    -0.275 C  
BRANCH   9  10
HETATM   10  C   UNL     1      -9.558  17.287  67.576  1.00  0.00    -0.259 A  
HETATM   11  C   UNL     1     -10.841  17.523  68.057  1.00  0.00    -0.260 A  
HETATM   12  C   UNL     1     -11.343  16.710  69.063  1.00  0.00    -0.090 A  
HETATM   13  C   UNL     1     -10.559  15.676  69.579  1.00  0.00    -0.266 A  
HETATM   14  N   UNL     1      -9.323  15.417  69.106  1.00  0.00    -0.230 NA 
HETATM   15  C   UNL     1      -8.849  16.227  68.131  1.00  0.00    -0.183 A  
BRANCH  13  16
HETATM   16  N   UNL     1     -11.061  14.822  70.554  1.00  0.00    -0.478 NA 
HETATM   17  H   UNL     1     -11.095  15.182  71.508  1.00  0.00     0.000 HD 
BRANCH  16  18
HETATM   18  C   UNL     1     -11.521  13.529  70.357  1.00  0.00     0.143 A  
HETATM   19  N   UNL     1     -12.520  13.108  71.146  1.00  0.00    -0.341 NA 
HETATM   20  C   UNL     1     -12.906  11.826  71.005  1.00  0.00    -0.215 A  
HETATM   21  C   UNL     1     -12.390  10.982  70.051  1.00  0.00    -0.305 A  
HETATM   22  F   UNL     1     -12.837   9.722  69.958  1.00  0.00     0.017 F  
HETATM   23  C   UNL     1     -11.415  11.502  69.225  1.00  0.00    -0.305 A  
HETATM   24  N   UNL     1     -10.953  12.760  69.408  1.00  0.00    -0.060 NA 
BRANCH  23  25
HETATM   25  C   UNL     1     -10.835  10.782  68.067  1.00  0.00    -0.302 A  
HETATM   26  C   UNL     1     -11.189  11.140  66.753  1.00  0.00    -0.215 A  
HETATM   27  C   UNL     1     -10.630  10.503  65.647  1.00  0.00    -0.062 A  
HETATM   28  C   UNL     1      -9.689   9.482  65.823  1.00  0.00    -0.287 A  
HETATM   29  F   UNL     1     -11.008  10.889  64.418  1.00  0.00    -0.408 F  
HETATM   30  N   UNL     1      -9.028   8.729  64.898  1.00  0.00    -0.085 NA 
HETATM   31  C   UNL     1      -8.265   7.895  65.569  1.00  0.00    -0.140 A  
HETATM   32  N   UNL     1      -8.396   8.088  66.935  1.00  0.00    -0.114 NA 
HETATM   33  C   UNL     1      -7.407   6.889  64.892  1.00  0.00    -0.087 C  
HETATM   34  C   UNL     1      -9.870   9.755  68.249  1.00  0.00    -0.167 A  
HETATM   35  C   UNL     1      -9.317   9.117  67.116  1.00  0.00    -0.143 A  
BRANCH  32  36
HETATM   36  C   UNL     1      -7.785   7.334  68.032  1.00  0.00    -0.117 C  
HETATM   37  C   UNL     1      -8.751   6.581  68.954  1.00  0.00    -0.127 C  
HETATM   38  C   UNL     1      -6.850   8.218  68.858  1.00  0.00    -0.061 C  
ENDBRANCH  32  36
ENDBRANCH  23  25
ENDBRANCH  16  18
ENDBRANCH  13  16
ENDBRANCH   9  10
ENDBRANCH   6   9
ENDBRANCH   2   3
TORSDOF 7
ENDMDL
MODEL      119
REMARK 921   NORMALIZED FREE ENERGY PREDICTED BY IDOCK:   -4.74 KCAL/MOL
REMARK 922        TOTAL FREE ENERGY PREDICTED BY IDOCK:   -7.56 KCAL/MOL
REMARK 923 INTER-LIGAND FREE ENERGY PREDICTED BY IDOCK:   -6.82 KCAL/MOL
REMARK 924 INTRA-LIGAND FREE ENERGY PREDICTED BY IDOCK:   -0.73 KCAL/MOL
REMARK 927      BINDING AFFINITY PREDICTED BY RF-SCORE:    0.00 PKD
ROOT
HETATM    1  C   UNL     1     -10.514   1.502  63.210  1.00  0.00    -0.137 C  
HETATM    2  C   UNL     1     -10.009   2.914  63.482  1.00  0.00    -0.145 C  
ENDROOT
BRANCH   2   3
HETATM    3  N   UNL     1      -9.016   3.003  64.566  1.00  0.00    -0.111 NA 
HETATM    4  C   UNL     1      -7.933   3.941  64.187  1.00  0.00    -0.086 C  
HETATM    5  C   UNL     1      -8.306   5.440  64.312  1.00  0.00    -0.124 C  
HETATM    6  N   UNL     1      -8.850   5.831  65.634  1.00  0.00    -0.153 NA 
HETATM    7  C   UNL     1      -9.590   3.412  65.864  1.00  0.00    -0.059 C  
HETATM    8  C   UNL     1      -9.962   4.910  65.962  1.00  0.00    -0.223 C  
BRANCH   6   9
HETATM    9  C   UNL     1      -7.828   5.788  66.699  1.00  0.00    -0.101 C  
BRANCH   9  10
HETATM   10  C   UNL     1      -7.791   7.031  67.542  1.00  0.00    -0.112 A  
HETATM   11  C   UNL     1      -6.936   7.134  68.634  1.00  0.00    -0.082 A  
HETATM   12  C   UNL     1      -6.950   8.295  69.393  1.00  0.00    -0.050 A  
HETATM   13  C   UNL     1      -7.820   9.336  69.058  1.00  0.00    -0.082 A  
HETATM   14  N   UNL     1      -8.637   9.262  67.988  1.00  0.00    -0.121 NA 
HETATM   15  C   UNL     1      -8.613   8.119  67.266  1.00  0.00    -0.124 A  
BRANCH  13  16
HETATM   16  N   UNL     1      -7.816  10.524  69.779  1.00  0.00    -0.348 NA 
HETATM   17  H   UNL     1      -8.301  10.519  70.677  1.00  0.00     0.000 HD 
BRANCH  16  18
HETATM   18  C   UNL     1      -7.218  11.715  69.398  1.00  0.00     0.039 A  
HETATM   19  N   UNL     1      -5.921  11.872  69.698  1.00  0.00    -0.101 NA 
HETATM   20  C   UNL     1      -5.368  13.063  69.398  1.00  0.00    -0.077 A  
HETATM   21  C   UNL     1      -6.039  14.062  68.735  1.00  0.00    -0.086 A  
HETATM   22  F   UNL     1      -5.417  15.215  68.454  1.00  0.00    -0.085 F  
HETATM   23  C   UNL     1      -7.350  13.807  68.391  1.00  0.00    -0.117 A  
HETATM   24  N   UNL     1      -7.949  12.651  68.762  1.00  0.00    -0.003 NA 
BRANCH  23  25
HETATM   25  C   UNL     1      -8.188  14.713  67.571  1.00  0.00    -0.203 A  
HETATM   26  C   UNL     1      -8.892  14.220  66.457  1.00  0.00    -0.095 A  
HETATM   27  C   UNL     1      -9.715  15.044  65.691  1.00  0.00    -0.309 A  
HETATM   28  C   UNL     1      -9.861  16.396  66.021  1.00  0.00    -0.335 A  
HETATM   29  F   UNL     1     -10.362  14.516  64.640  1.00  0.00    -0.431 F  
HETATM   30  N   UNL     1     -10.597  17.373  65.417  1.00  0.00    -0.631 NA 
HETATM   31  C   UNL     1     -10.387  18.477  66.098  1.00  0.00    -0.426 A  
HETATM   32  N   UNL     1      -9.528  18.251  67.161  1.00  0.00    -0.263 NA 
HETATM   33  C   UNL     1     -11.009  19.771  65.716  1.00  0.00    -0.252 C  
HETATM   34  C   UNL     1      -8.344  16.082  67.916  1.00  0.00    -0.158 A  
HETATM   35  C   UNL     1      -9.179  16.904  67.126  1.00  0.00    -0.229 A  
BRANCH  32  36
HETATM   36  C   UNL     1      -8.982  19.214  68.120  1.00  0.00    -0.322 C  
HETATM   37  C   UNL     1      -7.586  18.901  68.671  1.00  0.00    -0.366 C  
HETATM   38  C   UNL     1      -9.957  19.462  69.272  1.00  0.00    -0.316 C  
ENDBRANCH  32  36
ENDBRANCH  23  25
ENDBRANCH  16  18
ENDBRANCH  13  16
ENDBRANCH   9  10
ENDBRANCH   6   9
ENDBRANCH   2   3
TORSDOF 7
ENDMDL
MODEL      120
REMARK 921   NORMALIZED FREE ENERGY PREDICTED BY IDOCK:   -4.74 KCAL/MOL
REMARK 922        TOTAL FREE ENERGY PREDICTED BY IDOCK:   -7.55 KCAL/MOL
REMARK 923 INTER-LIGAND FREE ENERGY PREDICTED BY IDOCK:   -6.90 KCAL/MOL
REMARK 924 INTRA-LIGAND FREE ENERGY PREDICTED BY IDOCK:   -0.66 KCAL/MOL
REMARK 927      BINDING AFFINITY PREDICTED BY RF-SCORE:    0.00 PKD
ROOT
HETATM    1  C   UNL     1     -10.667  19.829  65.509  1.00  0.00    -0.329 C  
HETATM    2  C   UNL     1      -9.698  20.021  66.669  1.00  0.00    -0.442 C  
ENDROOT
BRANCH   2   3
HETATM    3  N   UNL     1      -8.401  19.347  66.492  1.00  0.00    -0.312 NA 
HETATM    4  C   UNL     1      -7.382  19.965  67.374  1.00  0.00    -0.256 C  
HETATM    5  C   UNL     1      -7.476  19.543  68.862  1.00  0.00    -0.357 C  
HETATM    6  N   UNL     1      -7.492  18.079  69.087  1.00  0.00    -0.149 NA 
HETATM    7  C   UNL     1      -8.449  17.892  66.742  1.00  0.00    -0.249 C  
HETATM    8  C   UNL     1      -8.553  17.496  68.234  1.00  0.00    -0.266 C  
BRANCH   6   9
HETATM    9  C   UNL     1      -6.193  17.448  68.781  1.00  0.00    -0.182 C  
BRANCH   9  10
HETATM   10  C   UNL     1      -6.256  15.947  68.727  1.00  0.00    -0.109 A  
HETATM   11  C   UNL     1      -5.646  15.238  67.698  1.00  0.00    -0.059 A  
HETATM   12  C   UNL     1      -5.745  13.855  67.682  1.00  0.00    -0.009 A  
HETATM   13  C   UNL     1      -6.457  13.196  68.687  1.00  0.00    -0.087 A  
HETATM   14  N   UNL     1      -7.034  13.866  69.706  1.00  0.00     0.058 NA 
HETATM   15  C   UNL     1      -6.930  15.215  69.699  1.00  0.00    -0.192 A  
BRANCH  13  16
HETATM   16  N   UNL     1      -6.530  11.808  68.713  1.00  0.00    -0.060 NA 
HETATM   17  H   UNL     1      -5.809  11.320  69.244  1.00  0.00     0.000 HD 
BRANCH  16  18
HETATM   18  C   UNL     1      -7.486  11.023  68.088  1.00  0.00    -0.092 A  
HETATM   19  N   UNL     1      -7.954  11.453  66.907  1.00  0.00    -0.153 NA 
HETATM   20  C   UNL     1      -8.940  10.729  66.345  1.00  0.00    -0.166 A  
HETATM   21  C   UNL     1      -9.411   9.553  66.875  1.00  0.00    -0.158 A  
HETATM   22  F   UNL     1     -10.383   8.876  66.250  1.00  0.00    -0.360 F  
HETATM   23  C   UNL     1      -8.835   9.130  68.056  1.00  0.00    -0.129 A  
HETATM   24  N   UNL     1      -7.905   9.889  68.681  1.00  0.00    -0.084 NA 
BRANCH  23  25
HETATM   25  C   UNL     1      -9.127   7.832  68.707  1.00  0.00    -0.140 A  
HETATM   26  C   UNL     1      -8.863   6.622  68.039  1.00  0.00    -0.115 A  
HETATM   27  C   UNL     1      -9.094   5.388  68.644  1.00  0.00    -0.115 A  
HETATM   28  C   UNL     1      -9.601   5.327  69.946  1.00  0.00    -0.177 A  
HETATM   29  F   UNL     1      -8.822   4.269  67.955  1.00  0.00    -0.103 F  
HETATM   30  N   UNL     1      -9.906   4.245  70.720  1.00  0.00    -0.204 NA 
HETATM   31  C   UNL     1     -10.363   4.715  71.859  1.00  0.00    -0.150 A  
HETATM   32  N   UNL     1     -10.357   6.101  71.865  1.00  0.00    -0.204 NA 
HETATM   33  C   UNL     1     -10.826   3.823  72.953  1.00  0.00    -0.157 C  
HETATM   34  C   UNL     1      -9.629   7.773  70.035  1.00  0.00    -0.161 A  
HETATM   35  C   UNL     1      -9.863   6.513  70.631  1.00  0.00    -0.183 A  
BRANCH  32  36
HETATM   36  C   UNL     1     -10.844   7.015  72.900  1.00  0.00    -0.301 C  
HETATM   37  C   UNL     1     -11.887   8.047  72.452  1.00  0.00    -0.429 C  
HETATM   38  C   UNL     1      -9.685   7.715  73.611  1.00  0.00    -0.314 C  
ENDBRANCH  32  36
ENDBRANCH  23  25
ENDBRANCH  16  18
ENDBRANCH  13  16
ENDBRANCH   9  10
ENDBRANCH   6   9
ENDBRANCH   2   3
TORSDOF 7
ENDMDL
MODEL      121
REMARK 921   NORMALIZED FREE ENERGY PREDICTED BY IDOCK:   -4.73 KCAL/MOL
REMARK 922        TOTAL FREE ENERGY PREDICTED BY IDOCK:   -7.54 KCAL/MOL
REMARK 923 INTER-LIGAND FREE ENERGY PREDICTED BY IDOCK:   -6.60 KCAL/MOL
REMARK 924 INTRA-LIGAND FREE ENERGY PREDICTED BY IDOCK:   -0.94 KCAL/MOL
REMARK 927      BINDING AFFINITY PREDICTED BY RF-SCORE:    0.00 PKD
ROOT
HETATM    1  C   UNL     1      -8.836  10.011  62.540  1.00  0.00    -0.254 C  
HETATM    2  C   UNL     1      -8.313   8.712  63.141  1.00  0.00    -0.144 C  
ENDROOT
BRANCH   2   3
HETATM    3  N   UNL     1      -8.683   8.506  64.551  1.00  0.00    -0.030 NA 
HETATM    4  C   UNL     1      -8.167   7.200  65.027  1.00  0.00    -0.093 C  
HETATM    5  C   UNL     1      -6.652   7.184  65.350  1.00  0.00    -0.047 C  
HETATM    6  N   UNL     1      -6.209   8.251  66.278  1.00  0.00    -0.045 NA 
HETATM    7  C   UNL     1      -8.210   9.578  65.451  1.00  0.00    -0.127 C  
HETATM    8  C   UNL     1      -6.692   9.547  65.751  1.00  0.00    -0.083 C  
BRANCH   6   9
HETATM    9  C   UNL     1      -6.710   8.046  67.652  1.00  0.00    -0.069 C  
BRANCH   9  10
HETATM   10  C   UNL     1      -6.528   9.245  68.539  1.00  0.00    -0.053 A  
HETATM   11  C   UNL     1      -5.262   9.754  68.809  1.00  0.00    -0.036 A  
HETATM   12  C   UNL     1      -5.142  10.852  69.647  1.00  0.00    -0.038 A  
HETATM   13  C   UNL     1      -6.284  11.425  70.212  1.00  0.00    -0.106 A  
HETATM   14  N   UNL     1      -7.521  10.960  69.941  1.00  0.00     0.017 NA 
HETATM   15  C   UNL     1      -7.614   9.884  69.127  1.00  0.00    -0.090 A  
BRANCH  13  16
HETATM   16  N   UNL     1      -6.188  12.553  71.018  1.00  0.00    -0.406 NA 
HETATM   17  H   UNL     1      -6.151  12.397  72.026  1.00  0.00     0.000 HD 
BRANCH  16  18
HETATM   18  C   UNL     1      -6.139  13.870  70.587  1.00  0.00    -0.131 A  
HETATM   19  N   UNL     1      -5.150  14.635  71.072  1.00  0.00    -0.121 NA 
HETATM   20  C   UNL     1      -5.156  15.933  70.713  1.00  0.00    -0.182 A  
HETATM   21  C   UNL     1      -6.058  16.468  69.826  1.00  0.00    -0.215 A  
HETATM   22  F   UNL     1      -5.991  17.766  69.501  1.00  0.00    -0.198 F  
HETATM   23  C   UNL     1      -7.005  15.608  69.309  1.00  0.00    -0.179 A  
HETATM   24  N   UNL     1      -7.069  14.321  69.724  1.00  0.00    -0.022 NA 
BRANCH  23  25
HETATM   25  C   UNL     1      -7.976  15.975  68.252  1.00  0.00    -0.145 A  
HETATM   26  C   UNL     1      -8.140  17.319  67.870  1.00  0.00    -0.210 A  
HETATM   27  C   UNL     1      -9.020  17.687  66.853  1.00  0.00    -0.246 A  
HETATM   28  C   UNL     1      -9.768  16.713  66.183  1.00  0.00    -0.303 A  
HETATM   29  F   UNL     1      -9.133  18.986  66.534  1.00  0.00    -0.290 F  
HETATM   30  N   UNL     1     -10.680  16.844  65.177  1.00  0.00    -0.666 NA 
HETATM   31  C   UNL     1     -11.113  15.634  64.903  1.00  0.00    -0.402 A  
HETATM   32  N   UNL     1     -10.493  14.689  65.704  1.00  0.00    -0.321 NA 
HETATM   33  C   UNL     1     -12.147  15.381  63.866  1.00  0.00     0.172 C  
HETATM   34  C   UNL     1      -8.723  14.982  67.564  1.00  0.00    -0.194 A  
HETATM   35  C   UNL     1      -9.615  15.373  66.540  1.00  0.00    -0.275 A  
BRANCH  32  36
HETATM   36  C   UNL     1     -10.732  13.245  65.773  1.00  0.00    -0.277 C  
HETATM   37  C   UNL     1     -10.488  12.458  64.480  1.00  0.00    -0.352 C  
HETATM   38  C   UNL     1     -12.129  12.941  66.317  1.00  0.00    -0.433 C  
ENDBRANCH  32  36
ENDBRANCH  23  25
ENDBRANCH  16  18
ENDBRANCH  13  16
ENDBRANCH   9  10
ENDBRANCH   6   9
ENDBRANCH   2   3
TORSDOF 7
ENDMDL
MODEL      122
REMARK 921   NORMALIZED FREE ENERGY PREDICTED BY IDOCK:   -4.70 KCAL/MOL
REMARK 922        TOTAL FREE ENERGY PREDICTED BY IDOCK:   -7.50 KCAL/MOL
REMARK 923 INTER-LIGAND FREE ENERGY PREDICTED BY IDOCK:   -6.67 KCAL/MOL
REMARK 924 INTRA-LIGAND FREE ENERGY PREDICTED BY IDOCK:   -0.83 KCAL/MOL
REMARK 927      BINDING AFFINITY PREDICTED BY RF-SCORE:    0.00 PKD
ROOT
HETATM    1  C   UNL     1     -11.064   5.118  73.559  1.00  0.00    -0.361 C  
HETATM    2  C   UNL     1     -11.082   5.130  72.035  1.00  0.00    -0.015 C  
ENDROOT
BRANCH   2   3
HETATM    3  N   UNL     1      -9.751   5.031  71.414  1.00  0.00    -0.163 NA 
HETATM    4  C   UNL     1      -9.827   4.224  70.173  1.00  0.00    -0.201 C  
HETATM    5  C   UNL     1     -10.418   4.974  68.952  1.00  0.00     0.009 C  
HETATM    6  N   UNL     1      -9.766   6.270  68.652  1.00  0.00    -0.126 NA 
HETATM    7  C   UNL     1      -9.139   6.341  71.112  1.00  0.00    -0.146 C  
HETATM    8  C   UNL     1      -9.751   7.075  69.895  1.00  0.00    -0.163 C  
BRANCH   6   9
HETATM    9  C   UNL     1      -8.391   6.105  68.140  1.00  0.00    -0.114 C  
BRANCH   9  10
HETATM   10  C   UNL     1      -7.696   7.408  67.861  1.00  0.00    -0.116 A  
HETATM   11  C   UNL     1      -8.175   8.284  66.893  1.00  0.00    -0.103 A  
HETATM   12  C   UNL     1      -7.490   9.468  66.659  1.00  0.00    -0.093 A  
HETATM   13  C   UNL     1      -6.335   9.760  67.388  1.00  0.00    -0.068 A  
HETATM   14  N   UNL     1      -5.872   8.933  68.347  1.00  0.00    -0.041 NA 
HETATM   15  C   UNL     1      -6.550   7.781  68.555  1.00  0.00    -0.057 A  
BRANCH  13  16
HETATM   16  N   UNL     1      -5.661  10.961  67.199  1.00  0.00    -0.045 NA 
HETATM   17  H   UNL     1      -4.904  10.961  66.515  1.00  0.00     0.000 HD 
BRANCH  16  18
HETATM   18  C   UNL     1      -5.918  12.158  67.849  1.00  0.00    -0.072 A  
HETATM   19  N   UNL     1      -5.195  12.425  68.947  1.00  0.00    -0.055 NA 
HETATM   20  C   UNL     1      -5.505  13.550  69.619  1.00  0.00    -0.092 A  
HETATM   21  C   UNL     1      -6.447  14.453  69.187  1.00  0.00    -0.107 A  
HETATM   22  F   UNL     1      -6.689  15.562  69.900  1.00  0.00    -0.160 F  
HETATM   23  C   UNL     1      -7.103  14.152  68.012  1.00  0.00    -0.144 A  
HETATM   24  N   UNL     1      -6.867  12.984  67.369  1.00  0.00    -0.153 NA 
BRANCH  23  25
HETATM   25  C   UNL     1      -8.056  15.061  67.333  1.00  0.00    -0.216 A  
HETATM   26  C   UNL     1      -9.137  14.541  66.597  1.00  0.00    -0.277 A  
HETATM   27  C   UNL     1     -10.067  15.375  65.980  1.00  0.00    -0.324 A  
HETATM   28  C   UNL     1      -9.945  16.765  66.082  1.00  0.00    -0.327 A  
HETATM   29  F   UNL     1     -11.077  14.819  65.291  1.00  0.00    -0.306 F  
HETATM   30  N   UNL     1     -10.724  17.756  65.562  1.00  0.00    -0.546 NA 
HETATM   31  C   UNL     1     -10.181  18.894  65.931  1.00  0.00    -0.286 A  
HETATM   32  N   UNL     1      -9.052  18.679  66.705  1.00  0.00    -0.299 NA 
HETATM   33  C   UNL     1     -10.744  20.207  65.525  1.00  0.00    -0.191 C  
HETATM   34  C   UNL     1      -7.937  16.471  67.450  1.00  0.00    -0.175 A  
HETATM   35  C   UNL     1      -8.886  17.302  66.814  1.00  0.00    -0.247 A  
BRANCH  32  36
HETATM   36  C   UNL     1      -8.118  19.663  67.257  1.00  0.00    -0.282 C  
HETATM   37  C   UNL     1      -6.782  19.815  66.519  1.00  0.00    -0.212 C  
HETATM   38  C   UNL     1      -7.870  19.416  68.746  1.00  0.00    -0.392 C  
ENDBRANCH  32  36
ENDBRANCH  23  25
ENDBRANCH  16  18
ENDBRANCH  13  16
ENDBRANCH   9  10
ENDBRANCH   6   9
ENDBRANCH   2   3
TORSDOF 7
ENDMDL
MODEL      123
REMARK 921   NORMALIZED FREE ENERGY PREDICTED BY IDOCK:   -4.70 KCAL/MOL
REMARK 922        TOTAL FREE ENERGY PREDICTED BY IDOCK:   -7.49 KCAL/MOL
REMARK 923 INTER-LIGAND FREE ENERGY PREDICTED BY IDOCK:   -6.46 KCAL/MOL
REMARK 924 INTRA-LIGAND FREE ENERGY PREDICTED BY IDOCK:   -1.03 KCAL/MOL
REMARK 927      BINDING AFFINITY PREDICTED BY RF-SCORE:    0.00 PKD
ROOT
HETATM    1  C   UNL     1     -12.633  11.722  63.351  1.00  0.00    -0.458 C  
HETATM    2  C   UNL     1     -12.436  13.233  63.341  1.00  0.00    -0.199 C  
ENDROOT
BRANCH   2   3
HETATM    3  N   UNL     1     -12.478  13.857  64.674  1.00  0.00    -0.620 NA 
HETATM    4  C   UNL     1     -11.257  13.506  65.438  1.00  0.00    -0.289 C  
HETATM    5  C   UNL     1      -9.991  14.300  65.030  1.00  0.00    -0.173 C  
HETATM    6  N   UNL     1     -10.161  15.772  65.031  1.00  0.00    -0.411 NA 
HETATM    7  C   UNL     1     -12.630  15.325  64.638  1.00  0.00     0.167 C  
HETATM    8  C   UNL     1     -11.355  16.096  64.219  1.00  0.00    -0.088 C  
BRANCH   6   9
HETATM    9  C   UNL     1     -10.312  16.321  66.394  1.00  0.00    -0.314 C  
BRANCH   9  10
HETATM   10  C   UNL     1      -9.333  15.750  67.380  1.00  0.00    -0.214 A  
HETATM   11  C   UNL     1      -9.757  15.244  68.604  1.00  0.00    -0.212 A  
HETATM   12  C   UNL     1      -8.814  14.742  69.489  1.00  0.00     0.115 A  
HETATM   13  C   UNL     1      -7.460  14.758  69.146  1.00  0.00    -0.153 A  
HETATM   14  N   UNL     1      -7.034  15.222  67.954  1.00  0.00    -0.131 NA 
HETATM   15  C   UNL     1      -7.969  15.713  67.108  1.00  0.00    -0.219 A  
BRANCH  13  16
HETATM   16  N   UNL     1      -6.505  14.219  70.001  1.00  0.00    -0.243 NA 
HETATM   17  H   UNL     1      -5.938  14.880  70.532  1.00  0.00     0.000 HD 
BRANCH  16  18
HETATM   18  C   UNL     1      -6.248  12.872  70.201  1.00  0.00    -0.026 A  
HETATM   19  N   UNL     1      -5.543  12.539  71.292  1.00  0.00    -0.380 NA 
HETATM   20  C   UNL     1      -5.228  11.239  71.438  1.00  0.00    -0.020 A  
HETATM   21  C   UNL     1      -5.663  10.255  70.583  1.00  0.00    -0.090 A  
HETATM   22  F   UNL     1      -5.324   8.977  70.802  1.00  0.00    -0.027 F  
HETATM   23  C   UNL     1      -6.445  10.658  69.521  1.00  0.00    -0.078 A  
HETATM   24  N   UNL     1      -6.700  11.970  69.309  1.00  0.00    -0.107 NA 
BRANCH  23  25
HETATM   25  C   UNL     1      -7.102   9.730  68.571  1.00  0.00    -0.068 A  
HETATM   26  C   UNL     1      -6.913   9.875  67.184  1.00  0.00    -0.084 A  
HETATM   27  C   UNL     1      -7.490   8.993  66.272  1.00  0.00    -0.092 A  
HETATM   28  C   UNL     1      -8.280   7.930  66.723  1.00  0.00    -0.116 A  
HETATM   29  F   UNL     1      -7.272   9.184  64.961  1.00  0.00    -0.090 F  
HETATM   30  N   UNL     1      -8.938   6.964  66.020  1.00  0.00    -0.139 NA 
HETATM   31  C   UNL     1      -9.549   6.207  66.903  1.00  0.00    -0.142 A  
HETATM   32  N   UNL     1      -9.298   6.645  68.194  1.00  0.00    -0.116 NA 
HETATM   33  C   UNL     1     -10.397   5.054  66.504  1.00  0.00    -0.325 C  
HETATM   34  C   UNL     1      -7.892   8.643  69.033  1.00  0.00    -0.100 A  
HETATM   35  C   UNL     1      -8.474   7.762  68.094  1.00  0.00    -0.124 A  
BRANCH  32  36
HETATM   36  C   UNL     1      -9.836   6.133  69.456  1.00  0.00    -0.159 C  
HETATM   37  C   UNL     1      -9.578   4.650  69.748  1.00  0.00    -0.258 C  
HETATM   38  C   UNL     1     -11.328   6.443  69.589  1.00  0.00    -0.479 C  
ENDBRANCH  32  36
ENDBRANCH  23  25
ENDBRANCH  16  18
ENDBRANCH  13  16
ENDBRANCH   9  10
ENDBRANCH   6   9
ENDBRANCH   2   3
TORSDOF 7
ENDMDL
MODEL      124
REMARK 921   NORMALIZED FREE ENERGY PREDICTED BY IDOCK:   -4.69 KCAL/MOL
REMARK 922        TOTAL FREE ENERGY PREDICTED BY IDOCK:   -7.48 KCAL/MOL
REMARK 923 INTER-LIGAND FREE ENERGY PREDICTED BY IDOCK:   -6.99 KCAL/MOL
REMARK 924 INTRA-LIGAND FREE ENERGY PREDICTED BY IDOCK:   -0.49 KCAL/MOL
REMARK 927      BINDING AFFINITY PREDICTED BY RF-SCORE:    0.00 PKD
ROOT
HETATM    1  C   UNL     1     -13.029  14.061  65.106  1.00  0.00    -0.260 C  
HETATM    2  C   UNL     1     -12.382  13.056  64.160  1.00  0.00    -0.358 C  
ENDROOT
BRANCH   2   3
HETATM    3  N   UNL     1     -10.910  13.047  64.203  1.00  0.00    -0.399 NA 
HETATM    4  C   UNL     1     -10.443  12.632  65.547  1.00  0.00    -0.281 C  
HETATM    5  C   UNL     1     -10.529  11.109  65.819  1.00  0.00    -0.246 C  
HETATM    6  N   UNL     1      -9.876  10.263  64.793  1.00  0.00    -0.328 NA 
HETATM    7  C   UNL     1     -10.293  12.179  63.179  1.00  0.00    -0.159 C  
HETATM    8  C   UNL     1     -10.400  10.663  63.467  1.00  0.00    -0.031 C  
BRANCH   6   9
HETATM    9  C   UNL     1      -8.404  10.388  64.813  1.00  0.00    -0.157 C  
BRANCH   9  10
HETATM   10  C   UNL     1      -7.830  10.457  66.200  1.00  0.00    -0.135 A  
HETATM   11  C   UNL     1      -8.207   9.545  67.180  1.00  0.00    -0.113 A  
HETATM   12  C   UNL     1      -7.662   9.659  68.451  1.00  0.00    -0.081 A  
HETATM   13  C   UNL     1      -6.755  10.683  68.731  1.00  0.00    -0.055 A  
HETATM   14  N   UNL     1      -6.359  11.560  67.785  1.00  0.00    -0.059 NA 
HETATM   15  C   UNL     1      -6.907  11.435  66.555  1.00  0.00    -0.064 A  
BRANCH  13  16
HETATM   16  N   UNL     1      -6.164  10.785  69.985  1.00  0.00    -0.103 NA 
HETATM   17  H   UNL     1      -5.883   9.913  70.434  1.00  0.00     0.000 HD 
BRANCH  16  18
HETATM   18  C   UNL     1      -5.919  11.956  70.685  1.00  0.00     0.026 A  
HETATM   19  N   UNL     1      -5.288  11.845  71.863  1.00  0.00    -0.351 NA 
HETATM   20  C   UNL     1      -5.127  12.976  72.575  1.00  0.00     0.050 A  
HETATM   21  C   UNL     1      -5.495  14.218  72.115  1.00  0.00    -0.163 A  
HETATM   22  F   UNL     1      -5.286  15.302  72.873  1.00  0.00    -0.119 F  
HETATM   23  C   UNL     1      -6.073  14.269  70.864  1.00  0.00    -0.155 A  
HETATM   24  N   UNL     1      -6.323  13.134  70.171  1.00  0.00    -0.029 NA 
BRANCH  23  25
HETATM   25  C   UNL     1      -6.419  15.525  70.157  1.00  0.00    -0.045 A  
HETATM   26  C   UNL     1      -5.633  16.679  70.326  1.00  0.00    -0.193 A  
HETATM   27  C   UNL     1      -5.916  17.862  69.645  1.00  0.00    -0.250 A  
HETATM   28  C   UNL     1      -7.003  17.925  68.766  1.00  0.00    -0.262 A  
HETATM   29  F   UNL     1      -5.128  18.929  69.848  1.00  0.00    -0.177 F  
HETATM   30  N   UNL     1      -7.462  18.964  68.011  1.00  0.00    -0.246 NA 
HETATM   31  C   UNL     1      -8.519  18.522  67.367  1.00  0.00    -0.257 A  
HETATM   32  N   UNL     1      -8.768  17.193  67.671  1.00  0.00    -0.211 NA 
HETATM   33  C   UNL     1      -9.310  19.390  66.458  1.00  0.00    -0.414 C  
HETATM   34  C   UNL     1      -7.515  15.582  69.255  1.00  0.00    -0.212 A  
HETATM   35  C   UNL     1      -7.791  16.791  68.577  1.00  0.00    -0.229 A  
BRANCH  32  36
HETATM   36  C   UNL     1      -9.877  16.344  67.231  1.00  0.00    -0.245 C  
HETATM   37  C   UNL     1     -10.397  16.595  65.810  1.00  0.00    -0.338 C  
HETATM   38  C   UNL     1     -11.036  16.386  68.228  1.00  0.00    -0.337 C  
ENDBRANCH  32  36
ENDBRANCH  23  25
ENDBRANCH  16  18
ENDBRANCH  13  16
ENDBRANCH   9  10
ENDBRANCH   6   9
ENDBRANCH   2   3
TORSDOF 7
ENDMDL
MODEL      125
REMARK 921   NORMALIZED FREE ENERGY PREDICTED BY IDOCK:   -4.65 KCAL/MOL
REMARK 922        TOTAL FREE ENERGY PREDICTED BY IDOCK:   -7.43 KCAL/MOL
REMARK 923 INTER-LIGAND FREE ENERGY PREDICTED BY IDOCK:   -6.58 KCAL/MOL
REMARK 924 INTRA-LIGAND FREE ENERGY PREDICTED BY IDOCK:   -0.84 KCAL/MOL
REMARK 927      BINDING AFFINITY PREDICTED BY RF-SCORE:    0.00 PKD
ROOT
HETATM    1  C   UNL     1     -10.301  17.230  67.752  1.00  0.00    -0.356 C  
HETATM    2  C   UNL     1     -10.906  15.831  67.784  1.00  0.00    -0.316 C  
ENDROOT
BRANCH   2   3
HETATM    3  N   UNL     1     -10.993  15.180  66.467  1.00  0.00    -0.322 NA 
HETATM    4  C   UNL     1      -9.665  14.653  66.071  1.00  0.00    -0.312 C  
HETATM    5  C   UNL     1      -9.259  13.333  66.774  1.00  0.00    -0.233 C  
HETATM    6  N   UNL     1     -10.263  12.249  66.674  1.00  0.00    -0.214 NA 
HETATM    7  C   UNL     1     -11.990  14.091  66.408  1.00  0.00    -0.438 C  
HETATM    8  C   UNL     1     -11.566  12.787  67.125  1.00  0.00    -0.364 C  
BRANCH   6   9
HETATM    9  C   UNL     1     -10.383  11.717  65.302  1.00  0.00    -0.269 C  
BRANCH   9  10
HETATM   10  C   UNL     1      -9.743  10.369  65.126  1.00  0.00    -0.353 A  
HETATM   11  C   UNL     1      -8.966  10.083  64.008  1.00  0.00    -0.270 A  
HETATM   12  C   UNL     1      -8.409   8.819  63.881  1.00  0.00    -0.145 A  
HETATM   13  C   UNL     1      -8.638   7.855  64.865  1.00  0.00     0.056 A  
HETATM   14  N   UNL     1      -9.367   8.123  65.967  1.00  0.00    -0.158 NA 
HETATM   15  C   UNL     1      -9.907   9.359  66.068  1.00  0.00    -0.296 A  
BRANCH  13  16
HETATM   16  N   UNL     1      -8.051   6.598  64.777  1.00  0.00    -0.176 NA 
HETATM   17  H   UNL     1      -7.467   6.419  63.960  1.00  0.00     0.000 HD 
BRANCH  16  18
HETATM   18  C   UNL     1      -8.182   5.564  65.691  1.00  0.00    -0.127 A  
HETATM   19  N   UNL     1      -8.532   4.362  65.210  1.00  0.00    -0.118 NA 
HETATM   20  C   UNL     1      -8.737   3.384  66.111  1.00  0.00    -0.126 A  
HETATM   21  C   UNL     1      -8.522   3.540  67.459  1.00  0.00    -0.096 A  
HETATM   22  F   UNL     1      -8.729   2.514  68.295  1.00  0.00    -0.085 F  
HETATM   23  C   UNL     1      -8.092   4.782  67.879  1.00  0.00    -0.092 A  
HETATM   24  N   UNL     1      -7.965   5.803  66.999  1.00  0.00    -0.102 NA 
BRANCH  23  25
HETATM   25  C   UNL     1      -7.693   5.099  69.270  1.00  0.00    -0.076 A  
HETATM   26  C   UNL     1      -6.781   4.277  69.956  1.00  0.00    -0.033 A  
HETATM   27  C   UNL     1      -6.362   4.574  71.252  1.00  0.00    -0.019 A  
HETATM   28  C   UNL     1      -6.846   5.713  71.905  1.00  0.00    -0.067 A  
HETATM   29  F   UNL     1      -5.489   3.751  71.854  1.00  0.00    -0.006 F  
HETATM   30  N   UNL     1      -6.582   6.186  73.156  1.00  0.00    -0.072 NA 
HETATM   31  C   UNL     1      -7.296   7.280  73.303  1.00  0.00    -0.072 A  
HETATM   32  N   UNL     1      -8.028   7.554  72.158  1.00  0.00    -0.095 NA 
HETATM   33  C   UNL     1      -7.288   8.067  74.563  1.00  0.00    -0.224 C  
HETATM   34  C   UNL     1      -8.176   6.264  69.925  1.00  0.00    -0.121 A  
HETATM   35  C   UNL     1      -7.746   6.546  71.241  1.00  0.00    -0.095 A  
BRANCH  32  36
HETATM   36  C   UNL     1      -8.997   8.627  71.924  1.00  0.00    -0.231 C  
HETATM   37  C   UNL     1     -10.471   8.206  71.866  1.00  0.00    -0.312 C  
HETATM   38  C   UNL     1      -8.634   9.440  70.680  1.00  0.00    -0.247 C  
ENDBRANCH  32  36
ENDBRANCH  23  25
ENDBRANCH  16  18
ENDBRANCH  13  16
ENDBRANCH   9  10
ENDBRANCH   6   9
ENDBRANCH   2   3
TORSDOF 7
ENDMDL
MODEL      126
REMARK 921   NORMALIZED FREE ENERGY PREDICTED BY IDOCK:   -4.59 KCAL/MOL
REMARK 922        TOTAL FREE ENERGY PREDICTED BY IDOCK:   -7.34 KCAL/MOL
REMARK 923 INTER-LIGAND FREE ENERGY PREDICTED BY IDOCK:   -7.23 KCAL/MOL
REMARK 924 INTRA-LIGAND FREE ENERGY PREDICTED BY IDOCK:   -0.11 KCAL/MOL
REMARK 927      BINDING AFFINITY PREDICTED BY RF-SCORE:    0.00 PKD
ROOT
HETATM    1  C   UNL     1     -11.115   5.390  73.451  1.00  0.00    -0.326 C  
HETATM    2  C   UNL     1     -10.908   5.430  71.941  1.00  0.00    -0.186 C  
ENDROOT
BRANCH   2   3
HETATM    3  N   UNL     1      -9.633   6.037  71.522  1.00  0.00    -0.156 NA 
HETATM    4  C   UNL     1      -8.679   4.980  71.110  1.00  0.00    -0.128 C  
HETATM    5  C   UNL     1      -8.940   4.389  69.702  1.00  0.00    -0.099 C  
HETATM    6  N   UNL     1      -9.048   5.397  68.621  1.00  0.00    -0.113 NA 
HETATM    7  C   UNL     1      -9.776   7.023  70.431  1.00  0.00    -0.176 C  
HETATM    8  C   UNL     1     -10.046   6.409  69.037  1.00  0.00    -0.165 C  
BRANCH   6   9
HETATM    9  C   UNL     1      -7.757   6.050  68.328  1.00  0.00    -0.102 C  
BRANCH   9  10
HETATM   10  C   UNL     1      -7.903   7.403  67.691  1.00  0.00    -0.113 A  
HETATM   11  C   UNL     1      -8.721   7.591  66.582  1.00  0.00    -0.146 A  
HETATM   12  C   UNL     1      -8.811   8.855  66.018  1.00  0.00    -0.206 A  
HETATM   13  C   UNL     1      -8.081   9.914  66.563  1.00  0.00    -0.117 A  
HETATM   14  N   UNL     1      -7.304   9.755  67.653  1.00  0.00    -0.089 NA 
HETATM   15  C   UNL     1      -7.224   8.513  68.183  1.00  0.00    -0.087 A  
BRANCH  13  16
HETATM   16  N   UNL     1      -8.194  11.197  66.039  1.00  0.00    -0.297 NA 
HETATM   17  H   UNL     1      -7.433  11.517  65.439  1.00  0.00     0.000 HD 
BRANCH  16  18
HETATM   18  C   UNL     1      -9.237  12.084  66.254  1.00  0.00    -0.206 A  
HETATM   19  N   UNL     1     -10.479  11.635  66.020  1.00  0.00    -0.243 NA 
HETATM   20  C   UNL     1     -11.481  12.525  66.152  1.00  0.00    -0.377 A  
HETATM   21  C   UNL     1     -11.294  13.815  66.589  1.00  0.00    -0.328 A  
HETATM   22  F   UNL     1     -12.342  14.639  66.713  1.00  0.00    -0.394 F  
HETATM   23  C   UNL     1      -9.999  14.189  66.880  1.00  0.00    -0.261 A  
HETATM   24  N   UNL     1      -8.969  13.336  66.671  1.00  0.00    -0.179 NA 
BRANCH  23  25
HETATM   25  C   UNL     1      -9.622  15.492  67.476  1.00  0.00    -0.212 A  
HETATM   26  C   UNL     1     -10.421  16.077  68.477  1.00  0.00    -0.258 A  
HETATM   27  C   UNL     1     -10.069  17.283  69.079  1.00  0.00    -0.302 A  
HETATM   28  C   UNL     1      -8.899  17.947  68.696  1.00  0.00    -0.261 A  
HETATM   29  F   UNL     1     -10.872  17.790  70.028  1.00  0.00     0.106 F  
HETATM   30  N   UNL     1      -8.372  19.125  69.139  1.00  0.00    -0.192 NA 
HETATM   31  C   UNL     1      -7.267  19.323  68.455  1.00  0.00    -0.314 A  
HETATM   32  N   UNL     1      -7.038  18.285  67.566  1.00  0.00    -0.199 NA 
HETATM   33  C   UNL     1      -6.425  20.531  68.647  1.00  0.00    -0.295 C  
HETATM   34  C   UNL     1      -8.426  16.157  67.095  1.00  0.00    -0.218 A  
HETATM   35  C   UNL     1      -8.088  17.383  67.711  1.00  0.00    -0.214 A  
BRANCH  32  36
HETATM   36  C   UNL     1      -5.969  18.144  66.575  1.00  0.00    -0.162 C  
HETATM   37  C   UNL     1      -6.370  18.368  65.112  1.00  0.00    -0.141 C  
HETATM   38  C   UNL     1      -5.250  16.802  66.723  1.00  0.00    -0.071 C  
ENDBRANCH  32  36
ENDBRANCH  23  25
ENDBRANCH  16  18
ENDBRANCH  13  16
ENDBRANCH   9  10
ENDBRANCH   6   9
ENDBRANCH   2   3
TORSDOF 7
ENDMDL
MODEL      127
REMARK 921   NORMALIZED FREE ENERGY PREDICTED BY IDOCK:   -4.57 KCAL/MOL
REMARK 922        TOTAL FREE ENERGY PREDICTED BY IDOCK:   -7.31 KCAL/MOL
REMARK 923 INTER-LIGAND FREE ENERGY PREDICTED BY IDOCK:   -6.10 KCAL/MOL
REMARK 924 INTRA-LIGAND FREE ENERGY PREDICTED BY IDOCK:   -1.21 KCAL/MOL
REMARK 927      BINDING AFFINITY PREDICTED BY RF-SCORE:    0.00 PKD
ROOT
HETATM    1  C   UNL     1     -10.406   2.644  62.666  1.00  0.00    -0.119 C  
HETATM    2  C   UNL     1      -9.242   2.639  63.649  1.00  0.00    -0.099 C  
ENDROOT
BRANCH   2   3
HETATM    3  N   UNL     1      -9.645   2.662  65.065  1.00  0.00    -0.063 NA 
HETATM    4  C   UNL     1      -8.738   1.806  65.866  1.00  0.00    -0.116 C  
HETATM    5  C   UNL     1      -7.359   2.440  66.177  1.00  0.00    -0.066 C  
HETATM    6  N   UNL     1      -7.426   3.788  66.789  1.00  0.00    -0.078 NA 
HETATM    7  C   UNL     1      -9.683   4.019  65.648  1.00  0.00    -0.192 C  
HETATM    8  C   UNL     1      -8.294   4.635  65.941  1.00  0.00    -0.115 C  
BRANCH   6   9
HETATM    9  C   UNL     1      -7.947   3.754  68.171  1.00  0.00    -0.072 C  
BRANCH   9  10
HETATM   10  C   UNL     1      -7.725   5.035  68.924  1.00  0.00    -0.077 A  
HETATM   11  C   UNL     1      -6.470   5.631  68.974  1.00  0.00    -0.042 A  
HETATM   12  C   UNL     1      -6.310   6.804  69.697  1.00  0.00    -0.042 A  
HETATM   13  C   UNL     1      -7.401   7.365  70.365  1.00  0.00    -0.077 A  
HETATM   14  N   UNL     1      -8.631   6.813  70.306  1.00  0.00    -0.139 NA 
HETATM   15  C   UNL     1      -8.763   5.666  69.602  1.00  0.00    -0.110 A  
BRANCH  13  16
HETATM   16  N   UNL     1      -7.271   8.564  71.056  1.00  0.00    -0.063 NA 
HETATM   17  H   UNL     1      -7.368   8.522  72.071  1.00  0.00     0.000 HD 
BRANCH  16  18
HETATM   18  C   UNL     1      -7.023   9.809  70.502  1.00  0.00    -0.126 A  
HETATM   19  N   UNL     1      -5.958  10.483  70.961  1.00  0.00    -0.309 NA 
HETATM   20  C   UNL     1      -5.771  11.725  70.478  1.00  0.00    -0.150 A  
HETATM   21  C   UNL     1      -6.554  12.280  69.495  1.00  0.00    -0.052 A  
HETATM   22  F   UNL     1      -6.296  13.517  69.049  1.00  0.00    -0.078 F  
HETATM   23  C   UNL     1      -7.590  11.505  69.016  1.00  0.00    -0.058 A  
HETATM   24  N   UNL     1      -7.848  10.289  69.551  1.00  0.00    -0.159 NA 
BRANCH  23  25
HETATM   25  C   UNL     1      -8.458  11.887  67.878  1.00  0.00    -0.154 A  
HETATM   26  C   UNL     1      -8.680  10.990  66.816  1.00  0.00    -0.152 A  
HETATM   27  C   UNL     1      -9.521  11.312  65.753  1.00  0.00    -0.227 A  
HETATM   28  C   UNL     1     -10.174  12.549  65.720  1.00  0.00    -0.270 A  
HETATM   29  F   UNL     1      -9.692  10.414  64.769  1.00  0.00    -0.269 F  
HETATM   30  N   UNL     1     -11.023  13.069  64.788  1.00  0.00    -0.311 NA 
HETATM   31  C   UNL     1     -11.353  14.270  65.209  1.00  0.00    -0.336 A  
HETATM   32  N   UNL     1     -10.743  14.558  66.420  1.00  0.00    -0.303 NA 
HETATM   33  C   UNL     1     -12.253  15.160  64.432  1.00  0.00    -0.289 C  
HETATM   34  C   UNL     1      -9.130  13.139  67.854  1.00  0.00    -0.207 A  
HETATM   35  C   UNL     1      -9.975  13.450  66.765  1.00  0.00    -0.264 A  
BRANCH  32  36
HETATM   36  C   UNL     1     -10.784  15.801  67.194  1.00  0.00    -0.312 C  
HETATM   37  C   UNL     1      -9.430  16.460  67.484  1.00  0.00    -0.224 C  
HETATM   38  C   UNL     1     -11.568  15.617  68.494  1.00  0.00    -0.378 C  
ENDBRANCH  32  36
ENDBRANCH  23  25
ENDBRANCH  16  18
ENDBRANCH  13  16
ENDBRANCH   9  10
ENDBRANCH   6   9
ENDBRANCH   2   3
TORSDOF 7
ENDMDL
MODEL      128
REMARK 921   NORMALIZED FREE ENERGY PREDICTED BY IDOCK:   -4.57 KCAL/MOL
REMARK 922        TOTAL FREE ENERGY PREDICTED BY IDOCK:   -7.31 KCAL/MOL
REMARK 923 INTER-LIGAND FREE ENERGY PREDICTED BY IDOCK:   -6.72 KCAL/MOL
REMARK 924 INTRA-LIGAND FREE ENERGY PREDICTED BY IDOCK:   -0.59 KCAL/MOL
REMARK 927      BINDING AFFINITY PREDICTED BY RF-SCORE:    0.00 PKD
ROOT
HETATM    1  C   UNL     1      -6.412  20.543  68.371  1.00  0.00    -0.324 C  
HETATM    2  C   UNL     1      -7.727  20.014  67.811  1.00  0.00    -0.292 C  
ENDROOT
BRANCH   2   3
HETATM    3  N   UNL     1      -8.238  18.816  68.498  1.00  0.00    -0.338 NA 
HETATM    4  C   UNL     1      -9.720  18.845  68.534  1.00  0.00    -0.387 C  
HETATM    5  C   UNL     1     -10.405  18.457  67.199  1.00  0.00    -0.394 C  
HETATM    6  N   UNL     1      -9.956  17.165  66.630  1.00  0.00    -0.282 NA 
HETATM    7  C   UNL     1      -7.786  17.547  67.893  1.00  0.00    -0.213 C  
HETATM    8  C   UNL     1      -8.477  17.185  66.557  1.00  0.00    -0.274 C  
BRANCH   6   9
HETATM    9  C   UNL     1     -10.406  16.009  67.431  1.00  0.00    -0.294 C  
BRANCH   9  10
HETATM   10  C   UNL     1     -10.360  14.708  66.680  1.00  0.00    -0.273 A  
HETATM   11  C   UNL     1     -11.449  14.268  65.937  1.00  0.00    -0.335 A  
HETATM   12  C   UNL     1     -11.365  13.051  65.274  1.00  0.00    -0.325 A  
HETATM   13  C   UNL     1     -10.200  12.287  65.366  1.00  0.00    -0.270 A  
HETATM   14  N   UNL     1      -9.125  12.711  66.062  1.00  0.00     0.015 NA 
HETATM   15  C   UNL     1      -9.230  13.896  66.706  1.00  0.00    -0.254 A  
BRANCH  13  16
HETATM   16  N   UNL     1     -10.080  11.088  64.673  1.00  0.00    -0.286 NA 
HETATM   17  H   UNL     1     -10.846  10.841  64.046  1.00  0.00     0.000 HD 
BRANCH  16  18
HETATM   18  C   UNL     1      -9.023  10.195  64.752  1.00  0.00    -0.203 A  
HETATM   19  N   UNL     1      -7.956  10.441  63.977  1.00  0.00    -0.118 NA 
HETATM   20  C   UNL     1      -6.969   9.526  63.998  1.00  0.00    -0.105 A  
HETATM   21  C   UNL     1      -6.972   8.428  64.823  1.00  0.00    -0.072 A  
HETATM   22  F   UNL     1      -5.943   7.569  64.802  1.00  0.00    -0.036 F  
HETATM   23  C   UNL     1      -8.068   8.275  65.647  1.00  0.00    -0.124 A  
HETATM   24  N   UNL     1      -9.110   9.135  65.578  1.00  0.00    -0.211 NA 
BRANCH  23  25
HETATM   25  C   UNL     1      -8.189   7.225  66.686  1.00  0.00    -0.118 A  
HETATM   26  C   UNL     1      -8.855   6.017  66.406  1.00  0.00    -0.137 A  
HETATM   27  C   UNL     1      -8.950   4.999  67.353  1.00  0.00    -0.110 A  
HETATM   28  C   UNL     1      -8.377   5.160  68.619  1.00  0.00    -0.088 A  
HETATM   29  F   UNL     1      -9.599   3.870  67.026  1.00  0.00    -0.185 F  
HETATM   30  N   UNL     1      -8.355   4.311  69.687  1.00  0.00    -0.061 NA 
HETATM   31  C   UNL     1      -7.704   4.931  70.646  1.00  0.00    -0.066 A  
HETATM   32  N   UNL     1      -7.277   6.183  70.230  1.00  0.00    -0.081 NA 
HETATM   33  C   UNL     1      -7.500   4.321  71.985  1.00  0.00    -0.070 C  
HETATM   34  C   UNL     1      -7.593   7.385  67.966  1.00  0.00    -0.114 A  
HETATM   35  C   UNL     1      -7.705   6.345  68.916  1.00  0.00    -0.108 A  
BRANCH  32  36
HETATM   36  C   UNL     1      -6.585   7.218  71.001  1.00  0.00    -0.044 C  
HETATM   37  C   UNL     1      -5.664   6.723  72.123  1.00  0.00    -0.038 C  
HETATM   38  C   UNL     1      -7.570   8.252  71.549  1.00  0.00    -0.104 C  
ENDBRANCH  32  36
ENDBRANCH  23  25
ENDBRANCH  16  18
ENDBRANCH  13  16
ENDBRANCH   9  10
ENDBRANCH   6   9
ENDBRANCH   2   3
TORSDOF 7
ENDMDL
MODEL      129
REMARK 921   NORMALIZED FREE ENERGY PREDICTED BY IDOCK:   -4.57 KCAL/MOL
REMARK 922        TOTAL FREE ENERGY PREDICTED BY IDOCK:   -7.31 KCAL/MOL
REMARK 923 INTER-LIGAND FREE ENERGY PREDICTED BY IDOCK:   -6.67 KCAL/MOL
REMARK 924 INTRA-LIGAND FREE ENERGY PREDICTED BY IDOCK:   -0.64 KCAL/MOL
REMARK 927      BINDING AFFINITY PREDICTED BY RF-SCORE:    0.00 PKD
ROOT
HETATM    1  C   UNL     1     -14.411   7.835  72.613  1.00  0.00     0.148 C  
HETATM    2  C   UNL     1     -13.500   8.040  71.409  1.00  0.00    -0.222 C  
ENDROOT
BRANCH   2   3
HETATM    3  N   UNL     1     -12.074   7.790  71.679  1.00  0.00    -0.293 NA 
HETATM    4  C   UNL     1     -11.684   6.457  71.161  1.00  0.00    -0.298 C  
HETATM    5  C   UNL     1     -11.475   6.397  69.627  1.00  0.00    -0.378 C  
HETATM    6  N   UNL     1     -10.545   7.419  69.093  1.00  0.00    -0.218 NA 
HETATM    7  C   UNL     1     -11.175   8.818  71.117  1.00  0.00    -0.277 C  
HETATM    8  C   UNL     1     -10.988   8.744  69.583  1.00  0.00    -0.105 C  
BRANCH   6   9
HETATM    9  C   UNL     1      -9.146   7.174  69.496  1.00  0.00    -0.146 C  
BRANCH   9  10
HETATM   10  C   UNL     1      -8.224   8.318  69.182  1.00  0.00    -0.121 A  
HETATM   11  C   UNL     1      -8.000   8.720  67.869  1.00  0.00    -0.107 A  
HETATM   12  C   UNL     1      -7.127   9.771  67.627  1.00  0.00    -0.088 A  
HETATM   13  C   UNL     1      -6.484  10.403  68.694  1.00  0.00    -0.051 A  
HETATM   14  N   UNL     1      -6.710  10.042  69.974  1.00  0.00    -0.095 NA 
HETATM   15  C   UNL     1      -7.559   9.011  70.188  1.00  0.00    -0.082 A  
BRANCH  13  16
HETATM   16  N   UNL     1      -5.642  11.487  68.474  1.00  0.00    -0.042 NA 
HETATM   17  H   UNL     1      -4.761  11.295  67.997  1.00  0.00     0.000 HD 
BRANCH  16  18
HETATM   18  C   UNL     1      -5.881  12.801  68.840  1.00  0.00    -0.071 A  
HETATM   19  N   UNL     1      -5.181  13.285  69.877  1.00  0.00    -0.085 NA 
HETATM   20  C   UNL     1      -5.478  14.536  70.278  1.00  0.00    -0.113 A  
HETATM   21  C   UNL     1      -6.381  15.344  69.631  1.00  0.00    -0.160 A  
HETATM   22  F   UNL     1      -6.611  16.586  70.078  1.00  0.00    -0.204 F  
HETATM   23  C   UNL     1      -7.013  14.808  68.528  1.00  0.00    -0.108 A  
HETATM   24  N   UNL     1      -6.793  13.524  68.162  1.00  0.00    -0.102 NA 
BRANCH  23  25
HETATM   25  C   UNL     1      -7.921  15.568  67.637  1.00  0.00    -0.168 A  
HETATM   26  C   UNL     1      -8.577  14.926  66.570  1.00  0.00    -0.131 A  
HETATM   27  C   UNL     1      -9.463  15.611  65.741  1.00  0.00    -0.303 A  
HETATM   28  C   UNL     1      -9.724  16.968  65.956  1.00  0.00    -0.218 A  
HETATM   29  F   UNL     1     -10.059  14.943  64.740  1.00  0.00    -0.390 F  
HETATM   30  N   UNL     1     -10.538  17.825  65.275  1.00  0.00    -0.575 NA 
HETATM   31  C   UNL     1     -10.424  18.996  65.861  1.00  0.00    -0.399 A  
HETATM   32  N   UNL     1      -9.553  18.934  66.936  1.00  0.00    -0.303 NA 
HETATM   33  C   UNL     1     -11.151  20.197  65.373  1.00  0.00     0.234 C  
HETATM   34  C   UNL     1      -8.194  16.944  67.867  1.00  0.00    -0.198 A  
HETATM   35  C   UNL     1      -9.091  17.623  67.012  1.00  0.00    -0.250 A  
BRANCH  32  36
HETATM   36  C   UNL     1      -9.094  20.017  67.809  1.00  0.00    -0.320 C  
HETATM   37  C   UNL     1      -7.628  20.438  67.649  1.00  0.00    -0.323 C  
HETATM   38  C   UNL     1      -9.395  19.709  69.277  1.00  0.00    -0.111 C  
ENDBRANCH  32  36
ENDBRANCH  23  25
ENDBRANCH  16  18
ENDBRANCH  13  16
ENDBRANCH   9  10
ENDBRANCH   6   9
ENDBRANCH   2   3
TORSDOF 7
ENDMDL
MODEL      130
REMARK 921   NORMALIZED FREE ENERGY PREDICTED BY IDOCK:   -4.49 KCAL/MOL
REMARK 922        TOTAL FREE ENERGY PREDICTED BY IDOCK:   -7.21 KCAL/MOL
REMARK 923 INTER-LIGAND FREE ENERGY PREDICTED BY IDOCK:   -6.05 KCAL/MOL
REMARK 924 INTRA-LIGAND FREE ENERGY PREDICTED BY IDOCK:   -1.16 KCAL/MOL
REMARK 927      BINDING AFFINITY PREDICTED BY RF-SCORE:    0.00 PKD
ROOT
HETATM    1  C   UNL     1     -10.249   2.425  73.818  1.00  0.00    -0.186 C  
HETATM    2  C   UNL     1      -9.580   1.986  72.520  1.00  0.00    -0.091 C  
ENDROOT
BRANCH   2   3
HETATM    3  N   UNL     1      -8.370   2.750  72.175  1.00  0.00    -0.058 NA 
HETATM    4  C   UNL     1      -7.681   2.118  71.024  1.00  0.00    -0.032 C  
HETATM    5  C   UNL     1      -8.334   2.398  69.648  1.00  0.00    -0.045 C  
HETATM    6  N   UNL     1      -8.559   3.833  69.353  1.00  0.00    -0.071 NA 
HETATM    7  C   UNL     1      -8.633   4.171  71.869  1.00  0.00    -0.105 C  
HETATM    8  C   UNL     1      -9.294   4.425  70.493  1.00  0.00    -0.143 C  
BRANCH   6   9
HETATM    9  C   UNL     1      -7.297   4.566  69.130  1.00  0.00    -0.052 C  
BRANCH   9  10
HETATM   10  C   UNL     1      -7.308   5.408  67.885  1.00  0.00    -0.073 A  
HETATM   11  C   UNL     1      -8.238   5.185  66.875  1.00  0.00    -0.108 A  
HETATM   12  C   UNL     1      -8.198   5.978  65.737  1.00  0.00    -0.136 A  
HETATM   13  C   UNL     1      -7.230   6.977  65.618  1.00  0.00    -0.073 A  
HETATM   14  N   UNL     1      -6.338   7.223  66.598  1.00  0.00    -0.049 NA 
HETATM   15  C   UNL     1      -6.389   6.435  67.696  1.00  0.00    -0.040 A  
BRANCH  13  16
HETATM   16  N   UNL     1      -7.203   7.811  64.505  1.00  0.00    -0.069 NA 
HETATM   17  H   UNL     1      -6.517   7.591  63.782  1.00  0.00     0.000 HD 
BRANCH  16  18
HETATM   18  C   UNL     1      -8.017   8.910  64.282  1.00  0.00    -0.146 A  
HETATM   19  N   UNL     1      -8.313   9.204  63.008  1.00  0.00    -0.185 NA 
HETATM   20  C   UNL     1      -9.036  10.320  62.794  1.00  0.00    -0.259 A  
HETATM   21  C   UNL     1      -9.541  11.099  63.807  1.00  0.00    -0.271 A  
HETATM   22  F   UNL     1     -10.268  12.186  63.518  1.00  0.00    -0.359 F  
HETATM   23  C   UNL     1      -9.259  10.699  65.097  1.00  0.00    -0.207 A  
HETATM   24  N   UNL     1      -8.461   9.631  65.330  1.00  0.00    -0.138 NA 
BRANCH  23  25
HETATM   25  C   UNL     1      -9.817  11.342  66.309  1.00  0.00    -0.248 A  
HETATM   26  C   UNL     1     -10.642  10.614  67.187  1.00  0.00    -0.312 A  
HETATM   27  C   UNL     1     -11.151  11.185  68.352  1.00  0.00    -0.247 A  
HETATM   28  C   UNL     1     -10.846  12.511  68.678  1.00  0.00    -0.248 A  
HETATM   29  F   UNL     1     -11.932  10.439  69.150  1.00  0.00    -0.284 F  
HETATM   30  N   UNL     1     -11.233  13.263  69.748  1.00  0.00    -0.047 NA 
HETATM   31  C   UNL     1     -10.692  14.451  69.587  1.00  0.00    -0.055 A  
HETATM   32  N   UNL     1      -9.935  14.501  68.428  1.00  0.00    -0.234 NA 
HETATM   33  C   UNL     1     -10.916  15.558  70.552  1.00  0.00    -0.368 C  
HETATM   34  C   UNL     1      -9.495  12.684  66.644  1.00  0.00    -0.244 A  
HETATM   35  C   UNL     1     -10.024  13.248  67.827  1.00  0.00    -0.223 A  
BRANCH  32  36
HETATM   36  C   UNL     1      -9.228  15.642  67.843  1.00  0.00    -0.190 C  
HETATM   37  C   UNL     1      -9.433  15.865  66.339  1.00  0.00    -0.324 C  
HETATM   38  C   UNL     1      -7.734  15.593  68.167  1.00  0.00    -0.127 C  
ENDBRANCH  32  36
ENDBRANCH  23  25
ENDBRANCH  16  18
ENDBRANCH  13  16
ENDBRANCH   9  10
ENDBRANCH   6   9
ENDBRANCH   2   3
TORSDOF 7
ENDMDL
MODEL      131
REMARK 921   NORMALIZED FREE ENERGY PREDICTED BY IDOCK:   -4.49 KCAL/MOL
REMARK 922        TOTAL FREE ENERGY PREDICTED BY IDOCK:   -7.20 KCAL/MOL
REMARK 923 INTER-LIGAND FREE ENERGY PREDICTED BY IDOCK:   -6.39 KCAL/MOL
REMARK 924 INTRA-LIGAND FREE ENERGY PREDICTED BY IDOCK:   -0.82 KCAL/MOL
REMARK 927      BINDING AFFINITY PREDICTED BY RF-SCORE:    0.00 PKD
ROOT
HETATM    1  C   UNL     1      -9.487  20.624  67.881  1.00  0.00    -0.230 C  
HETATM    2  C   UNL     1      -9.181  19.294  68.560  1.00  0.00    -0.382 C  
ENDROOT
BRANCH   2   3
HETATM    3  N   UNL     1      -8.769  18.225  67.636  1.00  0.00    -0.254 NA 
HETATM    4  C   UNL     1      -7.291  18.107  67.622  1.00  0.00    -0.213 C  
HETATM    5  C   UNL     1      -6.690  17.375  68.848  1.00  0.00    -0.226 C  
HETATM    6  N   UNL     1      -7.282  16.045  69.122  1.00  0.00    -0.196 NA 
HETATM    7  C   UNL     1      -9.363  16.909  67.949  1.00  0.00    -0.238 C  
HETATM    8  C   UNL     1      -8.753  16.202  69.183  1.00  0.00    -0.235 C  
BRANCH   6   9
HETATM    9  C   UNL     1      -6.923  15.046  68.095  1.00  0.00    -0.124 C  
BRANCH   9  10
HETATM   10  C   UNL     1      -7.097  13.627  68.556  1.00  0.00    -0.107 A  
HETATM   11  C   UNL     1      -7.973  12.763  67.909  1.00  0.00    -0.158 A  
HETATM   12  C   UNL     1      -8.113  11.466  68.382  1.00  0.00    -0.145 A  
HETATM   13  C   UNL     1      -7.382  11.049  69.496  1.00  0.00    -0.061 A  
HETATM   14  N   UNL     1      -6.509  11.866  70.120  1.00  0.00    -0.094 NA 
HETATM   15  C   UNL     1      -6.393  13.128  69.648  1.00  0.00    -0.086 A  
BRANCH  13  16
HETATM   16  N   UNL     1      -7.474   9.740  69.957  1.00  0.00    -0.136 NA 
HETATM   17  H   UNL     1      -6.630   9.335  70.362  1.00  0.00     0.000 HD 
BRANCH  16  18
HETATM   18  C   UNL     1      -8.600   8.933  69.919  1.00  0.00    -0.137 A  
HETATM   19  N   UNL     1      -9.748   9.462  70.367  1.00  0.00    -0.244 NA 
HETATM   20  C   UNL     1     -10.818   8.647  70.404  1.00  0.00    -0.227 A  
HETATM   21  C   UNL     1     -10.803   7.356  69.932  1.00  0.00    -0.246 A  
HETATM   22  F   UNL     1     -11.914   6.609  69.984  1.00  0.00    -0.430 F  
HETATM   23  C   UNL     1      -9.607   6.899  69.418  1.00  0.00    -0.147 A  
HETATM   24  N   UNL     1      -8.498   7.674  69.453  1.00  0.00    -0.131 NA 
BRANCH  23  25
HETATM   25  C   UNL     1      -9.434   5.585  68.756  1.00  0.00    -0.163 A  
HETATM   26  C   UNL     1      -9.557   4.392  69.493  1.00  0.00    -0.271 A  
HETATM   27  C   UNL     1      -9.435   3.143  68.887  1.00  0.00    -0.113 A  
HETATM   28  C   UNL     1      -9.185   3.048  67.514  1.00  0.00    -0.193 A  
HETATM   29  F   UNL     1      -9.562   2.042  69.644  1.00  0.00    -0.181 F  
HETATM   30  N   UNL     1      -9.024   1.948  66.725  1.00  0.00    -0.122 NA 
HETATM   31  C   UNL     1      -8.795   2.388  65.507  1.00  0.00    -0.127 A  
HETATM   32  N   UNL     1      -8.814   3.773  65.467  1.00  0.00    -0.118 NA 
HETATM   33  C   UNL     1      -8.542   1.469  64.369  1.00  0.00    -0.085 C  
HETATM   34  C   UNL     1      -9.194   5.491  67.359  1.00  0.00    -0.110 A  
HETATM   35  C   UNL     1      -9.067   4.217  66.762  1.00  0.00    -0.137 A  
BRANCH  32  36
HETATM   36  C   UNL     1      -8.539   4.662  64.336  1.00  0.00    -0.142 C  
HETATM   37  C   UNL     1      -9.206   4.287  63.006  1.00  0.00    -0.130 C  
HETATM   38  C   UNL     1      -7.035   4.853  64.134  1.00  0.00    -0.049 C  
ENDBRANCH  32  36
ENDBRANCH  23  25
ENDBRANCH  16  18
ENDBRANCH  13  16
ENDBRANCH   9  10
ENDBRANCH   6   9
ENDBRANCH   2   3
TORSDOF 7
ENDMDL
MODEL      132
REMARK 921   NORMALIZED FREE ENERGY PREDICTED BY IDOCK:   -4.49 KCAL/MOL
REMARK 922        TOTAL FREE ENERGY PREDICTED BY IDOCK:   -7.20 KCAL/MOL
REMARK 923 INTER-LIGAND FREE ENERGY PREDICTED BY IDOCK:   -7.48 KCAL/MOL
REMARK 924 INTRA-LIGAND FREE ENERGY PREDICTED BY IDOCK:    0.29 KCAL/MOL
REMARK 927      BINDING AFFINITY PREDICTED BY RF-SCORE:    0.00 PKD
ROOT
HETATM    1  C   UNL     1      -9.954   1.541  64.953  1.00  0.00     0.372 C  
HETATM    2  C   UNL     1     -10.455   1.518  63.514  1.00  0.00    -0.116 C  
ENDROOT
BRANCH   2   3
HETATM    3  N   UNL     1      -9.731   2.424  62.607  1.00  0.00    -0.089 NA 
HETATM    4  C   UNL     1     -10.200   3.817  62.799  1.00  0.00    -0.181 C  
HETATM    5  C   UNL     1      -9.636   4.518  64.061  1.00  0.00     0.024 C  
HETATM    6  N   UNL     1      -8.160   4.480  64.180  1.00  0.00    -0.096 NA 
HETATM    7  C   UNL     1      -8.263   2.373  62.765  1.00  0.00    -0.073 C  
HETATM    8  C   UNL     1      -7.726   3.072  64.036  1.00  0.00    -0.076 C  
BRANCH   6   9
HETATM    9  C   UNL     1      -7.491   5.320  63.167  1.00  0.00    -0.053 C  
BRANCH   9  10
HETATM   10  C   UNL     1      -7.712   6.792  63.372  1.00  0.00    -0.106 A  
HETATM   11  C   UNL     1      -8.143   7.607  62.331  1.00  0.00    -0.130 A  
HETATM   12  C   UNL     1      -8.317   8.963  62.564  1.00  0.00    -0.203 A  
HETATM   13  C   UNL     1      -8.053   9.491  63.830  1.00  0.00    -0.152 A  
HETATM   14  N   UNL     1      -7.659   8.712  64.857  1.00  0.00    -0.096 NA 
HETATM   15  C   UNL     1      -7.489   7.394  64.607  1.00  0.00    -0.093 A  
BRANCH  13  16
HETATM   16  N   UNL     1      -8.265  10.840  64.095  1.00  0.00    -0.367 NA 
HETATM   17  H   UNL     1      -7.443  11.445  64.086  1.00  0.00     0.000 HD 
BRANCH  16  18
HETATM   18  C   UNL     1      -9.482  11.442  64.369  1.00  0.00    -0.135 A  
HETATM   19  N   UNL     1     -10.563  10.949  63.748  1.00  0.00    -0.286 NA 
HETATM   20  C   UNL     1     -11.729  11.590  63.957  1.00  0.00    -0.134 A  
HETATM   21  C   UNL     1     -11.866  12.646  64.825  1.00  0.00    -0.380 A  
HETATM   22  F   UNL     1     -13.063  13.224  64.995  1.00  0.00    -0.440 F  
HETATM   23  C   UNL     1     -10.727  13.057  65.486  1.00  0.00    -0.281 A  
HETATM   24  N   UNL     1      -9.530  12.482  65.224  1.00  0.00     0.059 NA 
BRANCH  23  25
HETATM   25  C   UNL     1     -10.707  14.093  66.545  1.00  0.00    -0.289 A  
HETATM   26  C   UNL     1     -11.056  13.769  67.869  1.00  0.00    -0.285 A  
HETATM   27  C   UNL     1     -11.010  14.716  68.889  1.00  0.00    -0.253 A  
HETATM   28  C   UNL     1     -10.609  16.028  68.615  1.00  0.00    -0.266 A  
HETATM   29  F   UNL     1     -11.355  14.345  70.133  1.00  0.00    -0.283 F  
HETATM   30  N   UNL     1     -10.498  17.105  69.445  1.00  0.00    -0.286 NA 
HETATM   31  C   UNL     1     -10.096  18.112  68.703  1.00  0.00    -0.392 A  
HETATM   32  N   UNL     1      -9.923  17.722  67.384  1.00  0.00    -0.311 NA 
HETATM   33  C   UNL     1      -9.888  19.472  69.262  1.00  0.00    -0.347 C  
HETATM   34  C   UNL     1     -10.286  15.421  66.266  1.00  0.00    -0.304 A  
HETATM   35  C   UNL     1     -10.251  16.371  67.311  1.00  0.00    -0.278 A  
BRANCH  32  36
HETATM   36  C   UNL     1      -9.557  18.540  66.226  1.00  0.00    -0.273 C  
HETATM   37  C   UNL     1      -8.124  19.086  66.212  1.00  0.00    -0.298 C  
HETATM   38  C   UNL     1     -10.555  19.679  66.015  1.00  0.00    -0.584 C  
ENDBRANCH  32  36
ENDBRANCH  23  25
ENDBRANCH  16  18
ENDBRANCH  13  16
ENDBRANCH   9  10
ENDBRANCH   6   9
ENDBRANCH   2   3
TORSDOF 7
ENDMDL
MODEL      133
REMARK 921   NORMALIZED FREE ENERGY PREDICTED BY IDOCK:   -4.48 KCAL/MOL
REMARK 922        TOTAL FREE ENERGY PREDICTED BY IDOCK:   -7.18 KCAL/MOL
REMARK 923 INTER-LIGAND FREE ENERGY PREDICTED BY IDOCK:   -7.08 KCAL/MOL
REMARK 924 INTRA-LIGAND FREE ENERGY PREDICTED BY IDOCK:   -0.10 KCAL/MOL
REMARK 927      BINDING AFFINITY PREDICTED BY RF-SCORE:    0.00 PKD
ROOT
HETATM    1  C   UNL     1     -12.216  12.679  64.725  1.00  0.00    -0.528 C  
HETATM    2  C   UNL     1     -11.384  12.243  63.524  1.00  0.00    -0.470 C  
ENDROOT
BRANCH   2   3
HETATM    3  N   UNL     1      -9.936  12.182  63.782  1.00  0.00    -0.351 NA 
HETATM    4  C   UNL     1      -9.684  11.663  65.148  1.00  0.00    -0.219 C  
HETATM    5  C   UNL     1      -9.845  10.129  65.295  1.00  0.00    -0.319 C  
HETATM    6  N   UNL     1      -9.066   9.332  64.319  1.00  0.00    -0.116 NA 
HETATM    7  C   UNL     1      -9.193  11.365  62.802  1.00  0.00    -0.270 C  
HETATM    8  C   UNL     1      -9.377   9.836  62.963  1.00  0.00    -0.092 C  
BRANCH   6   9
HETATM    9  C   UNL     1      -7.611   9.406  64.565  1.00  0.00    -0.110 C  
BRANCH   9  10
HETATM   10  C   UNL     1      -7.262   9.947  65.923  1.00  0.00    -0.108 A  
HETATM   11  C   UNL     1      -7.735   9.340  67.081  1.00  0.00    -0.095 A  
HETATM   12  C   UNL     1      -7.400   9.886  68.312  1.00  0.00    -0.079 A  
HETATM   13  C   UNL     1      -6.603  11.031  68.372  1.00  0.00    -0.058 A  
HETATM   14  N   UNL     1      -6.114  11.616  67.260  1.00  0.00    -0.096 NA 
HETATM   15  C   UNL     1      -6.459  11.073  66.070  1.00  0.00    -0.046 A  
BRANCH  13  16
HETATM   16  N   UNL     1      -6.218  11.565  69.597  1.00  0.00    -0.110 NA 
HETATM   17  H   UNL     1      -5.954  10.902  70.326  1.00  0.00     0.000 HD 
BRANCH  16  18
HETATM   18  C   UNL     1      -6.159  12.910  69.924  1.00  0.00    -0.126 A  
HETATM   19  N   UNL     1      -5.133  13.309  70.690  1.00  0.00    -0.106 NA 
HETATM   20  C   UNL     1      -5.127  14.600  71.072  1.00  0.00    -0.128 A  
HETATM   21  C   UNL     1      -6.056  15.519  70.647  1.00  0.00     0.125 A  
HETATM   22  F   UNL     1      -5.975  16.793  71.054  1.00  0.00     0.080 F  
HETATM   23  C   UNL     1      -7.044  15.057  69.802  1.00  0.00    -0.170 A  
HETATM   24  N   UNL     1      -7.118  13.745  69.478  1.00  0.00     0.044 NA 
BRANCH  23  25
HETATM   25  C   UNL     1      -8.053  15.922  69.149  1.00  0.00    -0.239 A  
HETATM   26  C   UNL     1      -9.426  15.717  69.380  1.00  0.00    -0.275 A  
HETATM   27  C   UNL     1     -10.394  16.540  68.807  1.00  0.00    -0.286 A  
HETATM   28  C   UNL     1     -10.015  17.603  67.980  1.00  0.00    -0.326 A  
HETATM   29  F   UNL     1     -11.688  16.294  69.066  1.00  0.00    -0.337 F  
HETATM   30  N   UNL     1     -10.781  18.517  67.318  1.00  0.00    -0.409 NA 
HETATM   31  C   UNL     1      -9.951  19.300  66.665  1.00  0.00    -0.380 A  
HETATM   32  N   UNL     1      -8.635  18.929  66.890  1.00  0.00    -0.282 NA 
HETATM   33  C   UNL     1     -10.427  20.410  65.801  1.00  0.00    -0.088 C  
HETATM   34  C   UNL     1      -7.665  17.009  68.321  1.00  0.00    -0.209 A  
HETATM   35  C   UNL     1      -8.659  17.830  67.743  1.00  0.00    -0.237 A  
BRANCH  32  36
HETATM   36  C   UNL     1      -7.412  19.486  66.305  1.00  0.00    -0.280 C  
HETATM   37  C   UNL     1      -6.679  18.592  65.298  1.00  0.00    -0.160 C  
HETATM   38  C   UNL     1      -6.444  19.957  67.392  1.00  0.00    -0.227 C  
ENDBRANCH  32  36
ENDBRANCH  23  25
ENDBRANCH  16  18
ENDBRANCH  13  16
ENDBRANCH   9  10
ENDBRANCH   6   9
ENDBRANCH   2   3
TORSDOF 7
ENDMDL
MODEL      134
REMARK 921   NORMALIZED FREE ENERGY PREDICTED BY IDOCK:   -4.42 KCAL/MOL
REMARK 922        TOTAL FREE ENERGY PREDICTED BY IDOCK:   -7.11 KCAL/MOL
REMARK 923 INTER-LIGAND FREE ENERGY PREDICTED BY IDOCK:   -6.73 KCAL/MOL
REMARK 924 INTRA-LIGAND FREE ENERGY PREDICTED BY IDOCK:   -0.38 KCAL/MOL
REMARK 927      BINDING AFFINITY PREDICTED BY RF-SCORE:    0.00 PKD
ROOT
HETATM    1  C   UNL     1     -10.455  18.648  66.202  1.00  0.00    -0.473 C  
HETATM    2  C   UNL     1     -10.886  17.269  65.714  1.00  0.00    -0.023 C  
ENDROOT
BRANCH   2   3
HETATM    3  N   UNL     1     -10.386  16.154  66.534  1.00  0.00    -0.301 NA 
HETATM    4  C   UNL     1     -11.514  15.482  67.223  1.00  0.00    -0.102 C  
HETATM    5  C   UNL     1     -12.348  14.537  66.322  1.00  0.00    -0.189 C  
HETATM    6  N   UNL     1     -11.553  13.525  65.589  1.00  0.00    -0.317 NA 
HETATM    7  C   UNL     1      -9.613  15.155  65.768  1.00  0.00    -0.309 C  
HETATM    8  C   UNL     1     -10.467  14.228  64.869  1.00  0.00    -0.430 C  
BRANCH   6   9
HETATM    9  C   UNL     1     -10.984  12.498  66.484  1.00  0.00    -0.266 C  
BRANCH   9  10
HETATM   10  C   UNL     1     -10.061  11.541  65.785  1.00  0.00    -0.278 A  
HETATM   11  C   UNL     1      -8.764  11.330  66.240  1.00  0.00    -0.184 A  
HETATM   12  C   UNL     1      -7.943  10.449  65.551  1.00  0.00    -0.153 A  
HETATM   13  C   UNL     1      -8.423   9.794  64.415  1.00  0.00    -0.179 A  
HETATM   14  N   UNL     1      -9.686   9.968  63.975  1.00  0.00    -0.207 NA 
HETATM   15  C   UNL     1     -10.467  10.836  64.656  1.00  0.00    -0.276 A  
BRANCH  13  16
HETATM   16  N   UNL     1      -7.631   8.874  63.738  1.00  0.00    -0.116 NA 
HETATM   17  H   UNL     1      -6.834   9.245  63.221  1.00  0.00     0.000 HD 
BRANCH  16  18
HETATM   18  C   UNL     1      -7.818   7.502  63.697  1.00  0.00    -0.112 A  
HETATM   19  N   UNL     1      -7.580   6.886  62.530  1.00  0.00    -0.089 NA 
HETATM   20  C   UNL     1      -7.842   5.566  62.475  1.00  0.00    -0.082 A  
HETATM   21  C   UNL     1      -8.249   4.830  63.561  1.00  0.00    -0.107 A  
HETATM   22  F   UNL     1      -8.473   3.515  63.435  1.00  0.00    -0.087 F  
HETATM   23  C   UNL     1      -8.405   5.513  64.750  1.00  0.00    -0.136 A  
HETATM   24  N   UNL     1      -8.231   6.854  64.804  1.00  0.00    -0.095 NA 
BRANCH  23  25
HETATM   25  C   UNL     1      -8.716   4.868  66.046  1.00  0.00    -0.124 A  
HETATM   26  C   UNL     1      -8.834   3.468  66.138  1.00  0.00    -0.130 A  
HETATM   27  C   UNL     1      -9.090   2.835  67.352  1.00  0.00    -0.177 A  
HETATM   28  C   UNL     1      -9.236   3.588  68.522  1.00  0.00    -0.166 A  
HETATM   29  F   UNL     1      -9.191   1.497  67.375  1.00  0.00    -0.133 F  
HETATM   30  N   UNL     1      -9.494   3.185  69.800  1.00  0.00    -0.156 NA 
HETATM   31  C   UNL     1      -9.552   4.274  70.533  1.00  0.00    -0.197 A  
HETATM   32  N   UNL     1      -9.325   5.405  69.764  1.00  0.00    -0.137 NA 
HETATM   33  C   UNL     1      -9.844   4.232  71.989  1.00  0.00    -0.241 C  
HETATM   34  C   UNL     1      -8.851   5.634  67.235  1.00  0.00    -0.106 A  
HETATM   35  C   UNL     1      -9.116   4.976  68.457  1.00  0.00    -0.111 A  
BRANCH  32  36
HETATM   36  C   UNL     1      -9.369   6.812  70.168  1.00  0.00    -0.159 C  
HETATM   37  C   UNL     1     -10.765   7.437  70.286  1.00  0.00    -0.250 C  
HETATM   38  C   UNL     1      -8.482   7.674  69.269  1.00  0.00    -0.138 C  
ENDBRANCH  32  36
ENDBRANCH  23  25
ENDBRANCH  16  18
ENDBRANCH  13  16
ENDBRANCH   9  10
ENDBRANCH   6   9
ENDBRANCH   2   3
TORSDOF 7
ENDMDL
MODEL      135
REMARK 921   NORMALIZED FREE ENERGY PREDICTED BY IDOCK:   -4.42 KCAL/MOL
REMARK 922        TOTAL FREE ENERGY PREDICTED BY IDOCK:   -7.10 KCAL/MOL
REMARK 923 INTER-LIGAND FREE ENERGY PREDICTED BY IDOCK:   -6.16 KCAL/MOL
REMARK 924 INTRA-LIGAND FREE ENERGY PREDICTED BY IDOCK:   -0.94 KCAL/MOL
REMARK 927      BINDING AFFINITY PREDICTED BY RF-SCORE:    0.00 PKD
ROOT
HETATM    1  C   UNL     1      -6.658  20.679  66.100  1.00  0.00    -0.269 C  
HETATM    2  C   UNL     1      -8.132  20.294  66.049  1.00  0.00    -0.090 C  
ENDROOT
BRANCH   2   3
HETATM    3  N   UNL     1      -8.573  19.444  67.167  1.00  0.00    -0.286 NA 
HETATM    4  C   UNL     1     -10.009  19.109  67.014  1.00  0.00    -0.347 C  
HETATM    5  C   UNL     1     -10.306  18.005  65.968  1.00  0.00    -0.331 C  
HETATM    6  N   UNL     1      -9.530  16.757  66.154  1.00  0.00    -0.391 NA 
HETATM    7  C   UNL     1      -7.791  18.200  67.312  1.00  0.00    -0.222 C  
HETATM    8  C   UNL     1      -8.097  17.117  66.250  1.00  0.00    -0.290 C  
BRANCH   6   9
HETATM    9  C   UNL     1      -9.946  16.009  67.358  1.00  0.00    -0.241 C  
BRANCH   9  10
HETATM   10  C   UNL     1      -9.099  14.798  67.630  1.00  0.00    -0.185 A  
HETATM   11  C   UNL     1      -9.213  13.652  66.850  1.00  0.00    -0.257 A  
HETATM   12  C   UNL     1      -8.422  12.552  67.151  1.00  0.00    -0.186 A  
HETATM   13  C   UNL     1      -7.534  12.606  68.227  1.00  0.00    -0.123 A  
HETATM   14  N   UNL     1      -7.392  13.718  68.977  1.00  0.00    -0.079 NA 
HETATM   15  C   UNL     1      -8.178  14.776  68.672  1.00  0.00    -0.159 A  
BRANCH  13  16
HETATM   16  N   UNL     1      -6.701  11.531  68.515  1.00  0.00    -0.063 NA 
HETATM   17  H   UNL     1      -5.729  11.609  68.215  1.00  0.00     0.000 HD 
BRANCH  16  18
HETATM   18  C   UNL     1      -7.062  10.364  69.170  1.00  0.00    -0.080 A  
HETATM   19  N   UNL     1      -6.937  10.348  70.505  1.00  0.00    -0.308 NA 
HETATM   20  C   UNL     1      -7.212   9.185  71.126  1.00  0.00    -0.073 A  
HETATM   21  C   UNL     1      -7.685   8.073  70.474  1.00  0.00    -0.085 A  
HETATM   22  F   UNL     1      -7.955   6.955  71.161  1.00  0.00    -0.096 F  
HETATM   23  C   UNL     1      -7.859   8.181  69.109  1.00  0.00    -0.107 A  
HETATM   24  N   UNL     1      -7.506   9.312  68.455  1.00  0.00    -0.080 NA 
BRANCH  23  25
HETATM   25  C   UNL     1      -8.472   7.132  68.262  1.00  0.00    -0.124 A  
HETATM   26  C   UNL     1      -9.788   7.277  67.786  1.00  0.00    -0.181 A  
HETATM   27  C   UNL     1     -10.375   6.322  66.957  1.00  0.00    -0.240 A  
HETATM   28  C   UNL     1      -9.656   5.184  66.576  1.00  0.00    -0.158 A  
HETATM   29  F   UNL     1     -11.634   6.517  66.536  1.00  0.00    -0.245 F  
HETATM   30  N   UNL     1     -10.027   4.133  65.790  1.00  0.00    -0.206 NA 
HETATM   31  C   UNL     1      -9.000   3.314  65.747  1.00  0.00    -0.145 A  
HETATM   32  N   UNL     1      -7.937   3.809  66.486  1.00  0.00    -0.089 NA 
HETATM   33  C   UNL     1      -9.043   2.031  64.999  1.00  0.00    -0.126 C  
HETATM   34  C   UNL     1      -7.735   5.984  67.865  1.00  0.00    -0.098 A  
HETATM   35  C   UNL     1      -8.347   5.023  67.029  1.00  0.00    -0.107 A  
BRANCH  32  36
HETATM   36  C   UNL     1      -6.640   3.185  66.758  1.00  0.00    -0.037 C  
HETATM   37  C   UNL     1      -5.818   2.774  65.530  1.00  0.00    -0.018 C  
HETATM   38  C   UNL     1      -6.786   2.000  67.714  1.00  0.00    -0.035 C  
ENDBRANCH  32  36
ENDBRANCH  23  25
ENDBRANCH  16  18
ENDBRANCH  13  16
ENDBRANCH   9  10
ENDBRANCH   6   9
ENDBRANCH   2   3
TORSDOF 7
ENDMDL
MODEL      136
REMARK 921   NORMALIZED FREE ENERGY PREDICTED BY IDOCK:   -4.41 KCAL/MOL
REMARK 922        TOTAL FREE ENERGY PREDICTED BY IDOCK:   -7.09 KCAL/MOL
REMARK 923 INTER-LIGAND FREE ENERGY PREDICTED BY IDOCK:   -7.75 KCAL/MOL
REMARK 924 INTRA-LIGAND FREE ENERGY PREDICTED BY IDOCK:    0.66 KCAL/MOL
REMARK 927      BINDING AFFINITY PREDICTED BY RF-SCORE:    0.00 PKD
ROOT
HETATM    1  C   UNL     1      -8.682  10.188  62.339  1.00  0.00    -0.238 C  
HETATM    2  C   UNL     1      -8.702  10.955  63.656  1.00  0.00    -0.030 C  
ENDROOT
BRANCH   2   3
HETATM    3  N   UNL     1     -10.049  11.178  64.206  1.00  0.00    -0.297 NA 
HETATM    4  C   UNL     1      -9.997  11.195  65.687  1.00  0.00    -0.249 C  
HETATM    5  C   UNL     1      -9.455  12.511  66.298  1.00  0.00    -0.210 C  
HETATM    6  N   UNL     1     -10.134  13.738  65.820  1.00  0.00    -0.308 NA 
HETATM    7  C   UNL     1     -10.689  12.418  63.722  1.00  0.00    -0.451 C  
HETATM    8  C   UNL     1     -10.125  13.720  64.340  1.00  0.00     0.186 C  
BRANCH   6   9
HETATM    9  C   UNL     1     -11.522  13.843  66.315  1.00  0.00    -0.339 C  
BRANCH   9  10
HETATM   10  C   UNL     1     -11.751  13.114  67.609  1.00  0.00    -0.414 A  
HETATM   11  C   UNL     1     -12.002  11.746  67.628  1.00  0.00    -0.106 A  
HETATM   12  C   UNL     1     -12.225  11.120  68.846  1.00  0.00    -0.144 A  
HETATM   13  C   UNL     1     -12.201  11.865  70.027  1.00  0.00    -0.217 A  
HETATM   14  N   UNL     1     -11.934  13.187  70.028  1.00  0.00    -0.339 NA 
HETATM   15  C   UNL     1     -11.727  13.779  68.830  1.00  0.00    -0.356 A  
BRANCH  13  16
HETATM   16  N   UNL     1     -12.376  11.247  71.260  1.00  0.00    -0.313 NA 
HETATM   17  H   UNL     1     -12.333  11.846  72.085  1.00  0.00     0.000 HD 
BRANCH  16  18
HETATM   18  C   UNL     1     -12.605   9.898  71.478  1.00  0.00    -0.416 A  
HETATM   19  N   UNL     1     -13.672   9.570  72.221  1.00  0.00    -0.422 NA 
HETATM   20  C   UNL     1     -13.841   8.263  72.497  1.00  0.00    -0.053 A  
HETATM   21  C   UNL     1     -13.036   7.272  71.988  1.00  0.00    -0.156 A  
HETATM   22  F   UNL     1     -13.277   5.990  72.292  1.00  0.00    -0.233 F  
HETATM   23  C   UNL     1     -11.999   7.674  71.172  1.00  0.00    -0.297 A  
HETATM   24  N   UNL     1     -11.760   8.988  70.954  1.00  0.00    -0.284 NA 
BRANCH  23  25
HETATM   25  C   UNL     1     -11.108   6.745  70.439  1.00  0.00    -0.357 A  
HETATM   26  C   UNL     1     -10.833   6.946  69.073  1.00  0.00    -0.247 A  
HETATM   27  C   UNL     1      -9.970   6.108  68.371  1.00  0.00    -0.140 A  
HETATM   28  C   UNL     1      -9.349   5.034  69.018  1.00  0.00    -0.126 A  
HETATM   29  F   UNL     1      -9.748   6.352  67.070  1.00  0.00    -0.136 F  
HETATM   30  N   UNL     1      -8.486   4.096  68.532  1.00  0.00    -0.090 NA 
HETATM   31  C   UNL     1      -8.201   3.294  69.534  1.00  0.00    -0.051 A  
HETATM   32  N   UNL     1      -8.852   3.690  70.691  1.00  0.00    -0.074 NA 
HETATM   33  C   UNL     1      -7.301   2.123  69.376  1.00  0.00    -0.043 C  
HETATM   34  C   UNL     1     -10.468   5.663  71.102  1.00  0.00    -0.306 A  
HETATM   35  C   UNL     1      -9.601   4.820  70.373  1.00  0.00    -0.197 A  
BRANCH  32  36
HETATM   36  C   UNL     1      -8.865   3.041  72.004  1.00  0.00    -0.082 C  
HETATM   37  C   UNL     1      -7.534   3.032  72.766  1.00  0.00    -0.049 C  
HETATM   38  C   UNL     1      -9.430   1.623  71.914  1.00  0.00    -0.169 C  
ENDBRANCH  32  36
ENDBRANCH  23  25
ENDBRANCH  16  18
ENDBRANCH  13  16
ENDBRANCH   9  10
ENDBRANCH   6   9
ENDBRANCH   2   3
TORSDOF 7
ENDMDL
MODEL      137
REMARK 921   NORMALIZED FREE ENERGY PREDICTED BY IDOCK:   -4.39 KCAL/MOL
REMARK 922        TOTAL FREE ENERGY PREDICTED BY IDOCK:   -7.06 KCAL/MOL
REMARK 923 INTER-LIGAND FREE ENERGY PREDICTED BY IDOCK:   -7.91 KCAL/MOL
REMARK 924 INTRA-LIGAND FREE ENERGY PREDICTED BY IDOCK:    0.85 KCAL/MOL
REMARK 927      BINDING AFFINITY PREDICTED BY RF-SCORE:    0.00 PKD
ROOT
HETATM    1  C   UNL     1      -8.785  19.763  65.966  1.00  0.00    -0.296 C  
HETATM    2  C   UNL     1      -9.484  20.113  67.274  1.00  0.00    -0.401 C  
ENDROOT
BRANCH   2   3
HETATM    3  N   UNL     1      -9.588  18.992  68.223  1.00  0.00    -0.334 NA 
HETATM    4  C   UNL     1     -10.671  18.070  67.804  1.00  0.00    -0.334 C  
HETATM    5  C   UNL     1     -10.301  17.132  66.628  1.00  0.00    -0.310 C  
HETATM    6  N   UNL     1      -9.052  16.359  66.827  1.00  0.00    -0.219 NA 
HETATM    7  C   UNL     1      -8.331  18.232  68.383  1.00  0.00    -0.307 C  
HETATM    8  C   UNL     1      -7.978  17.309  67.192  1.00  0.00    -0.205 C  
BRANCH   6   9
HETATM    9  C   UNL     1      -9.190  15.326  67.873  1.00  0.00    -0.184 C  
BRANCH   9  10
HETATM   10  C   UNL     1      -8.452  14.055  67.559  1.00  0.00    -0.201 A  
HETATM   11  C   UNL     1      -7.109  13.905  67.887  1.00  0.00    -0.168 A  
HETATM   12  C   UNL     1      -6.465  12.720  67.562  1.00  0.00    -0.161 A  
HETATM   13  C   UNL     1      -7.165  11.704  66.908  1.00  0.00    -0.125 A  
HETATM   14  N   UNL     1      -8.474  11.823  66.605  1.00  0.00    -0.173 NA 
HETATM   15  C   UNL     1      -9.081  12.989  66.925  1.00  0.00    -0.227 A  
BRANCH  13  16
HETATM   16  N   UNL     1      -6.549  10.492  66.614  1.00  0.00    -0.087 NA 
HETATM   17  H   UNL     1      -5.962  10.465  65.780  1.00  0.00     0.000 HD 
BRANCH  16  18
HETATM   18  C   UNL     1      -6.655   9.318  67.343  1.00  0.00    -0.064 A  
HETATM   19  N   UNL     1      -5.566   8.539  67.409  1.00  0.00    -0.038 NA 
HETATM   20  C   UNL     1      -5.700   7.362  68.049  1.00  0.00    -0.027 A  
HETATM   21  C   UNL     1      -6.850   6.979  68.695  1.00  0.00    -0.076 A  
HETATM   22  F   UNL     1      -6.904   5.800  69.328  1.00  0.00    -0.052 F  
HETATM   23  C   UNL     1      -7.910   7.861  68.649  1.00  0.00    -0.119 A  
HETATM   24  N   UNL     1      -7.824   9.009  67.936  1.00  0.00    -0.100 NA 
BRANCH  23  25
HETATM   25  C   UNL     1      -9.182   7.674  69.386  1.00  0.00    -0.149 A  
HETATM   26  C   UNL     1      -9.645   6.382  69.694  1.00  0.00    -0.157 A  
HETATM   27  C   UNL     1     -10.819   6.180  70.418  1.00  0.00    -0.310 A  
HETATM   28  C   UNL     1     -11.570   7.274  70.860  1.00  0.00    -0.300 A  
HETATM   29  F   UNL     1     -11.209   4.923  70.680  1.00  0.00     0.054 F  
HETATM   30  N   UNL     1     -12.736   7.311  71.567  1.00  0.00    -0.370 NA 
HETATM   31  C   UNL     1     -13.043   8.580  71.719  1.00  0.00    -0.355 A  
HETATM   32  N   UNL     1     -12.090   9.397  71.134  1.00  0.00    -0.313 NA 
HETATM   33  C   UNL     1     -14.276   9.015  72.425  1.00  0.00    -0.416 C  
HETATM   34  C   UNL     1      -9.935   8.788  69.845  1.00  0.00    -0.193 A  
HETATM   35  C   UNL     1     -11.126   8.565  70.573  1.00  0.00    -0.244 A  
BRANCH  32  36
HETATM   36  C   UNL     1     -12.082  10.857  71.014  1.00  0.00    -0.320 C  
HETATM   37  C   UNL     1     -12.970  11.621  72.004  1.00  0.00    -0.365 C  
HETATM   38  C   UNL     1     -12.394  11.296  69.582  1.00  0.00    -0.262 C  
ENDBRANCH  32  36
ENDBRANCH  23  25
ENDBRANCH  16  18
ENDBRANCH  13  16
ENDBRANCH   9  10
ENDBRANCH   6   9
ENDBRANCH   2   3
TORSDOF 7
ENDMDL
MODEL      138
REMARK 921   NORMALIZED FREE ENERGY PREDICTED BY IDOCK:   -4.38 KCAL/MOL
REMARK 922        TOTAL FREE ENERGY PREDICTED BY IDOCK:   -7.05 KCAL/MOL
REMARK 923 INTER-LIGAND FREE ENERGY PREDICTED BY IDOCK:   -5.97 KCAL/MOL
REMARK 924 INTRA-LIGAND FREE ENERGY PREDICTED BY IDOCK:   -1.08 KCAL/MOL
REMARK 927      BINDING AFFINITY PREDICTED BY RF-SCORE:    0.00 PKD
ROOT
HETATM    1  C   UNL     1     -10.403   1.502  72.254  1.00  0.00    -0.225 C  
HETATM    2  C   UNL     1      -9.967   2.949  72.049  1.00  0.00    -0.156 C  
ENDROOT
BRANCH   2   3
HETATM    3  N   UNL     1      -8.864   3.118  71.089  1.00  0.00    -0.078 NA 
HETATM    4  C   UNL     1      -9.396   3.183  69.707  1.00  0.00    -0.153 C  
HETATM    5  C   UNL     1     -10.029   4.544  69.324  1.00  0.00    -0.122 C  
HETATM    6  N   UNL     1      -9.159   5.718  69.567  1.00  0.00    -0.129 NA 
HETATM    7  C   UNL     1      -8.028   4.307  71.350  1.00  0.00    -0.081 C  
HETATM    8  C   UNL     1      -8.685   5.655  70.968  1.00  0.00    -0.134 C  
BRANCH   6   9
HETATM    9  C   UNL     1      -8.007   5.765  68.645  1.00  0.00    -0.101 C  
BRANCH   9  10
HETATM   10  C   UNL     1      -7.464   7.151  68.438  1.00  0.00    -0.106 A  
HETATM   11  C   UNL     1      -6.102   7.412  68.540  1.00  0.00    -0.028 A  
HETATM   12  C   UNL     1      -5.649   8.711  68.357  1.00  0.00    -0.038 A  
HETATM   13  C   UNL     1      -6.560   9.733  68.083  1.00  0.00    -0.060 A  
HETATM   14  N   UNL     1      -7.881   9.493  67.957  1.00  0.00    -0.087 NA 
HETATM   15  C   UNL     1      -8.302   8.222  68.145  1.00  0.00    -0.129 A  
BRANCH  13  16
HETATM   16  N   UNL     1      -6.122  11.032  67.853  1.00  0.00    -0.049 NA 
HETATM   17  H   UNL     1      -5.718  11.226  66.936  1.00  0.00     0.000 HD 
BRANCH  16  18
HETATM   18  C   UNL     1      -6.179  12.090  68.746  1.00  0.00    -0.063 A  
HETATM   19  N   UNL     1      -5.333  12.060  69.786  1.00  0.00    -0.075 NA 
HETATM   20  C   UNL     1      -5.450  13.048  70.693  1.00  0.00    -0.169 A  
HETATM   21  C   UNL     1      -6.319  14.103  70.554  1.00  0.00    -0.081 A  
HETATM   22  F   UNL     1      -6.367  15.060  71.490  1.00  0.00     0.219 F  
HETATM   23  C   UNL     1      -7.110  14.110  69.424  1.00  0.00    -0.049 A  
HETATM   24  N   UNL     1      -7.069  13.081  68.546  1.00  0.00    -0.099 NA 
BRANCH  23  25
HETATM   25  C   UNL     1      -8.013  15.222  69.046  1.00  0.00    -0.195 A  
HETATM   26  C   UNL     1      -9.400  15.121  69.261  1.00  0.00    -0.207 A  
HETATM   27  C   UNL     1     -10.265  16.167  68.948  1.00  0.00    -0.245 A  
HETATM   28  C   UNL     1      -9.766  17.357  68.408  1.00  0.00    -0.304 A  
HETATM   29  F   UNL     1     -11.579  16.010  69.176  1.00  0.00    -0.314 F  
HETATM   30  N   UNL     1     -10.420  18.491  68.026  1.00  0.00    -0.381 NA 
HETATM   31  C   UNL     1      -9.505  19.317  67.568  1.00  0.00    -0.310 A  
HETATM   32  N   UNL     1      -8.241  18.755  67.649  1.00  0.00    -0.260 NA 
HETATM   33  C   UNL     1      -9.849  20.659  67.031  1.00  0.00    -0.449 C  
HETATM   34  C   UNL     1      -7.501  16.435  68.511  1.00  0.00    -0.181 A  
HETATM   35  C   UNL     1      -8.393  17.483  68.194  1.00  0.00    -0.249 A  
BRANCH  32  36
HETATM   36  C   UNL     1      -6.963  19.301  67.188  1.00  0.00    -0.198 C  
HETATM   37  C   UNL     1      -6.582  20.682  67.736  1.00  0.00    -0.368 C  
HETATM   38  C   UNL     1      -6.881  19.301  65.660  1.00  0.00    -0.313 C  
ENDBRANCH  32  36
ENDBRANCH  23  25
ENDBRANCH  16  18
ENDBRANCH  13  16
ENDBRANCH   9  10
ENDBRANCH   6   9
ENDBRANCH   2   3
TORSDOF 7
ENDMDL
MODEL      139
REMARK 921   NORMALIZED FREE ENERGY PREDICTED BY IDOCK:   -4.38 KCAL/MOL
REMARK 922        TOTAL FREE ENERGY PREDICTED BY IDOCK:   -7.05 KCAL/MOL
REMARK 923 INTER-LIGAND FREE ENERGY PREDICTED BY IDOCK:   -6.57 KCAL/MOL
REMARK 924 INTRA-LIGAND FREE ENERGY PREDICTED BY IDOCK:   -0.47 KCAL/MOL
REMARK 927      BINDING AFFINITY PREDICTED BY RF-SCORE:    0.00 PKD
ROOT
HETATM    1  C   UNL     1      -6.841   7.084  63.799  1.00  0.00    -0.051 C  
HETATM    2  C   UNL     1      -7.574   5.977  64.547  1.00  0.00    -0.092 C  
ENDROOT
BRANCH   2   3
HETATM    3  N   UNL     1      -8.058   6.366  65.882  1.00  0.00    -0.117 NA 
HETATM    4  C   UNL     1      -7.368   5.569  66.925  1.00  0.00    -0.079 C  
HETATM    5  C   UNL     1      -5.922   6.031  67.237  1.00  0.00    -0.018 C  
HETATM    6  N   UNL     1      -5.792   7.471  67.558  1.00  0.00    -0.034 NA 
HETATM    7  C   UNL     1      -7.896   7.805  66.175  1.00  0.00    -0.095 C  
HETATM    8  C   UNL     1      -6.442   8.243  66.475  1.00  0.00    -0.055 C  
BRANCH   6   9
HETATM    9  C   UNL     1      -6.399   7.816  68.859  1.00  0.00    -0.036 C  
BRANCH   9  10
HETATM   10  C   UNL     1      -6.348   9.285  69.171  1.00  0.00    -0.042 A  
HETATM   11  C   UNL     1      -5.136   9.936  69.373  1.00  0.00    -0.035 A  
HETATM   12  C   UNL     1      -5.140  11.290  69.675  1.00  0.00    -0.041 A  
HETATM   13  C   UNL     1      -6.352  11.976  69.779  1.00  0.00    -0.110 A  
HETATM   14  N   UNL     1      -7.535  11.367  69.561  1.00  0.00     0.050 NA 
HETATM   15  C   UNL     1      -7.509  10.045  69.274  1.00  0.00    -0.103 A  
BRANCH  13  16
HETATM   16  N   UNL     1      -6.374  13.342  70.036  1.00  0.00    -0.328 NA 
HETATM   17  H   UNL     1      -6.154  13.635  70.988  1.00  0.00     0.000 HD 
BRANCH  16  18
HETATM   18  C   UNL     1      -6.667  14.345  69.126  1.00  0.00    -0.117 A  
HETATM   19  N   UNL     1      -5.834  15.396  69.084  1.00  0.00    -0.103 NA 
HETATM   20  C   UNL     1      -6.170  16.404  68.256  1.00  0.00    -0.120 A  
HETATM   21  C   UNL     1      -7.253  16.360  67.412  1.00  0.00    -0.160 A  
HETATM   22  F   UNL     1      -7.514  17.395  66.602  1.00  0.00    -0.201 F  
HETATM   23  C   UNL     1      -8.026  15.219  67.454  1.00  0.00    -0.186 A  
HETATM   24  N   UNL     1      -7.756  14.233  68.342  1.00  0.00    -0.126 NA 
BRANCH  23  25
HETATM   25  C   UNL     1      -9.155  14.943  66.535  1.00  0.00    -0.309 A  
HETATM   26  C   UNL     1      -9.894  16.002  65.974  1.00  0.00    -0.365 A  
HETATM   27  C   UNL     1     -10.936  15.771  65.079  1.00  0.00    -0.417 A  
HETATM   28  C   UNL     1     -11.274  14.463  64.713  1.00  0.00    -0.387 A  
HETATM   29  F   UNL     1     -11.604  16.822  64.578  1.00  0.00    -0.349 F  
HETATM   30  N   UNL     1     -12.247  14.010  63.872  1.00  0.00    -0.614 NA 
HETATM   31  C   UNL     1     -12.166  12.698  63.876  1.00  0.00    -0.481 A  
HETATM   32  N   UNL     1     -11.140  12.264  64.701  1.00  0.00    -0.302 NA 
HETATM   33  C   UNL     1     -13.094  11.847  63.088  1.00  0.00     0.150 C  
HETATM   34  C   UNL     1      -9.487  13.615  66.155  1.00  0.00    -0.166 A  
HETATM   35  C   UNL     1     -10.550  13.399  65.251  1.00  0.00    -0.325 A  
BRANCH  32  36
HETATM   36  C   UNL     1     -10.755  10.893  65.042  1.00  0.00    -0.146 C  
HETATM   37  C   UNL     1     -10.535  10.605  66.532  1.00  0.00    -0.285 C  
HETATM   38  C   UNL     1      -9.537  10.443  64.234  1.00  0.00    -0.377 C  
ENDBRANCH  32  36
ENDBRANCH  23  25
ENDBRANCH  16  18
ENDBRANCH  13  16
ENDBRANCH   9  10
ENDBRANCH   6   9
ENDBRANCH   2   3
TORSDOF 7
ENDMDL
MODEL      140
REMARK 921   NORMALIZED FREE ENERGY PREDICTED BY IDOCK:   -4.36 KCAL/MOL
REMARK 922        TOTAL FREE ENERGY PREDICTED BY IDOCK:   -7.02 KCAL/MOL
REMARK 923 INTER-LIGAND FREE ENERGY PREDICTED BY IDOCK:   -7.51 KCAL/MOL
REMARK 924 INTRA-LIGAND FREE ENERGY PREDICTED BY IDOCK:    0.48 KCAL/MOL
REMARK 927      BINDING AFFINITY PREDICTED BY RF-SCORE:    0.00 PKD
ROOT
HETATM    1  C   UNL     1     -11.451  15.624  67.632  1.00  0.00    -0.167 C  
HETATM    2  C   UNL     1     -11.218  16.414  68.916  1.00  0.00    -0.304 C  
ENDROOT
BRANCH   2   3
HETATM    3  N   UNL     1     -10.940  15.579  70.097  1.00  0.00    -0.295 NA 
HETATM    4  C   UNL     1     -12.042  15.708  71.081  1.00  0.00    -0.404 C  
HETATM    5  C   UNL     1     -13.319  14.905  70.728  1.00  0.00    -0.293 C  
HETATM    6  N   UNL     1     -13.085  13.470  70.443  1.00  0.00     0.113 NA 
HETATM    7  C   UNL     1     -10.730  14.152  69.778  1.00  0.00     0.134 C  
HETATM    8  C   UNL     1     -12.019  13.374  69.420  1.00  0.00    -0.315 C  
BRANCH   6   9
HETATM    9  C   UNL     1     -12.697  12.712  71.650  1.00  0.00    -0.187 C  
BRANCH   9  10
HETATM   10  C   UNL     1     -12.572  11.234  71.411  1.00  0.00    -0.456 A  
HETATM   11  C   UNL     1     -11.621  10.725  70.533  1.00  0.00    -0.425 A  
HETATM   12  C   UNL     1     -11.555   9.354  70.333  1.00  0.00    -0.241 A  
HETATM   13  C   UNL     1     -12.440   8.508  71.005  1.00  0.00    -0.088 A  
HETATM   14  N   UNL     1     -13.351   8.983  71.878  1.00  0.00    -0.387 NA 
HETATM   15  C   UNL     1     -13.404  10.323  72.054  1.00  0.00    -0.361 A  
BRANCH  13  16
HETATM   16  N   UNL     1     -12.359   7.129  70.851  1.00  0.00    -0.527 NA 
HETATM   17  H   UNL     1     -13.191   6.590  71.093  1.00  0.00     0.000 HD 
BRANCH  16  18
HETATM   18  C   UNL     1     -11.259   6.415  70.403  1.00  0.00    -0.372 A  
HETATM   19  N   UNL     1     -10.850   5.385  71.157  1.00  0.00    -0.172 NA 
HETATM   20  C   UNL     1      -9.733   4.747  70.759  1.00  0.00    -0.197 A  
HETATM   21  C   UNL     1      -9.065   5.046  69.596  1.00  0.00    -0.109 A  
HETATM   22  F   UNL     1      -7.970   4.355  69.254  1.00  0.00    -0.061 F  
HETATM   23  C   UNL     1      -9.583   6.070  68.830  1.00  0.00    -0.129 A  
HETATM   24  N   UNL     1     -10.653   6.780  69.257  1.00  0.00    -0.217 NA 
BRANCH  23  25
HETATM   25  C   UNL     1      -9.072   6.449  67.492  1.00  0.00    -0.114 A  
HETATM   26  C   UNL     1      -8.573   5.469  66.614  1.00  0.00    -0.116 A  
HETATM   27  C   UNL     1      -8.121   5.795  65.337  1.00  0.00    -0.131 A  
HETATM   28  C   UNL     1      -8.155   7.122  64.895  1.00  0.00    -0.107 A  
HETATM   29  F   UNL     1      -7.656   4.816  64.546  1.00  0.00    -0.067 F  
HETATM   30  N   UNL     1      -7.763   7.662  63.705  1.00  0.00    -0.122 NA 
HETATM   31  C   UNL     1      -7.987   8.955  63.787  1.00  0.00    -0.154 A  
HETATM   32  N   UNL     1      -8.536   9.289  65.015  1.00  0.00    -0.153 NA 
HETATM   33  C   UNL     1      -7.656   9.886  62.678  1.00  0.00    -0.128 C  
HETATM   34  C   UNL     1      -9.121   7.796  67.041  1.00  0.00    -0.162 A  
HETATM   35  C   UNL     1      -8.653   8.109  65.745  1.00  0.00    -0.154 A  
BRANCH  32  36
HETATM   36  C   UNL     1      -8.869  10.614  65.541  1.00  0.00    -0.188 C  
HETATM   37  C   UNL     1      -7.950  11.153  66.645  1.00  0.00    -0.159 C  
HETATM   38  C   UNL     1     -10.328  10.680  65.994  1.00  0.00    -0.290 C  
ENDBRANCH  32  36
ENDBRANCH  23  25
ENDBRANCH  16  18
ENDBRANCH  13  16
ENDBRANCH   9  10
ENDBRANCH   6   9
ENDBRANCH   2   3
TORSDOF 7
ENDMDL
MODEL      141
REMARK 921   NORMALIZED FREE ENERGY PREDICTED BY IDOCK:   -4.35 KCAL/MOL
REMARK 922        TOTAL FREE ENERGY PREDICTED BY IDOCK:   -7.00 KCAL/MOL
REMARK 923 INTER-LIGAND FREE ENERGY PREDICTED BY IDOCK:   -5.99 KCAL/MOL
REMARK 924 INTRA-LIGAND FREE ENERGY PREDICTED BY IDOCK:   -1.02 KCAL/MOL
REMARK 927      BINDING AFFINITY PREDICTED BY RF-SCORE:    0.00 PKD
ROOT
HETATM    1  C   UNL     1      -5.942  20.700  65.463  1.00  0.00    -0.264 C  
HETATM    2  C   UNL     1      -7.344  20.112  65.582  1.00  0.00    -0.263 C  
ENDROOT
BRANCH   2   3
HETATM    3  N   UNL     1      -7.649  19.541  66.904  1.00  0.00    -0.239 NA 
HETATM    4  C   UNL     1      -9.077  19.146  66.970  1.00  0.00    -0.294 C  
HETATM    5  C   UNL     1      -9.414  17.821  66.243  1.00  0.00    -0.217 C  
HETATM    6  N   UNL     1      -8.571  16.669  66.641  1.00  0.00    -0.232 NA 
HETATM    7  C   UNL     1      -6.803  18.384  67.261  1.00  0.00    -0.198 C  
HETATM    8  C   UNL     1      -7.153  17.073  66.515  1.00  0.00    -0.271 C  
BRANCH   6   9
HETATM    9  C   UNL     1      -8.848  16.218  68.019  1.00  0.00    -0.182 C  
BRANCH   9  10
HETATM   10  C   UNL     1      -7.968  15.084  68.464  1.00  0.00    -0.144 A  
HETATM   11  C   UNL     1      -7.876  13.912  67.722  1.00  0.00    -0.172 A  
HETATM   12  C   UNL     1      -7.063  12.886  68.181  1.00  0.00    -0.108 A  
HETATM   13  C   UNL     1      -6.358  13.038  69.378  1.00  0.00    -0.111 A  
HETATM   14  N   UNL     1      -6.417  14.177  70.097  1.00  0.00    -0.123 NA 
HETATM   15  C   UNL     1      -7.220  15.163  69.635  1.00  0.00    -0.194 A  
BRANCH  13  16
HETATM   16  N   UNL     1      -5.504  12.039  69.831  1.00  0.00    -0.087 NA 
HETATM   17  H   UNL     1      -4.506  12.185  69.681  1.00  0.00     0.000 HD 
BRANCH  16  18
HETATM   18  C   UNL     1      -5.877  10.865  70.467  1.00  0.00    -0.130 A  
HETATM   19  N   UNL     1      -5.359  10.637  71.682  1.00  0.00    -0.289 NA 
HETATM   20  C   UNL     1      -5.660   9.458  72.258  1.00  0.00    -0.024 A  
HETATM   21  C   UNL     1      -6.523   8.543  71.704  1.00  0.00    -0.067 A  
HETATM   22  F   UNL     1      -6.790   7.398  72.345  1.00  0.00    -0.057 F  
HETATM   23  C   UNL     1      -7.077   8.874  70.484  1.00  0.00    -0.064 A  
HETATM   24  N   UNL     1      -6.719  10.014  69.849  1.00  0.00    -0.083 NA 
BRANCH  23  25
HETATM   25  C   UNL     1      -8.116   8.073  69.797  1.00  0.00    -0.115 A  
HETATM   26  C   UNL     1      -9.425   8.011  70.309  1.00  0.00    -0.167 A  
HETATM   27  C   UNL     1     -10.430   7.294  69.661  1.00  0.00    -0.231 A  
HETATM   28  C   UNL     1     -10.153   6.613  68.471  1.00  0.00    -0.161 A  
HETATM   29  F   UNL     1     -11.659   7.274  70.199  1.00  0.00    -0.289 F  
HETATM   30  N   UNL     1     -10.968   5.854  67.683  1.00  0.00    -0.241 NA 
HETATM   31  C   UNL     1     -10.230   5.420  66.686  1.00  0.00    -0.243 A  
HETATM   32  N   UNL     1      -8.930   5.889  66.788  1.00  0.00    -0.117 NA 
HETATM   33  C   UNL     1     -10.775   4.532  65.628  1.00  0.00    -0.160 C  
HETATM   34  C   UNL     1      -7.835   7.393  68.581  1.00  0.00    -0.122 A  
HETATM   35  C   UNL     1      -8.864   6.666  67.941  1.00  0.00    -0.115 A  
BRANCH  32  36
HETATM   36  C   UNL     1      -7.778   5.591  65.934  1.00  0.00    -0.091 C  
HETATM   37  C   UNL     1      -6.639   4.800  66.589  1.00  0.00    -0.050 C  
HETATM   38  C   UNL     1      -7.229   6.861  65.282  1.00  0.00    -0.074 C  
ENDBRANCH  32  36
ENDBRANCH  23  25
ENDBRANCH  16  18
ENDBRANCH  13  16
ENDBRANCH   9  10
ENDBRANCH   6   9
ENDBRANCH   2   3
TORSDOF 7
ENDMDL
MODEL      142
REMARK 921   NORMALIZED FREE ENERGY PREDICTED BY IDOCK:   -4.34 KCAL/MOL
REMARK 922        TOTAL FREE ENERGY PREDICTED BY IDOCK:   -6.99 KCAL/MOL
REMARK 923 INTER-LIGAND FREE ENERGY PREDICTED BY IDOCK:   -5.90 KCAL/MOL
REMARK 924 INTRA-LIGAND FREE ENERGY PREDICTED BY IDOCK:   -1.09 KCAL/MOL
REMARK 927      BINDING AFFINITY PREDICTED BY RF-SCORE:    0.00 PKD
ROOT
HETATM    1  C   UNL     1     -12.161  14.337  67.486  1.00  0.00    -0.347 C  
HETATM    2  C   UNL     1     -11.121  13.226  67.396  1.00  0.00    -0.278 C  
ENDROOT
BRANCH   2   3
HETATM    3  N   UNL     1     -10.570  12.806  68.695  1.00  0.00    -0.248 NA 
HETATM    4  C   UNL     1     -11.559  13.054  69.771  1.00  0.00    -0.216 C  
HETATM    5  C   UNL     1     -12.706  12.015  69.844  1.00  0.00     0.362 C  
HETATM    6  N   UNL     1     -12.256  10.605  69.910  1.00  0.00    -0.300 NA 
HETATM    7  C   UNL     1     -10.149  11.391  68.731  1.00  0.00    -0.188 C  
HETATM    8  C   UNL     1     -11.312  10.372  68.794  1.00  0.00    -0.214 C  
BRANCH   6   9
HETATM    9  C   UNL     1     -11.609  10.280  71.197  1.00  0.00    -0.300 C  
BRANCH   9  10
HETATM   10  C   UNL     1     -11.276   8.822  71.347  1.00  0.00    -0.362 A  
HETATM   11  C   UNL     1      -9.983   8.407  71.643  1.00  0.00    -0.302 A  
HETATM   12  C   UNL     1      -9.721   7.049  71.755  1.00  0.00    -0.165 A  
HETATM   13  C   UNL     1     -10.749   6.123  71.564  1.00  0.00    -0.252 A  
HETATM   14  N   UNL     1     -12.014   6.510  71.301  1.00  0.00    -0.338 NA 
HETATM   15  C   UNL     1     -12.246   7.838  71.189  1.00  0.00    -0.268 A  
BRANCH  13  16
HETATM   16  N   UNL     1     -10.515   4.761  71.717  1.00  0.00    -0.157 NA 
HETATM   17  H   UNL     1     -10.851   4.331  72.579  1.00  0.00     0.000 HD 
BRANCH  16  18
HETATM   18  C   UNL     1      -9.872   3.931  70.813  1.00  0.00    -0.141 A  
HETATM   19  N   UNL     1      -9.570   2.692  71.228  1.00  0.00    -0.152 NA 
HETATM   20  C   UNL     1      -8.873   1.919  70.374  1.00  0.00    -0.069 A  
HETATM   21  C   UNL     1      -8.545   2.308  69.097  1.00  0.00    -0.068 A  
HETATM   22  F   UNL     1      -7.865   1.477  68.296  1.00  0.00    -0.049 F  
HETATM   23  C   UNL     1      -8.950   3.569  68.710  1.00  0.00    -0.130 A  
HETATM   24  N   UNL     1      -9.575   4.393  69.583  1.00  0.00    -0.189 NA 
BRANCH  23  25
HETATM   25  C   UNL     1      -8.795   4.109  67.339  1.00  0.00    -0.128 A  
HETATM   26  C   UNL     1      -9.186   3.346  66.223  1.00  0.00    -0.168 A  
HETATM   27  C   UNL     1      -9.084   3.846  64.925  1.00  0.00    -0.141 A  
HETATM   28  C   UNL     1      -8.585   5.134  64.704  1.00  0.00    -0.142 A  
HETATM   29  F   UNL     1      -9.473   3.070  63.901  1.00  0.00    -0.108 F  
HETATM   30  N   UNL     1      -8.394   5.813  63.537  1.00  0.00    -0.069 NA 
HETATM   31  C   UNL     1      -7.889   6.983  63.861  1.00  0.00    -0.106 A  
HETATM   32  N   UNL     1      -7.750   7.102  65.234  1.00  0.00    -0.106 NA 
HETATM   33  C   UNL     1      -7.522   7.995  62.838  1.00  0.00    -0.113 C  
HETATM   34  C   UNL     1      -8.301   5.422  67.118  1.00  0.00    -0.107 A  
HETATM   35  C   UNL     1      -8.199   5.911  65.796  1.00  0.00    -0.130 A  
BRANCH  32  36
HETATM   36  C   UNL     1      -7.169   8.204  66.005  1.00  0.00    -0.069 C  
HETATM   37  C   UNL     1      -7.571   9.618  65.569  1.00  0.00    -0.109 C  
HETATM   38  C   UNL     1      -5.645   8.088  66.072  1.00  0.00    -0.036 C  
ENDBRANCH  32  36
ENDBRANCH  23  25
ENDBRANCH  16  18
ENDBRANCH  13  16
ENDBRANCH   9  10
ENDBRANCH   6   9
ENDBRANCH   2   3
TORSDOF 7
ENDMDL
MODEL      143
REMARK 921   NORMALIZED FREE ENERGY PREDICTED BY IDOCK:   -4.34 KCAL/MOL
REMARK 922        TOTAL FREE ENERGY PREDICTED BY IDOCK:   -6.99 KCAL/MOL
REMARK 923 INTER-LIGAND FREE ENERGY PREDICTED BY IDOCK:   -6.06 KCAL/MOL
REMARK 924 INTRA-LIGAND FREE ENERGY PREDICTED BY IDOCK:   -0.93 KCAL/MOL
REMARK 927      BINDING AFFINITY PREDICTED BY RF-SCORE:    0.00 PKD
ROOT
HETATM    1  C   UNL     1     -10.048  18.756  68.195  1.00  0.00    -0.427 C  
HETATM    2  C   UNL     1     -10.755  17.455  67.831  1.00  0.00    -0.351 C  
ENDROOT
BRANCH   2   3
HETATM    3  N   UNL     1      -9.856  16.392  67.353  1.00  0.00    -0.240 NA 
HETATM    4  C   UNL     1      -9.616  15.405  68.433  1.00  0.00    -0.200 C  
HETATM    5  C   UNL     1     -10.781  14.410  68.668  1.00  0.00    -0.253 C  
HETATM    6  N   UNL     1     -11.239  13.700  67.452  1.00  0.00    -0.292 NA 
HETATM    7  C   UNL     1     -10.352  15.693  66.150  1.00  0.00    -0.316 C  
HETATM    8  C   UNL     1     -11.521  14.712  66.409  1.00  0.00    -0.347 C  
BRANCH   6   9
HETATM    9  C   UNL     1     -10.242  12.729  66.957  1.00  0.00    -0.241 C  
BRANCH   9  10
HETATM   10  C   UNL     1      -9.787  11.754  68.006  1.00  0.00    -0.184 A  
HETATM   11  C   UNL     1      -8.446  11.654  68.361  1.00  0.00    -0.157 A  
HETATM   12  C   UNL     1      -8.071  10.726  69.322  1.00  0.00    -0.102 A  
HETATM   13  C   UNL     1      -9.036   9.907  69.913  1.00  0.00    -0.202 A  
HETATM   14  N   UNL     1     -10.344  10.008  69.598  1.00  0.00    -0.231 NA 
HETATM   15  C   UNL     1     -10.687  10.914  68.654  1.00  0.00    -0.203 A  
BRANCH  13  16
HETATM   16  N   UNL     1      -8.687   9.004  70.910  1.00  0.00    -0.214 NA 
HETATM   17  H   UNL     1      -8.520   9.388  71.841  1.00  0.00     0.000 HD 
BRANCH  16  18
HETATM   18  C   UNL     1      -8.542   7.633  70.764  1.00  0.00    -0.134 A  
HETATM   19  N   UNL     1      -8.234   6.930  71.863  1.00  0.00    -0.104 NA 
HETATM   20  C   UNL     1      -8.015   5.612  71.699  1.00  0.00    -0.117 A  
HETATM   21  C   UNL     1      -8.177   4.962  70.499  1.00  0.00    -0.096 A  
HETATM   22  F   UNL     1      -7.959   3.643  70.415  1.00  0.00    -0.049 F  
HETATM   23  C   UNL     1      -8.567   5.734  69.424  1.00  0.00    -0.111 A  
HETATM   24  N   UNL     1      -8.706   7.074  69.550  1.00  0.00    -0.134 NA 
BRANCH  23  25
HETATM   25  C   UNL     1      -8.908   5.190  68.089  1.00  0.00    -0.107 A  
HETATM   26  C   UNL     1     -10.160   5.460  67.506  1.00  0.00    -0.220 A  
HETATM   27  C   UNL     1     -10.490   4.991  66.236  1.00  0.00    -0.303 A  
HETATM   28  C   UNL     1      -9.571   4.233  65.504  1.00  0.00    -0.188 A  
HETATM   29  F   UNL     1     -11.701   5.283  65.734  1.00  0.00     0.131 F  
HETATM   30  N   UNL     1      -9.683   3.674  64.264  1.00  0.00    -0.163 NA 
HETATM   31  C   UNL     1      -8.550   3.048  64.031  1.00  0.00    -0.089 A  
HETATM   32  N   UNL     1      -7.673   3.191  65.094  1.00  0.00    -0.080 NA 
HETATM   33  C   UNL     1      -8.310   2.291  62.776  1.00  0.00    -0.073 C  
HETATM   34  C   UNL     1      -7.967   4.431  67.342  1.00  0.00    -0.100 A  
HETATM   35  C   UNL     1      -8.321   3.959  66.058  1.00  0.00    -0.109 A  
BRANCH  32  36
HETATM   36  C   UNL     1      -6.345   2.602  65.273  1.00  0.00    -0.024 C  
HETATM   37  C   UNL     1      -6.041   2.031  66.664  1.00  0.00    -0.023 C  
HETATM   38  C   UNL     1      -5.245   3.579  64.855  1.00  0.00    -0.009 C  
ENDBRANCH  32  36
ENDBRANCH  23  25
ENDBRANCH  16  18
ENDBRANCH  13  16
ENDBRANCH   9  10
ENDBRANCH   6   9
ENDBRANCH   2   3
TORSDOF 7
ENDMDL
MODEL      144
REMARK 921   NORMALIZED FREE ENERGY PREDICTED BY IDOCK:   -4.30 KCAL/MOL
REMARK 922        TOTAL FREE ENERGY PREDICTED BY IDOCK:   -6.93 KCAL/MOL
REMARK 923 INTER-LIGAND FREE ENERGY PREDICTED BY IDOCK:   -6.60 KCAL/MOL
REMARK 924 INTRA-LIGAND FREE ENERGY PREDICTED BY IDOCK:   -0.32 KCAL/MOL
REMARK 927      BINDING AFFINITY PREDICTED BY RF-SCORE:    0.00 PKD
ROOT
HETATM    1  C   UNL     1     -13.273  15.240  70.898  1.00  0.00    -0.506 C  
HETATM    2  C   UNL     1     -12.127  16.216  71.141  1.00  0.00    -0.245 C  
ENDROOT
BRANCH   2   3
HETATM    3  N   UNL     1     -10.856  15.826  70.508  1.00  0.00    -0.325 NA 
HETATM    4  C   UNL     1     -11.027  14.553  69.767  1.00  0.00    -0.151 C  
HETATM    5  C   UNL     1     -11.743  14.695  68.400  1.00  0.00    -0.320 C  
HETATM    6  N   UNL     1     -11.152  15.710  67.497  1.00  0.00    -0.317 NA 
HETATM    7  C   UNL     1     -10.305  16.853  69.601  1.00  0.00    -0.111 C  
HETATM    8  C   UNL     1     -11.043  16.982  68.247  1.00  0.00    -0.172 C  
BRANCH   6   9
HETATM    9  C   UNL     1      -9.826  15.307  66.988  1.00  0.00    -0.229 C  
BRANCH   9  10
HETATM   10  C   UNL     1      -9.815  13.940  66.366  1.00  0.00    -0.304 A  
HETATM   11  C   UNL     1      -9.240  12.856  67.022  1.00  0.00    -0.226 A  
HETATM   12  C   UNL     1      -9.239  11.616  66.400  1.00  0.00    -0.219 A  
HETATM   13  C   UNL     1      -9.804  11.473  65.131  1.00  0.00    -0.257 A  
HETATM   14  N   UNL     1     -10.388  12.507  64.492  1.00  0.00    -0.329 NA 
HETATM   15  C   UNL     1     -10.372  13.709  65.113  1.00  0.00    -0.364 A  
BRANCH  13  16
HETATM   16  N   UNL     1      -9.853  10.230  64.511  1.00  0.00    -0.329 NA 
HETATM   17  H   UNL     1     -10.678  10.030  63.944  1.00  0.00     0.000 HD 
BRANCH  16  18
HETATM   18  C   UNL     1      -8.892   9.235  64.588  1.00  0.00    -0.178 A  
HETATM   19  N   UNL     1      -7.741   9.443  63.932  1.00  0.00    -0.115 NA 
HETATM   20  C   UNL     1      -6.845   8.438  63.944  1.00  0.00    -0.075 A  
HETATM   21  C   UNL     1      -7.021   7.276  64.655  1.00  0.00    -0.051 A  
HETATM   22  F   UNL     1      -6.076   6.326  64.634  1.00  0.00    -0.027 F  
HETATM   23  C   UNL     1      -8.197   7.157  65.367  1.00  0.00    -0.137 A  
HETATM   24  N   UNL     1      -9.148   8.118  65.297  1.00  0.00     0.087 NA 
BRANCH  23  25
HETATM   25  C   UNL     1      -8.506   6.035  66.284  1.00  0.00    -0.130 A  
HETATM   26  C   UNL     1      -8.937   4.795  65.775  1.00  0.00    -0.138 A  
HETATM   27  C   UNL     1      -9.199   3.713  66.614  1.00  0.00    -0.175 A  
HETATM   28  C   UNL     1      -9.034   3.839  67.997  1.00  0.00    -0.126 A  
HETATM   29  F   UNL     1      -9.608   2.557  66.069  1.00  0.00    -0.066 F  
HETATM   30  N   UNL     1      -9.236   2.927  68.992  1.00  0.00    -0.145 NA 
HETATM   31  C   UNL     1      -8.956   3.537  70.123  1.00  0.00    -0.107 A  
HETATM   32  N   UNL     1      -8.556   4.844  69.898  1.00  0.00    -0.085 NA 
HETATM   33  C   UNL     1      -9.086   2.860  71.438  1.00  0.00    -0.176 C  
HETATM   34  C   UNL     1      -8.325   6.161  67.687  1.00  0.00    -0.112 A  
HETATM   35  C   UNL     1      -8.600   5.055  68.523  1.00  0.00    -0.094 A  
BRANCH  32  36
HETATM   36  C   UNL     1      -8.224   5.883  70.876  1.00  0.00    -0.125 C  
HETATM   37  C   UNL     1      -6.832   5.790  71.513  1.00  0.00    -0.067 C  
HETATM   38  C   UNL     1      -9.294   5.980  71.964  1.00  0.00    -0.158 C  
ENDBRANCH  32  36
ENDBRANCH  23  25
ENDBRANCH  16  18
ENDBRANCH  13  16
ENDBRANCH   9  10
ENDBRANCH   6   9
ENDBRANCH   2   3
TORSDOF 7
ENDMDL
MODEL      145
REMARK 921   NORMALIZED FREE ENERGY PREDICTED BY IDOCK:   -4.27 KCAL/MOL
REMARK 922        TOTAL FREE ENERGY PREDICTED BY IDOCK:   -6.88 KCAL/MOL
REMARK 923 INTER-LIGAND FREE ENERGY PREDICTED BY IDOCK:   -6.40 KCAL/MOL
REMARK 924 INTRA-LIGAND FREE ENERGY PREDICTED BY IDOCK:   -0.48 KCAL/MOL
REMARK 927      BINDING AFFINITY PREDICTED BY RF-SCORE:    0.00 PKD
ROOT
HETATM    1  C   UNL     1      -9.905  20.665  67.139  1.00  0.00    -0.497 C  
HETATM    2  C   UNL     1      -9.927  19.301  67.820  1.00  0.00    -0.365 C  
ENDROOT
BRANCH   2   3
HETATM    3  N   UNL     1     -10.532  18.230  67.010  1.00  0.00    -0.390 NA 
HETATM    4  C   UNL     1      -9.664  17.920  65.849  1.00  0.00    -0.000 C  
HETATM    5  C   UNL     1      -8.421  17.059  66.185  1.00  0.00    -0.227 C  
HETATM    6  N   UNL     1      -8.719  15.807  66.919  1.00  0.00    -0.221 NA 
HETATM    7  C   UNL     1     -10.799  16.992  67.768  1.00  0.00    -0.269 C  
HETATM    8  C   UNL     1      -9.541  16.153  68.100  1.00  0.00    -0.217 C  
BRANCH   6   9
HETATM    9  C   UNL     1      -9.428  14.818  66.082  1.00  0.00    -0.292 C  
BRANCH   9  10
HETATM   10  C   UNL     1      -9.902  13.616  66.849  1.00  0.00    -0.261 A  
HETATM   11  C   UNL     1      -9.023  12.868  67.625  1.00  0.00    -0.192 A  
HETATM   12  C   UNL     1      -9.503  11.756  68.303  1.00  0.00    -0.193 A  
HETATM   13  C   UNL     1     -10.849  11.401  68.192  1.00  0.00    -0.213 A  
HETATM   14  N   UNL     1     -11.719  12.130  67.465  1.00  0.00    -0.498 NA 
HETATM   15  C   UNL     1     -11.230  13.206  66.807  1.00  0.00    -0.299 A  
BRANCH  13  16
HETATM   16  N   UNL     1     -11.358  10.317  68.899  1.00  0.00    -0.420 NA 
HETATM   17  H   UNL     1     -12.130  10.507  69.539  1.00  0.00     0.000 HD 
BRANCH  16  18
HETATM   18  C   UNL     1     -10.920   9.005  68.820  1.00  0.00     0.072 A  
HETATM   19  N   UNL     1     -11.376   8.150  69.746  1.00  0.00     0.031 NA 
HETATM   20  C   UNL     1     -10.883   6.897  69.712  1.00  0.00    -0.259 A  
HETATM   21  C   UNL     1     -10.022   6.450  68.739  1.00  0.00    -0.147 A  
HETATM   22  F   UNL     1      -9.587   5.183  68.759  1.00  0.00    -0.141 F  
HETATM   23  C   UNL     1      -9.649   7.363  67.774  1.00  0.00    -0.140 A  
HETATM   24  N   UNL     1     -10.065   8.649  67.841  1.00  0.00    -0.193 NA 
BRANCH  23  25
HETATM   25  C   UNL     1      -8.830   7.030  66.585  1.00  0.00    -0.139 A  
HETATM   26  C   UNL     1      -8.465   8.031  65.666  1.00  0.00    -0.162 A  
HETATM   27  C   UNL     1      -7.665   7.750  64.560  1.00  0.00    -0.122 A  
HETATM   28  C   UNL     1      -7.201   6.449  64.338  1.00  0.00    -0.065 A  
HETATM   29  F   UNL     1      -7.351   8.748  63.719  1.00  0.00    -0.092 F  
HETATM   30  N   UNL     1      -6.424   5.953  63.333  1.00  0.00    -0.028 NA 
HETATM   31  C   UNL     1      -6.280   4.668  63.568  1.00  0.00    -0.022 A  
HETATM   32  N   UNL     1      -6.942   4.296  64.727  1.00  0.00    -0.049 NA 
HETATM   33  C   UNL     1      -5.509   3.780  62.661  1.00  0.00    -0.009 C  
HETATM   34  C   UNL     1      -8.349   5.710  66.370  1.00  0.00    -0.112 A  
HETATM   35  C   UNL     1      -7.544   5.442  65.240  1.00  0.00    -0.079 A  
BRANCH  32  36
HETATM   36  C   UNL     1      -7.095   2.961  65.309  1.00  0.00    -0.054 C  
HETATM   37  C   UNL     1      -8.495   2.341  65.219  1.00  0.00    -0.101 C  
HETATM   38  C   UNL     1      -6.598   2.926  66.755  1.00  0.00    -0.037 C  
ENDBRANCH  32  36
ENDBRANCH  23  25
ENDBRANCH  16  18
ENDBRANCH  13  16
ENDBRANCH   9  10
ENDBRANCH   6   9
ENDBRANCH   2   3
TORSDOF 7
ENDMDL
MODEL      146
REMARK 921   NORMALIZED FREE ENERGY PREDICTED BY IDOCK:   -4.26 KCAL/MOL
REMARK 922        TOTAL FREE ENERGY PREDICTED BY IDOCK:   -6.88 KCAL/MOL
REMARK 923 INTER-LIGAND FREE ENERGY PREDICTED BY IDOCK:   -7.07 KCAL/MOL
REMARK 924 INTRA-LIGAND FREE ENERGY PREDICTED BY IDOCK:    0.19 KCAL/MOL
REMARK 927      BINDING AFFINITY PREDICTED BY RF-SCORE:    0.00 PKD
ROOT
HETATM    1  C   UNL     1     -11.018   3.875  73.212  1.00  0.00    -0.294 C  
HETATM    2  C   UNL     1     -10.162   2.733  72.676  1.00  0.00    -0.160 C  
ENDROOT
BRANCH   2   3
HETATM    3  N   UNL     1      -8.946   3.168  71.970  1.00  0.00    -0.089 NA 
HETATM    4  C   UNL     1      -8.730   2.330  70.766  1.00  0.00    -0.060 C  
HETATM    5  C   UNL     1      -9.639   2.684  69.562  1.00  0.00     0.027 C  
HETATM    6  N   UNL     1      -9.616   4.114  69.172  1.00  0.00    -0.181 NA 
HETATM    7  C   UNL     1      -8.964   4.593  71.580  1.00  0.00    -0.133 C  
HETATM    8  C   UNL     1      -9.886   4.923  70.382  1.00  0.00    -0.232 C  
BRANCH   6   9
HETATM    9  C   UNL     1      -8.326   4.514  68.575  1.00  0.00    -0.085 C  
BRANCH   9  10
HETATM   10  C   UNL     1      -8.377   5.845  67.880  1.00  0.00    -0.111 A  
HETATM   11  C   UNL     1      -9.592   6.436  67.548  1.00  0.00    -0.129 A  
HETATM   12  C   UNL     1      -9.588   7.659  66.893  1.00  0.00    -0.249 A  
HETATM   13  C   UNL     1      -8.376   8.273  66.571  1.00  0.00    -0.112 A  
HETATM   14  N   UNL     1      -7.190   7.726  66.908  1.00  0.00    -0.087 NA 
HETATM   15  C   UNL     1      -7.216   6.531  67.540  1.00  0.00    -0.086 A  
BRANCH  13  16
HETATM   16  N   UNL     1      -8.353   9.519  65.954  1.00  0.00    -0.118 NA 
HETATM   17  H   UNL     1      -8.850   9.603  65.067  1.00  0.00     0.000 HD 
BRANCH  16  18
HETATM   18  C   UNL     1      -7.721  10.658  66.426  1.00  0.00    -0.141 A  
HETATM   19  N   UNL     1      -6.385  10.615  66.537  1.00  0.00    -0.092 NA 
HETATM   20  C   UNL     1      -5.785  11.695  67.073  1.00  0.00    -0.130 A  
HETATM   21  C   UNL     1      -6.460  12.841  67.419  1.00  0.00    -0.137 A  
HETATM   22  F   UNL     1      -5.792  13.884  67.931  1.00  0.00    -0.105 F  
HETATM   23  C   UNL     1      -7.824  12.844  67.212  1.00  0.00    -0.131 A  
HETATM   24  N   UNL     1      -8.456  11.737  66.757  1.00  0.00    -0.180 NA 
BRANCH  23  25
HETATM   25  C   UNL     1      -8.693  14.027  67.410  1.00  0.00    -0.212 A  
HETATM   26  C   UNL     1     -10.078  13.870  67.606  1.00  0.00    -0.241 A  
HETATM   27  C   UNL     1     -10.912  14.964  67.831  1.00  0.00    -0.286 A  
HETATM   28  C   UNL     1     -10.382  16.258  67.869  1.00  0.00    -0.285 A  
HETATM   29  F   UNL     1     -12.225  14.750  68.011  1.00  0.00    -0.318 F  
HETATM   30  N   UNL     1     -11.003  17.456  68.064  1.00  0.00    -0.270 NA 
HETATM   31  C   UNL     1     -10.070  18.379  67.996  1.00  0.00    -0.368 A  
HETATM   32  N   UNL     1      -8.825  17.813  67.768  1.00  0.00    -0.245 NA 
HETATM   33  C   UNL     1     -10.377  19.826  68.136  1.00  0.00    -0.561 C  
HETATM   34  C   UNL     1      -8.150  15.338  67.462  1.00  0.00    -0.192 A  
HETATM   35  C   UNL     1      -9.011  16.436  67.685  1.00  0.00    -0.196 A  
BRANCH  32  36
HETATM   36  C   UNL     1      -7.539  18.481  67.557  1.00  0.00    -0.228 C  
HETATM   37  C   UNL     1      -7.237  19.671  68.476  1.00  0.00    -0.363 C  
HETATM   38  C   UNL     1      -7.361  18.889  66.094  1.00  0.00    -0.292 C  
ENDBRANCH  32  36
ENDBRANCH  23  25
ENDBRANCH  16  18
ENDBRANCH  13  16
ENDBRANCH   9  10
ENDBRANCH   6   9
ENDBRANCH   2   3
TORSDOF 7
ENDMDL
MODEL      147
REMARK 921   NORMALIZED FREE ENERGY PREDICTED BY IDOCK:   -4.25 KCAL/MOL
REMARK 922        TOTAL FREE ENERGY PREDICTED BY IDOCK:   -6.86 KCAL/MOL
REMARK 923 INTER-LIGAND FREE ENERGY PREDICTED BY IDOCK:   -6.21 KCAL/MOL
REMARK 924 INTRA-LIGAND FREE ENERGY PREDICTED BY IDOCK:   -0.66 KCAL/MOL
REMARK 927      BINDING AFFINITY PREDICTED BY RF-SCORE:    0.00 PKD
ROOT
HETATM    1  C   UNL     1     -10.090  20.481  68.015  1.00  0.00    -0.264 C  
HETATM    2  C   UNL     1     -10.159  19.052  68.541  1.00  0.00    -0.400 C  
ENDROOT
BRANCH   2   3
HETATM    3  N   UNL     1     -11.003  18.152  67.738  1.00  0.00    -0.217 NA 
HETATM    4  C   UNL     1     -10.462  18.041  66.362  1.00  0.00    -0.339 C  
HETATM    5  C   UNL     1      -9.226  17.115  66.228  1.00  0.00    -0.231 C  
HETATM    6  N   UNL     1      -9.411  15.757  66.791  1.00  0.00    -0.228 NA 
HETATM    7  C   UNL     1     -11.150  16.802  68.319  1.00  0.00    -0.259 C  
HETATM    8  C   UNL     1      -9.900  15.899  68.181  1.00  0.00    -0.214 C  
BRANCH   6   9
HETATM    9  C   UNL     1     -10.358  14.944  66.002  1.00  0.00    -0.299 C  
BRANCH   9  10
HETATM   10  C   UNL     1     -10.441  13.515  66.457  1.00  0.00    -0.284 A  
HETATM   11  C   UNL     1      -9.312  12.837  66.905  1.00  0.00    -0.234 A  
HETATM   12  C   UNL     1      -9.435  11.512  67.299  1.00  0.00    -0.176 A  
HETATM   13  C   UNL     1     -10.678  10.879  67.235  1.00  0.00    -0.268 A  
HETATM   14  N   UNL     1     -11.787  11.529  66.827  1.00  0.00    -0.446 NA 
HETATM   15  C   UNL     1     -11.644  12.818  66.441  1.00  0.00    -0.378 A  
BRANCH  13  16
HETATM   16  N   UNL     1     -10.830   9.567  67.668  1.00  0.00    -0.444 NA 
HETATM   17  H   UNL     1     -11.588   9.384  68.326  1.00  0.00     0.000 HD 
BRANCH  16  18
HETATM   18  C   UNL     1     -10.052   8.483  67.294  1.00  0.00    -0.251 A  
HETATM   19  N   UNL     1      -9.855   8.295  65.981  1.00  0.00    -0.070 NA 
HETATM   20  C   UNL     1      -9.167   7.194  65.622  1.00  0.00     0.235 A  
HETATM   21  C   UNL     1      -8.600   6.328  66.525  1.00  0.00    -0.128 A  
HETATM   22  F   UNL     1      -7.913   5.263  66.093  1.00  0.00    -0.099 F  
HETATM   23  C   UNL     1      -8.780   6.621  67.861  1.00  0.00    -0.116 A  
HETATM   24  N   UNL     1      -9.541   7.673  68.242  1.00  0.00    -0.152 NA 
BRANCH  23  25
HETATM   25  C   UNL     1      -8.142   5.874  68.971  1.00  0.00    -0.103 A  
HETATM   26  C   UNL     1      -7.847   4.505  68.833  1.00  0.00    -0.070 A  
HETATM   27  C   UNL     1      -7.214   3.789  69.847  1.00  0.00    -0.042 A  
HETATM   28  C   UNL     1      -6.854   4.426  71.040  1.00  0.00    -0.036 A  
HETATM   29  F   UNL     1      -6.959   2.485  69.656  1.00  0.00    -0.033 F  
HETATM   30  N   UNL     1      -6.242   3.926  72.152  1.00  0.00    -0.013 NA 
HETATM   31  C   UNL     1      -6.138   4.922  73.003  1.00  0.00    -0.026 A  
HETATM   32  N   UNL     1      -6.662   6.089  72.470  1.00  0.00    -0.068 NA 
HETATM   33  C   UNL     1      -5.541   4.750  74.352  1.00  0.00    -0.018 C  
HETATM   34  C   UNL     1      -7.765   6.527  70.175  1.00  0.00    -0.102 A  
HETATM   35  C   UNL     1      -7.129   5.784  71.195  1.00  0.00    -0.069 A  
BRANCH  32  36
HETATM   36  C   UNL     1      -6.810   7.402  73.104  1.00  0.00    -0.065 C  
HETATM   37  C   UNL     1      -8.221   7.767  73.580  1.00  0.00    -0.232 C  
HETATM   38  C   UNL     1      -6.252   8.512  72.213  1.00  0.00    -0.071 C  
ENDBRANCH  32  36
ENDBRANCH  23  25
ENDBRANCH  16  18
ENDBRANCH  13  16
ENDBRANCH   9  10
ENDBRANCH   6   9
ENDBRANCH   2   3
TORSDOF 7
ENDMDL
MODEL      148
REMARK 921   NORMALIZED FREE ENERGY PREDICTED BY IDOCK:   -4.24 KCAL/MOL
REMARK 922        TOTAL FREE ENERGY PREDICTED BY IDOCK:   -6.85 KCAL/MOL
REMARK 923 INTER-LIGAND FREE ENERGY PREDICTED BY IDOCK:   -5.96 KCAL/MOL
REMARK 924 INTRA-LIGAND FREE ENERGY PREDICTED BY IDOCK:   -0.89 KCAL/MOL
REMARK 927      BINDING AFFINITY PREDICTED BY RF-SCORE:    0.00 PKD
ROOT
HETATM    1  C   UNL     1     -10.345  19.103  66.422  1.00  0.00    -0.536 C  
HETATM    2  C   UNL     1     -10.583  17.680  65.929  1.00  0.00    -0.203 C  
ENDROOT
BRANCH   2   3
HETATM    3  N   UNL     1      -9.894  16.644  66.717  1.00  0.00    -0.261 NA 
HETATM    4  C   UNL     1     -10.859  15.961  67.612  1.00  0.00    -0.312 C  
HETATM    5  C   UNL     1     -11.767  14.921  66.909  1.00  0.00    -0.248 C  
HETATM    6  N   UNL     1     -11.038  13.907  66.112  1.00  0.00    -0.297 NA 
HETATM    7  C   UNL     1      -9.194  15.639  65.891  1.00  0.00    -0.295 C  
HETATM    8  C   UNL     1     -10.122  14.617  65.192  1.00  0.00    -0.324 C  
BRANCH   6   9
HETATM    9  C   UNL     1     -10.275  12.968  66.959  1.00  0.00    -0.245 C  
BRANCH   9  10
HETATM   10  C   UNL     1      -9.702  11.806  66.197  1.00  0.00    -0.250 A  
HETATM   11  C   UNL     1      -8.370  11.437  66.343  1.00  0.00    -0.140 A  
HETATM   12  C   UNL     1      -7.882  10.368  65.605  1.00  0.00    -0.154 A  
HETATM   13  C   UNL     1      -8.726   9.686  64.727  1.00  0.00    -0.193 A  
HETATM   14  N   UNL     1     -10.027  10.014  64.592  1.00  0.00    -0.249 NA 
HETATM   15  C   UNL     1     -10.481  11.064  65.315  1.00  0.00    -0.251 A  
BRANCH  13  16
HETATM   16  N   UNL     1      -8.268   8.584  64.013  1.00  0.00    -0.247 NA 
HETATM   17  H   UNL     1      -8.155   8.703  63.006  1.00  0.00     0.000 HD 
BRANCH  16  18
HETATM   18  C   UNL     1      -7.950   7.340  64.535  1.00  0.00    -0.112 A  
HETATM   19  N   UNL     1      -7.846   6.321  63.670  1.00  0.00    -0.113 NA 
HETATM   20  C   UNL     1      -7.618   5.102  64.193  1.00  0.00    -0.069 A  
HETATM   21  C   UNL     1      -7.406   4.881  65.532  1.00  0.00    -0.073 A  
HETATM   22  F   UNL     1      -7.166   3.640  65.978  1.00  0.00    -0.062 F  
HETATM   23  C   UNL     1      -7.455   5.985  66.358  1.00  0.00    -0.086 A  
HETATM   24  N   UNL     1      -7.770   7.204  65.863  1.00  0.00    -0.096 NA 
BRANCH  23  25
HETATM   25  C   UNL     1      -7.132   5.958  67.804  1.00  0.00    -0.071 A  
HETATM   26  C   UNL     1      -6.564   4.811  68.387  1.00  0.00    -0.046 A  
HETATM   27  C   UNL     1      -6.217   4.773  69.737  1.00  0.00    -0.026 A  
HETATM   28  C   UNL     1      -6.429   5.892  70.549  1.00  0.00    -0.036 A  
HETATM   29  F   UNL     1      -5.678   3.649  70.235  1.00  0.00    -0.014 F  
HETATM   30  N   UNL     1      -6.175   6.074  71.877  1.00  0.00    -0.040 NA 
HETATM   31  C   UNL     1      -6.566   7.294  72.171  1.00  0.00    -0.051 A  
HETATM   32  N   UNL     1      -7.067   7.939  71.052  1.00  0.00    -0.049 NA 
HETATM   33  C   UNL     1      -6.470   7.844  73.547  1.00  0.00    -0.096 C  
HETATM   34  C   UNL     1      -7.336   7.100  68.623  1.00  0.00    -0.097 A  
HETATM   35  C   UNL     1      -6.984   7.043  69.991  1.00  0.00    -0.062 A  
BRANCH  32  36
HETATM   36  C   UNL     1      -7.667   9.272  70.954  1.00  0.00    -0.103 C  
HETATM   37  C   UNL     1      -9.177   9.315  70.692  1.00  0.00    -0.321 C  
HETATM   38  C   UNL     1      -6.931  10.136  69.928  1.00  0.00    -0.133 C  
ENDBRANCH  32  36
ENDBRANCH  23  25
ENDBRANCH  16  18
ENDBRANCH  13  16
ENDBRANCH   9  10
ENDBRANCH   6   9
ENDBRANCH   2   3
TORSDOF 7
ENDMDL
MODEL      149
REMARK 921   NORMALIZED FREE ENERGY PREDICTED BY IDOCK:   -4.13 KCAL/MOL
REMARK 922        TOTAL FREE ENERGY PREDICTED BY IDOCK:   -6.70 KCAL/MOL
REMARK 923 INTER-LIGAND FREE ENERGY PREDICTED BY IDOCK:   -6.63 KCAL/MOL
REMARK 924 INTRA-LIGAND FREE ENERGY PREDICTED BY IDOCK:   -0.07 KCAL/MOL
REMARK 927      BINDING AFFINITY PREDICTED BY RF-SCORE:    0.00 PKD
ROOT
HETATM    1  C   UNL     1      -7.088  19.341  67.852  1.00  0.00    -0.273 C  
HETATM    2  C   UNL     1      -8.178  18.584  67.102  1.00  0.00    -0.252 C  
ENDROOT
BRANCH   2   3
HETATM    3  N   UNL     1      -8.397  17.209  67.580  1.00  0.00    -0.189 NA 
HETATM    4  C   UNL     1      -9.743  17.091  68.189  1.00  0.00    -0.268 C  
HETATM    5  C   UNL     1     -10.907  16.996  67.170  1.00  0.00    -0.082 C  
HETATM    6  N   UNL     1     -10.742  15.940  66.144  1.00  0.00    -0.301 NA 
HETATM    7  C   UNL     1      -8.243  16.184  66.528  1.00  0.00    -0.308 C  
HETATM    8  C   UNL     1      -9.412  16.114  65.517  1.00  0.00     0.055 C  
BRANCH   6   9
HETATM    9  C   UNL     1     -10.859  14.581  66.711  1.00  0.00    -0.305 C  
BRANCH   9  10
HETATM   10  C   UNL     1     -10.447  13.498  65.754  1.00  0.00    -0.293 A  
HETATM   11  C   UNL     1     -11.024  13.396  64.492  1.00  0.00    -0.404 A  
HETATM   12  C   UNL     1     -10.624  12.369  63.650  1.00  0.00    -0.481 A  
HETATM   13  C   UNL     1      -9.660  11.454  64.078  1.00  0.00    -0.200 A  
HETATM   14  N   UNL     1      -9.072  11.553  65.287  1.00  0.00    -0.090 NA 
HETATM   15  C   UNL     1      -9.482  12.557  66.096  1.00  0.00    -0.184 A  
BRANCH  13  16
HETATM   16  N   UNL     1      -9.213  10.445  63.231  1.00  0.00    -0.260 NA 
HETATM   17  H   UNL     1      -9.502  10.503  62.254  1.00  0.00     0.000 HD 
BRANCH  16  18
HETATM   18  C   UNL     1      -8.414   9.369  63.584  1.00  0.00    -0.200 A  
HETATM   19  N   UNL     1      -7.279   9.196  62.892  1.00  0.00    -0.095 NA 
HETATM   20  C   UNL     1      -6.550   8.103  63.185  1.00  0.00    -0.085 A  
HETATM   21  C   UNL     1      -6.868   7.231  64.198  1.00  0.00    -0.048 A  
HETATM   22  F   UNL     1      -6.083   6.173  64.444  1.00  0.00    -0.026 F  
HETATM   23  C   UNL     1      -8.011   7.508  64.919  1.00  0.00    -0.132 A  
HETATM   24  N   UNL     1      -8.804   8.552  64.582  1.00  0.00     0.014 NA 
BRANCH  23  25
HETATM   25  C   UNL     1      -8.443   6.753  66.118  1.00  0.00    -0.135 A  
HETATM   26  C   UNL     1      -8.150   5.382  66.242  1.00  0.00    -0.105 A  
HETATM   27  C   UNL     1      -8.513   4.658  67.376  1.00  0.00    -0.104 A  
HETATM   28  C   UNL     1      -9.186   5.289  68.429  1.00  0.00    -0.113 A  
HETATM   29  F   UNL     1      -8.205   3.353  67.436  1.00  0.00    -0.083 F  
HETATM   30  N   UNL     1      -9.637   4.781  69.612  1.00  0.00    -0.164 NA 
HETATM   31  C   UNL     1     -10.215   5.774  70.250  1.00  0.00    -0.230 A  
HETATM   32  N   UNL     1     -10.147   6.946  69.515  1.00  0.00    -0.170 NA 
HETATM   33  C   UNL     1     -10.855   5.593  71.579  1.00  0.00    -0.297 C  
HETATM   34  C   UNL     1      -9.114   7.399  67.191  1.00  0.00    -0.146 A  
HETATM   35  C   UNL     1      -9.480   6.648  68.330  1.00  0.00    -0.125 A  
BRANCH  32  36
HETATM   36  C   UNL     1     -10.722   8.258  69.824  1.00  0.00    -0.221 C  
HETATM   37  C   UNL     1      -9.765   9.286  70.439  1.00  0.00    -0.293 C  
HETATM   38  C   UNL     1     -11.975   8.122  70.691  1.00  0.00    -0.036 C  
ENDBRANCH  32  36
ENDBRANCH  23  25
ENDBRANCH  16  18
ENDBRANCH  13  16
ENDBRANCH   9  10
ENDBRANCH   6   9
ENDBRANCH   2   3
TORSDOF 7
ENDMDL
MODEL      150
REMARK 921   NORMALIZED FREE ENERGY PREDICTED BY IDOCK:   -4.12 KCAL/MOL
REMARK 922        TOTAL FREE ENERGY PREDICTED BY IDOCK:   -6.67 KCAL/MOL
REMARK 923 INTER-LIGAND FREE ENERGY PREDICTED BY IDOCK:   -7.66 KCAL/MOL
REMARK 924 INTRA-LIGAND FREE ENERGY PREDICTED BY IDOCK:    0.99 KCAL/MOL
REMARK 927      BINDING AFFINITY PREDICTED BY RF-SCORE:    0.00 PKD
ROOT
HETATM    1  C   UNL     1      -9.003   9.427  62.451  1.00  0.00    -0.258 C  
HETATM    2  C   UNL     1      -8.949  10.478  63.554  1.00  0.00    -0.221 C  
ENDROOT
BRANCH   2   3
HETATM    3  N   UNL     1     -10.253  10.776  64.169  1.00  0.00    -0.353 NA 
HETATM    4  C   UNL     1     -10.082  11.045  65.617  1.00  0.00    -0.256 C  
HETATM    5  C   UNL     1      -9.524  12.452  65.950  1.00  0.00    -0.129 C  
HETATM    6  N   UNL     1     -10.270  13.572  65.331  1.00  0.00    -0.309 NA 
HETATM    7  C   UNL     1     -10.960  11.910  63.539  1.00  0.00    -0.432 C  
HETATM    8  C   UNL     1     -10.379  13.303  63.879  1.00  0.00     0.172 C  
BRANCH   6   9
HETATM    9  C   UNL     1     -11.615  13.746  65.915  1.00  0.00    -0.333 C  
BRANCH   9  10
HETATM   10  C   UNL     1     -11.770  13.094  67.260  1.00  0.00    -0.425 A  
HETATM   11  C   UNL     1     -12.029  11.732  67.373  1.00  0.00    -0.050 A  
HETATM   12  C   UNL     1     -12.181  11.178  68.636  1.00  0.00    -0.012 A  
HETATM   13  C   UNL     1     -12.080  11.988  69.769  1.00  0.00    -0.248 A  
HETATM   14  N   UNL     1     -11.805  13.306  69.678  1.00  0.00    -0.317 NA 
HETATM   15  C   UNL     1     -11.667  13.827  68.437  1.00  0.00    -0.358 A  
BRANCH  13  16
HETATM   16  N   UNL     1     -12.185  11.444  71.043  1.00  0.00    -0.326 NA 
HETATM   17  H   UNL     1     -12.094  12.089  71.828  1.00  0.00     0.000 HD 
BRANCH  16  18
HETATM   18  C   UNL     1     -12.400  10.110  71.352  1.00  0.00    -0.416 A  
HETATM   19  N   UNL     1     -13.566   9.798  71.936  1.00  0.00    -0.364 NA 
HETATM   20  C   UNL     1     -13.735   8.514  72.307  1.00  0.00    -0.336 A  
HETATM   21  C   UNL     1     -12.822   7.523  72.039  1.00  0.00    -0.195 A  
HETATM   22  F   UNL     1     -13.066   6.264  72.423  1.00  0.00    -0.198 F  
HETATM   23  C   UNL     1     -11.675   7.901  71.371  1.00  0.00    -0.281 A  
HETATM   24  N   UNL     1     -11.449   9.201  71.068  1.00  0.00    -0.286 NA 
BRANCH  23  25
HETATM   25  C   UNL     1     -10.641   6.955  70.891  1.00  0.00    -0.243 A  
HETATM   26  C   UNL     1     -10.815   5.567  71.047  1.00  0.00    -0.243 A  
HETATM   27  C   UNL     1      -9.875   4.655  70.572  1.00  0.00    -0.231 A  
HETATM   28  C   UNL     1      -8.723   5.107  69.919  1.00  0.00    -0.103 A  
HETATM   29  F   UNL     1     -10.097   3.344  70.751  1.00  0.00    -0.216 F  
HETATM   30  N   UNL     1      -7.681   4.405  69.387  1.00  0.00    -0.055 NA 
HETATM   31  C   UNL     1      -6.841   5.290  68.900  1.00  0.00    -0.055 A  
HETATM   32  N   UNL     1      -7.311   6.580  69.087  1.00  0.00    -0.090 NA 
HETATM   33  C   UNL     1      -5.561   4.894  68.258  1.00  0.00    -0.016 C  
HETATM   34  C   UNL     1      -9.479   7.416  70.216  1.00  0.00    -0.165 A  
HETATM   35  C   UNL     1      -8.533   6.478  69.746  1.00  0.00    -0.131 A  
BRANCH  32  36
HETATM   36  C   UNL     1      -6.660   7.850  68.760  1.00  0.00    -0.053 C  
HETATM   37  C   UNL     1      -6.635   8.903  69.875  1.00  0.00    -0.042 C  
HETATM   38  C   UNL     1      -7.237   8.455  67.480  1.00  0.00    -0.088 C  
ENDBRANCH  32  36
ENDBRANCH  23  25
ENDBRANCH  16  18
ENDBRANCH  13  16
ENDBRANCH   9  10
ENDBRANCH   6   9
ENDBRANCH   2   3
TORSDOF 7
ENDMDL
MODEL      151
REMARK 921   NORMALIZED FREE ENERGY PREDICTED BY IDOCK:   -4.11 KCAL/MOL
REMARK 922        TOTAL FREE ENERGY PREDICTED BY IDOCK:   -6.66 KCAL/MOL
REMARK 923 INTER-LIGAND FREE ENERGY PREDICTED BY IDOCK:   -6.25 KCAL/MOL
REMARK 924 INTRA-LIGAND FREE ENERGY PREDICTED BY IDOCK:   -0.41 KCAL/MOL
REMARK 927      BINDING AFFINITY PREDICTED BY RF-SCORE:    0.00 PKD
ROOT
HETATM    1  C   UNL     1     -12.462  15.507  64.302  1.00  0.00     0.113 C  
HETATM    2  C   UNL     1     -12.115  14.036  64.107  1.00  0.00    -0.422 C  
ENDROOT
BRANCH   2   3
HETATM    3  N   UNL     1     -10.745  13.679  64.509  1.00  0.00    -0.415 NA 
HETATM    4  C   UNL     1     -10.705  13.366  65.958  1.00  0.00    -0.278 C  
HETATM    5  C   UNL     1     -11.253  11.965  66.330  1.00  0.00    -0.337 C  
HETATM    6  N   UNL     1     -10.646  10.846  65.572  1.00  0.00    -0.213 NA 
HETATM    7  C   UNL     1     -10.178  12.549  63.747  1.00  0.00    -0.333 C  
HETATM    8  C   UNL     1     -10.746  11.161  64.129  1.00  0.00    -0.345 C  
BRANCH   6   9
HETATM    9  C   UNL     1      -9.235  10.615  65.941  1.00  0.00    -0.182 C  
BRANCH   9  10
HETATM   10  C   UNL     1      -9.037  10.346  67.406  1.00  0.00    -0.144 A  
HETATM   11  C   UNL     1      -9.960   9.599  68.131  1.00  0.00    -0.185 A  
HETATM   12  C   UNL     1      -9.744   9.392  69.485  1.00  0.00    -0.191 A  
HETATM   13  C   UNL     1      -8.615   9.937  70.102  1.00  0.00    -0.105 A  
HETATM   14  N   UNL     1      -7.698  10.642  69.409  1.00  0.00    -0.144 NA 
HETATM   15  C   UNL     1      -7.931  10.838  68.091  1.00  0.00    -0.114 A  
BRANCH  13  16
HETATM   16  N   UNL     1      -8.358   9.702  71.447  1.00  0.00    -0.157 NA 
HETATM   17  H   UNL     1      -8.178  10.519  72.031  1.00  0.00     0.000 HD 
BRANCH  16  18
HETATM   18  C   UNL     1      -8.321   8.466  72.074  1.00  0.00    -0.171 A  
HETATM   19  N   UNL     1      -8.149   8.459  73.404  1.00  0.00    -0.368 NA 
HETATM   20  C   UNL     1      -8.032   7.255  73.994  1.00  0.00    -0.120 A  
HETATM   21  C   UNL     1      -8.168   6.065  73.320  1.00  0.00    -0.115 A  
HETATM   22  F   UNL     1      -8.057   4.904  73.978  1.00  0.00    -0.098 F  
HETATM   23  C   UNL     1      -8.416   6.146  71.965  1.00  0.00    -0.121 A  
HETATM   24  N   UNL     1      -8.449   7.345  71.339  1.00  0.00    -0.113 NA 
BRANCH  23  25
HETATM   25  C   UNL     1      -8.710   4.979  71.102  1.00  0.00    -0.141 A  
HETATM   26  C   UNL     1      -9.338   3.837  71.634  1.00  0.00    -0.198 A  
HETATM   27  C   UNL     1      -9.659   2.741  70.835  1.00  0.00    -0.132 A  
HETATM   28  C   UNL     1      -9.360   2.754  69.469  1.00  0.00    -0.121 A  
HETATM   29  F   UNL     1     -10.257   1.681  71.402  1.00  0.00    -0.217 F  
HETATM   30  N   UNL     1      -9.574   1.803  68.514  1.00  0.00    -0.167 NA 
HETATM   31  C   UNL     1      -9.101   2.289  67.388  1.00  0.00    -0.150 A  
HETATM   32  N   UNL     1      -8.583   3.561  67.572  1.00  0.00    -0.097 NA 
HETATM   33  C   UNL     1      -9.134   1.518  66.119  1.00  0.00    -0.046 C  
HETATM   34  C   UNL     1      -8.418   5.000  69.712  1.00  0.00    -0.092 A  
HETATM   35  C   UNL     1      -8.745   3.878  68.918  1.00  0.00    -0.094 A  
BRANCH  32  36
HETATM   36  C   UNL     1      -7.903   4.424  66.604  1.00  0.00    -0.098 C  
HETATM   37  C   UNL     1      -6.382   4.255  66.501  1.00  0.00    -0.037 C  
HETATM   38  C   UNL     1      -8.254   5.895  66.830  1.00  0.00    -0.105 C  
ENDBRANCH  32  36
ENDBRANCH  23  25
ENDBRANCH  16  18
ENDBRANCH  13  16
ENDBRANCH   9  10
ENDBRANCH   6   9
ENDBRANCH   2   3
TORSDOF 7
ENDMDL
MODEL      152
REMARK 921   NORMALIZED FREE ENERGY PREDICTED BY IDOCK:   -3.98 KCAL/MOL
REMARK 922        TOTAL FREE ENERGY PREDICTED BY IDOCK:   -6.48 KCAL/MOL
REMARK 923 INTER-LIGAND FREE ENERGY PREDICTED BY IDOCK:   -6.21 KCAL/MOL
REMARK 924 INTRA-LIGAND FREE ENERGY PREDICTED BY IDOCK:   -0.27 KCAL/MOL
REMARK 927      BINDING AFFINITY PREDICTED BY RF-SCORE:    0.00 PKD
ROOT
HETATM    1  C   UNL     1     -11.126  19.809  67.256  1.00  0.00    -0.185 C  
HETATM    2  C   UNL     1      -9.759  20.482  67.287  1.00  0.00    -0.460 C  
ENDROOT
BRANCH   2   3
HETATM    3  N   UNL     1      -8.659  19.640  66.788  1.00  0.00    -0.304 NA 
HETATM    4  C   UNL     1      -7.376  20.377  66.871  1.00  0.00    -0.300 C  
HETATM    5  C   UNL     1      -6.766  20.451  68.294  1.00  0.00    -0.278 C  
HETATM    6  N   UNL     1      -6.620  19.140  68.969  1.00  0.00    -0.285 NA 
HETATM    7  C   UNL     1      -8.532  18.350  67.495  1.00  0.00    -0.253 C  
HETATM    8  C   UNL     1      -7.929  18.449  68.917  1.00  0.00    -0.189 C  
BRANCH   6   9
HETATM    9  C   UNL     1      -5.579  18.298  68.347  1.00  0.00    -0.171 C  
BRANCH   9  10
HETATM   10  C   UNL     1      -5.796  16.826  68.560  1.00  0.00    -0.130 A  
HETATM   11  C   UNL     1      -5.756  15.933  67.495  1.00  0.00    -0.139 A  
HETATM   12  C   UNL     1      -5.979  14.585  67.738  1.00  0.00    -0.113 A  
HETATM   13  C   UNL     1      -6.245  14.146  69.037  1.00  0.00    -0.094 A  
HETATM   14  N   UNL     1      -6.262  14.995  70.084  1.00  0.00    -0.157 NA 
HETATM   15  C   UNL     1      -6.049  16.306  69.825  1.00  0.00    -0.198 A  
BRANCH  13  16
HETATM   16  N   UNL     1      -6.426  12.795  69.307  1.00  0.00    -0.106 NA 
HETATM   17  H   UNL     1      -5.646  12.305  69.746  1.00  0.00     0.000 HD 
BRANCH  16  18
HETATM   18  C   UNL     1      -7.561  12.047  69.037  1.00  0.00     0.056 A  
HETATM   19  N   UNL     1      -8.465  12.586  68.205  1.00  0.00    -0.173 NA 
HETATM   20  C   UNL     1      -9.602  11.891  68.013  1.00  0.00    -0.193 A  
HETATM   21  C   UNL     1      -9.828  10.646  68.549  1.00  0.00    -0.168 A  
HETATM   22  F   UNL     1     -10.978  10.006  68.298  1.00  0.00    -0.251 F  
HETATM   23  C   UNL     1      -8.826  10.120  69.338  1.00  0.00    -0.185 A  
HETATM   24  N   UNL     1      -7.714  10.840  69.614  1.00  0.00    -0.076 NA 
BRANCH  23  25
HETATM   25  C   UNL     1      -8.840   8.748  69.897  1.00  0.00    -0.143 A  
HETATM   26  C   UNL     1      -8.999   8.543  71.281  1.00  0.00    -0.244 A  
HETATM   27  C   UNL     1      -9.053   7.262  71.827  1.00  0.00    -0.130 A  
HETATM   28  C   UNL     1      -8.950   6.138  71.000  1.00  0.00    -0.143 A  
HETATM   29  F   UNL     1      -9.206   7.131  73.154  1.00  0.00    -0.144 F  
HETATM   30  N   UNL     1      -8.970   4.811  71.315  1.00  0.00    -0.126 NA 
HETATM   31  C   UNL     1      -8.824   4.155  70.185  1.00  0.00    -0.082 A  
HETATM   32  N   UNL     1      -8.718   5.026  69.113  1.00  0.00    -0.091 NA 
HETATM   33  C   UNL     1      -8.770   2.671  70.135  1.00  0.00    -0.126 C  
HETATM   34  C   UNL     1      -8.749   7.609  69.053  1.00  0.00    -0.136 A  
HETATM   35  C   UNL     1      -8.800   6.318  69.625  1.00  0.00    -0.136 A  
BRANCH  32  36
HETATM   36  C   UNL     1      -8.477   4.718  67.702  1.00  0.00    -0.104 C  
HETATM   37  C   UNL     1      -7.172   5.260  67.106  1.00  0.00    -0.078 C  
HETATM   38  C   UNL     1      -9.664   5.136  66.833  1.00  0.00    -0.175 C  
ENDBRANCH  32  36
ENDBRANCH  23  25
ENDBRANCH  16  18
ENDBRANCH  13  16
ENDBRANCH   9  10
ENDBRANCH   6   9
ENDBRANCH   2   3
TORSDOF 7
ENDMDL
MODEL      153
REMARK 921   NORMALIZED FREE ENERGY PREDICTED BY IDOCK:   -3.88 KCAL/MOL
REMARK 922        TOTAL FREE ENERGY PREDICTED BY IDOCK:   -6.35 KCAL/MOL
REMARK 923 INTER-LIGAND FREE ENERGY PREDICTED BY IDOCK:   -7.08 KCAL/MOL
REMARK 924 INTRA-LIGAND FREE ENERGY PREDICTED BY IDOCK:    0.74 KCAL/MOL
REMARK 927      BINDING AFFINITY PREDICTED BY RF-SCORE:    0.00 PKD
ROOT
HETATM    1  C   UNL     1      -7.038  20.140  66.000  1.00  0.00    -0.312 C  
HETATM    2  C   UNL     1      -8.015  20.439  67.130  1.00  0.00    -0.335 C  
ENDROOT
BRANCH   2   3
HETATM    3  N   UNL     1      -8.334  19.278  67.978  1.00  0.00    -0.305 NA 
HETATM    4  C   UNL     1      -9.725  19.381  68.480  1.00  0.00    -0.421 C  
HETATM    5  C   UNL     1     -10.814  19.010  67.442  1.00  0.00    -0.409 C  
HETATM    6  N   UNL     1     -10.625  17.690  66.797  1.00  0.00    -0.276 NA 
HETATM    7  C   UNL     1      -8.152  17.979  67.297  1.00  0.00    -0.210 C  
HETATM    8  C   UNL     1      -9.247  17.635  66.259  1.00  0.00    -0.190 C  
BRANCH   6   9
HETATM    9  C   UNL     1     -10.848  16.568  67.732  1.00  0.00    -0.304 C  
BRANCH   9  10
HETATM   10  C   UNL     1     -10.888  15.227  67.056  1.00  0.00    -0.321 A  
HETATM   11  C   UNL     1      -9.724  14.615  66.604  1.00  0.00    -0.283 A  
HETATM   12  C   UNL     1      -9.813  13.383  65.971  1.00  0.00    -0.273 A  
HETATM   13  C   UNL     1     -11.060  12.781  65.791  1.00  0.00    -0.285 A  
HETATM   14  N   UNL     1     -12.195  13.349  66.245  1.00  0.00    -0.413 NA 
HETATM   15  C   UNL     1     -12.088  14.553  66.853  1.00  0.00    -0.281 A  
BRANCH  13  16
HETATM   16  N   UNL     1     -11.164  11.528  65.199  1.00  0.00    -0.201 NA 
HETATM   17  H   UNL     1     -12.085  11.258  64.852  1.00  0.00     0.000 HD 
BRANCH  16  18
HETATM   18  C   UNL     1     -10.141  10.608  65.035  1.00  0.00    -0.321 A  
HETATM   19  N   UNL     1      -9.714  10.384  63.784  1.00  0.00    -0.307 NA 
HETATM   20  C   UNL     1      -8.777   9.430  63.624  1.00  0.00    -0.202 A  
HETATM   21  C   UNL     1      -8.194   8.759  64.672  1.00  0.00    -0.165 A  
HETATM   22  F   UNL     1      -7.253   7.835  64.437  1.00  0.00    -0.065 F  
HETATM   23  C   UNL     1      -8.628   9.091  65.939  1.00  0.00    -0.154 A  
HETATM   24  N   UNL     1      -9.631   9.983  66.114  1.00  0.00    -0.195 NA 
BRANCH  23  25
HETATM   25  C   UNL     1      -8.032   8.564  67.188  1.00  0.00    -0.101 A  
HETATM   26  C   UNL     1      -8.052   9.330  68.368  1.00  0.00    -0.106 A  
HETATM   27  C   UNL     1      -7.531   8.842  69.565  1.00  0.00    -0.075 A  
HETATM   28  C   UNL     1      -6.970   7.562  69.619  1.00  0.00    -0.053 A  
HETATM   29  F   UNL     1      -7.579   9.622  70.657  1.00  0.00    -0.133 F  
HETATM   30  N   UNL     1      -6.403   6.894  70.665  1.00  0.00    -0.045 NA 
HETATM   31  C   UNL     1      -6.014   5.728  70.199  1.00  0.00    -0.025 A  
HETATM   32  N   UNL     1      -6.324   5.599  68.855  1.00  0.00    -0.036 NA 
HETATM   33  C   UNL     1      -5.323   4.728  71.053  1.00  0.00    -0.004 C  
HETATM   34  C   UNL     1      -7.476   7.257  67.243  1.00  0.00    -0.099 A  
HETATM   35  C   UNL     1      -6.946   6.781  68.463  1.00  0.00    -0.076 A  
BRANCH  32  36
HETATM   36  C   UNL     1      -6.007   4.498  67.942  1.00  0.00    -0.027 C  
HETATM   37  C   UNL     1      -7.145   4.032  67.026  1.00  0.00    -0.064 C  
HETATM   38  C   UNL     1      -5.418   3.306  68.697  1.00  0.00    -0.013 C  
ENDBRANCH  32  36
ENDBRANCH  23  25
ENDBRANCH  16  18
ENDBRANCH  13  16
ENDBRANCH   9  10
ENDBRANCH   6   9
ENDBRANCH   2   3
TORSDOF 7
ENDMDL
MODEL      154
REMARK 921   NORMALIZED FREE ENERGY PREDICTED BY IDOCK:   -3.82 KCAL/MOL
REMARK 922        TOTAL FREE ENERGY PREDICTED BY IDOCK:   -6.26 KCAL/MOL
REMARK 923 INTER-LIGAND FREE ENERGY PREDICTED BY IDOCK:   -9.36 KCAL/MOL
REMARK 924 INTRA-LIGAND FREE ENERGY PREDICTED BY IDOCK:    3.10 KCAL/MOL
REMARK 927      BINDING AFFINITY PREDICTED BY RF-SCORE:    0.00 PKD
ROOT
HETATM    1  C   UNL     1      -5.132  20.780  70.769  1.00  0.00    -0.261 C  
HETATM    2  C   UNL     1      -5.253  19.532  69.902  1.00  0.00    -0.199 C  
ENDROOT
BRANCH   2   3
HETATM    3  N   UNL     1      -6.568  19.366  69.261  1.00  0.00    -0.314 NA 
HETATM    4  C   UNL     1      -6.847  20.516  68.368  1.00  0.00    -0.177 C  
HETATM    5  C   UNL     1      -6.102  20.473  67.010  1.00  0.00    -0.201 C  
HETATM    6  N   UNL     1      -6.278  19.213  66.252  1.00  0.00    -0.171 NA 
HETATM    7  C   UNL     1      -6.702  18.108  68.499  1.00  0.00    -0.230 C  
HETATM    8  C   UNL     1      -5.942  18.086  67.151  1.00  0.00    -0.137 C  
BRANCH   6   9
HETATM    9  C   UNL     1      -7.651  19.054  65.733  1.00  0.00    -0.097 C  
BRANCH   9  10
HETATM   10  C   UNL     1      -8.424  17.959  66.414  1.00  0.00    -0.263 A  
HETATM   11  C   UNL     1      -8.005  16.635  66.346  1.00  0.00    -0.360 A  
HETATM   12  C   UNL     1      -8.760  15.657  66.977  1.00  0.00    -0.256 A  
HETATM   13  C   UNL     1      -9.925  16.009  67.660  1.00  0.00    -0.239 A  
HETATM   14  N   UNL     1     -10.332  17.291  67.757  1.00  0.00    -0.342 NA 
HETATM   15  C   UNL     1      -9.585  18.229  67.129  1.00  0.00    -0.281 A  
BRANCH  13  16
HETATM   16  N   UNL     1     -10.670  15.050  68.336  1.00  0.00    -0.239 NA 
HETATM   17  H   UNL     1     -11.155  15.355  69.181  1.00  0.00     0.000 HD 
BRANCH  16  18
HETATM   18  C   UNL     1     -10.819  13.720  67.975  1.00  0.00    -0.249 A  
HETATM   19  N   UNL     1     -10.597  13.406  66.690  1.00  0.00    -0.280 NA 
HETATM   20  C   UNL     1     -10.822  12.129  66.330  1.00  0.00    -0.271 A  
HETATM   21  C   UNL     1     -11.176  11.143  67.220  1.00  0.00    -0.277 A  
HETATM   22  F   UNL     1     -11.366   9.888  66.790  1.00  0.00    -0.068 F  
HETATM   23  C   UNL     1     -11.317  11.520  68.539  1.00  0.00    -0.277 A  
HETATM   24  N   UNL     1     -11.181  12.816  68.906  1.00  0.00    -0.270 NA 
BRANCH  23  25
HETATM   25  C   UNL     1     -11.572  10.577  69.652  1.00  0.00    -0.342 A  
HETATM   26  C   UNL     1     -12.502  10.895  70.660  1.00  0.00    -0.460 A  
HETATM   27  C   UNL     1     -12.787  10.009  71.697  1.00  0.00    -0.440 A  
HETATM   28  C   UNL     1     -12.146   8.767  71.758  1.00  0.00    -0.350 A  
HETATM   29  F   UNL     1     -13.684  10.370  72.628  1.00  0.00    -0.305 F  
HETATM   30  N   UNL     1     -12.263   7.762  72.673  1.00  0.00    -0.149 NA 
HETATM   31  C   UNL     1     -11.439   6.811  72.295  1.00  0.00    -0.276 A  
HETATM   32  N   UNL     1     -10.777   7.160  71.128  1.00  0.00    -0.231 NA 
HETATM   33  C   UNL     1     -11.273   5.555  73.070  1.00  0.00    -0.346 C  
HETATM   34  C   UNL     1     -10.930   9.310  69.704  1.00  0.00    -0.192 A  
HETATM   35  C   UNL     1     -11.226   8.427  70.767  1.00  0.00    -0.263 A  
BRANCH  32  36
HETATM   36  C   UNL     1      -9.732   6.426  70.412  1.00  0.00    -0.165 C  
HETATM   37  C   UNL     1      -9.557   4.952  70.797  1.00  0.00    -0.251 C  
HETATM   38  C   UNL     1      -8.389   7.153  70.496  1.00  0.00    -0.131 C  
ENDBRANCH  32  36
ENDBRANCH  23  25
ENDBRANCH  16  18
ENDBRANCH  13  16
ENDBRANCH   9  10
ENDBRANCH   6   9
ENDBRANCH   2   3
TORSDOF 7
ENDMDL
MODEL      155
REMARK 921   NORMALIZED FREE ENERGY PREDICTED BY IDOCK:   -3.82 KCAL/MOL
REMARK 922        TOTAL FREE ENERGY PREDICTED BY IDOCK:   -6.26 KCAL/MOL
REMARK 923 INTER-LIGAND FREE ENERGY PREDICTED BY IDOCK:   -5.42 KCAL/MOL
REMARK 924 INTRA-LIGAND FREE ENERGY PREDICTED BY IDOCK:   -0.84 KCAL/MOL
REMARK 927      BINDING AFFINITY PREDICTED BY RF-SCORE:    0.00 PKD
ROOT
HETATM    1  C   UNL     1      -9.039   1.568  67.278  1.00  0.00    -0.131 C  
HETATM    2  C   UNL     1      -9.149   3.066  67.016  1.00  0.00    -0.173 C  
ENDROOT
BRANCH   2   3
HETATM    3  N   UNL     1      -7.961   3.658  66.380  1.00  0.00    -0.089 NA 
HETATM    4  C   UNL     1      -7.945   3.335  64.933  1.00  0.00    -0.086 C  
HETATM    5  C   UNL     1      -8.914   4.184  64.072  1.00  0.00    -0.141 C  
HETATM    6  N   UNL     1      -8.771   5.648  64.247  1.00  0.00     0.036 NA 
HETATM    7  C   UNL     1      -7.859   5.120  66.558  1.00  0.00    -0.103 C  
HETATM    8  C   UNL     1      -8.843   5.946  65.696  1.00  0.00    -0.118 C  
BRANCH   6   9
HETATM    9  C   UNL     1      -7.504   6.161  63.688  1.00  0.00    -0.075 C  
BRANCH   9  10
HETATM   10  C   UNL     1      -7.105   7.500  64.243  1.00  0.00    -0.063 A  
HETATM   11  C   UNL     1      -5.828   7.716  64.750  1.00  0.00    -0.038 A  
HETATM   12  C   UNL     1      -5.512   8.964  65.267  1.00  0.00    -0.038 A  
HETATM   13  C   UNL     1      -6.473   9.978  65.278  1.00  0.00    -0.112 A  
HETATM   14  N   UNL     1      -7.707   9.792  64.767  1.00  0.00    -0.122 NA 
HETATM   15  C   UNL     1      -7.997   8.566  64.274  1.00  0.00    -0.149 A  
BRANCH  13  16
HETATM   16  N   UNL     1      -6.161  11.247  65.750  1.00  0.00    -0.417 NA 
HETATM   17  H   UNL     1      -5.912  11.949  65.052  1.00  0.00     0.000 HD 
BRANCH  16  18
HETATM   18  C   UNL     1      -6.153  11.653  67.075  1.00  0.00    -0.138 A  
HETATM   19  N   UNL     1      -5.850  12.936  67.321  1.00  0.00    -0.338 NA 
HETATM   20  C   UNL     1      -5.765  13.302  68.614  1.00  0.00    -0.079 A  
HETATM   21  C   UNL     1      -6.055  12.459  69.660  1.00  0.00    -0.135 A  
HETATM   22  F   UNL     1      -5.966  12.900  70.921  1.00  0.00    -0.189 F  
HETATM   23  C   UNL     1      -6.431  11.173  69.333  1.00  0.00    -0.100 A  
HETATM   24  N   UNL     1      -6.437  10.761  68.044  1.00  0.00    -0.061 NA 
BRANCH  23  25
HETATM   25  C   UNL     1      -6.896  10.166  70.316  1.00  0.00    -0.150 A  
HETATM   26  C   UNL     1      -6.025   9.684  71.310  1.00  0.00    -0.053 A  
HETATM   27  C   UNL     1      -6.449   8.765  72.268  1.00  0.00    -0.029 A  
HETATM   28  C   UNL     1      -7.767   8.297  72.261  1.00  0.00    -0.126 A  
HETATM   29  F   UNL     1      -5.571   8.342  73.192  1.00  0.00    -0.043 F  
HETATM   30  N   UNL     1      -8.387   7.405  73.086  1.00  0.00    -0.117 NA 
HETATM   31  C   UNL     1      -9.624   7.292  72.655  1.00  0.00    -0.153 A  
HETATM   32  N   UNL     1      -9.846   8.107  71.557  1.00  0.00    -0.170 NA 
HETATM   33  C   UNL     1     -10.603   6.377  73.297  1.00  0.00    -0.291 C  
HETATM   34  C   UNL     1      -8.239   9.704  70.314  1.00  0.00    -0.217 A  
HETATM   35  C   UNL     1      -8.650   8.768  71.290  1.00  0.00    -0.203 A  
BRANCH  32  36
HETATM   36  C   UNL     1     -11.052   8.231  70.735  1.00  0.00    -0.258 C  
HETATM   37  C   UNL     1     -12.203   9.042  71.343  1.00  0.00    -0.387 C  
HETATM   38  C   UNL     1     -11.557   6.859  70.283  1.00  0.00    -0.362 C  
ENDBRANCH  32  36
ENDBRANCH  23  25
ENDBRANCH  16  18
ENDBRANCH  13  16
ENDBRANCH   9  10
ENDBRANCH   6   9
ENDBRANCH   2   3
TORSDOF 7
ENDMDL
MODEL      156
REMARK 921   NORMALIZED FREE ENERGY PREDICTED BY IDOCK:   -3.80 KCAL/MOL
REMARK 922        TOTAL FREE ENERGY PREDICTED BY IDOCK:   -6.23 KCAL/MOL
REMARK 923 INTER-LIGAND FREE ENERGY PREDICTED BY IDOCK:   -6.46 KCAL/MOL
REMARK 924 INTRA-LIGAND FREE ENERGY PREDICTED BY IDOCK:    0.23 KCAL/MOL
REMARK 927      BINDING AFFINITY PREDICTED BY RF-SCORE:    0.00 PKD
ROOT
HETATM    1  C   UNL     1     -12.018   1.546  73.669  1.00  0.00    -0.288 C  
HETATM    2  C   UNL     1     -10.890   1.966  72.735  1.00  0.00    -0.100 C  
ENDROOT
BRANCH   2   3
HETATM    3  N   UNL     1      -9.740   2.586  73.415  1.00  0.00    -0.094 NA 
HETATM    4  C   UNL     1      -8.951   3.388  72.451  1.00  0.00    -0.092 C  
HETATM    5  C   UNL     1      -9.571   4.764  72.096  1.00  0.00    -0.153 C  
HETATM    6  N   UNL     1      -9.912   5.605  73.267  1.00  0.00    -0.172 NA 
HETATM    7  C   UNL     1     -10.118   3.432  74.565  1.00  0.00    -0.165 C  
HETATM    8  C   UNL     1     -10.743   4.796  74.187  1.00  0.00    -0.271 C  
BRANCH   6   9
HETATM    9  C   UNL     1      -8.713   6.100  73.973  1.00  0.00    -0.120 C  
BRANCH   9  10
HETATM   10  C   UNL     1      -7.858   7.007  73.134  1.00  0.00    -0.107 A  
HETATM   11  C   UNL     1      -6.492   6.782  72.996  1.00  0.00    -0.063 A  
HETATM   12  C   UNL     1      -5.740   7.656  72.224  1.00  0.00    -0.036 A  
HETATM   13  C   UNL     1      -6.357   8.746  71.606  1.00  0.00    -0.073 A  
HETATM   14  N   UNL     1      -7.684   8.964  71.709  1.00  0.00    -0.326 NA 
HETATM   15  C   UNL     1      -8.397   8.104  72.471  1.00  0.00    -0.172 A  
BRANCH  13  16
HETATM   16  N   UNL     1      -5.629   9.606  70.792  1.00  0.00    -0.054 NA 
HETATM   17  H   UNL     1      -4.663   9.345  70.594  1.00  0.00     0.000 HD 
BRANCH  16  18
HETATM   18  C   UNL     1      -6.087  10.784  70.224  1.00  0.00    -0.133 A  
HETATM   19  N   UNL     1      -5.524  11.926  70.645  1.00  0.00    -0.148 NA 
HETATM   20  C   UNL     1      -6.030  13.071  70.149  1.00  0.00    -0.135 A  
HETATM   21  C   UNL     1      -7.013  13.111  69.189  1.00  0.00    -0.028 A  
HETATM   22  F   UNL     1      -7.454  14.289  68.729  1.00  0.00    -0.108 F  
HETATM   23  C   UNL     1      -7.497  11.897  68.747  1.00  0.00    -0.100 A  
HETATM   24  N   UNL     1      -7.063  10.738  69.297  1.00  0.00    -0.103 NA 
BRANCH  23  25
HETATM   25  C   UNL     1      -8.464  11.741  67.636  1.00  0.00    -0.149 A  
HETATM   26  C   UNL     1      -8.939  10.466  67.276  1.00  0.00    -0.142 A  
HETATM   27  C   UNL     1      -9.876  10.296  66.259  1.00  0.00    -0.219 A  
HETATM   28  C   UNL     1     -10.373  11.406  65.566  1.00  0.00    -0.266 A  
HETATM   29  F   UNL     1     -10.290   9.054  65.962  1.00  0.00    -0.361 F  
HETATM   30  N   UNL     1     -11.276  11.472  64.547  1.00  0.00    -0.275 NA 
HETATM   31  C   UNL     1     -11.396  12.743  64.233  1.00  0.00    -0.367 A  
HETATM   32  N   UNL     1     -10.592  13.533  65.040  1.00  0.00    -0.350 NA 
HETATM   33  C   UNL     1     -12.283  13.206  63.135  1.00  0.00    -0.275 C  
HETATM   34  C   UNL     1      -8.977  12.871  66.944  1.00  0.00    -0.210 A  
HETATM   35  C   UNL     1      -9.923  12.680  65.912  1.00  0.00    -0.264 A  
BRANCH  32  36
HETATM   36  C   UNL     1     -10.374  14.980  64.981  1.00  0.00    -0.357 C  
HETATM   37  C   UNL     1      -9.337  15.547  65.958  1.00  0.00    -0.379 C  
HETATM   38  C   UNL     1     -11.693  15.744  65.113  1.00  0.00     0.196 C  
ENDBRANCH  32  36
ENDBRANCH  23  25
ENDBRANCH  16  18
ENDBRANCH  13  16
ENDBRANCH   9  10
ENDBRANCH   6   9
ENDBRANCH   2   3
TORSDOF 7
ENDMDL
MODEL      157
REMARK 921   NORMALIZED FREE ENERGY PREDICTED BY IDOCK:   -3.80 KCAL/MOL
REMARK 922        TOTAL FREE ENERGY PREDICTED BY IDOCK:   -6.23 KCAL/MOL
REMARK 923 INTER-LIGAND FREE ENERGY PREDICTED BY IDOCK:   -5.19 KCAL/MOL
REMARK 924 INTRA-LIGAND FREE ENERGY PREDICTED BY IDOCK:   -1.04 KCAL/MOL
REMARK 927      BINDING AFFINITY PREDICTED BY RF-SCORE:    0.00 PKD
ROOT
HETATM    1  C   UNL     1     -13.144  14.645  65.292  1.00  0.00     0.291 C  
HETATM    2  C   UNL     1     -12.574  13.232  65.221  1.00  0.00    -0.470 C  
ENDROOT
BRANCH   2   3
HETATM    3  N   UNL     1     -11.105  13.169  65.280  1.00  0.00    -0.280 NA 
HETATM    4  C   UNL     1     -10.679  12.033  66.132  1.00  0.00    -0.275 C  
HETATM    5  C   UNL     1     -10.780  10.644  65.453  1.00  0.00    -0.036 C  
HETATM    6  N   UNL     1     -10.101  10.550  64.139  1.00  0.00    -0.328 NA 
HETATM    7  C   UNL     1     -10.462  13.057  63.955  1.00  0.00    -0.312 C  
HETATM    8  C   UNL     1     -10.584  11.664  63.293  1.00  0.00    -0.356 C  
BRANCH   6   9
HETATM    9  C   UNL     1      -8.631  10.608  64.260  1.00  0.00    -0.101 C  
BRANCH   9  10
HETATM   10  C   UNL     1      -7.994   9.261  64.456  1.00  0.00    -0.128 A  
HETATM   11  C   UNL     1      -7.043   9.053  65.449  1.00  0.00    -0.081 A  
HETATM   12  C   UNL     1      -6.470   7.796  65.580  1.00  0.00    -0.042 A  
HETATM   13  C   UNL     1      -6.848   6.765  64.717  1.00  0.00    -0.050 A  
HETATM   14  N   UNL     1      -7.787   6.943  63.766  1.00  0.00    -0.123 NA 
HETATM   15  C   UNL     1      -8.328   8.178  63.650  1.00  0.00     0.013 A  
BRANCH  13  16
HETATM   16  N   UNL     1      -6.319   5.488  64.862  1.00  0.00    -0.036 NA 
HETATM   17  H   UNL     1      -5.494   5.266  64.305  1.00  0.00     0.000 HD 
BRANCH  16  18
HETATM   18  C   UNL     1      -6.804   4.487  65.689  1.00  0.00    -0.057 A  
HETATM   19  N   UNL     1      -6.426   3.229  65.413  1.00  0.00    -0.031 NA 
HETATM   20  C   UNL     1      -6.966   2.254  66.169  1.00  0.00    -0.044 A  
HETATM   21  C   UNL     1      -7.795   2.497  67.238  1.00  0.00    -0.069 A  
HETATM   22  F   UNL     1      -8.279   1.476  67.957  1.00  0.00    -0.056 F  
HETATM   23  C   UNL     1      -8.085   3.818  67.510  1.00  0.00    -0.090 A  
HETATM   24  N   UNL     1      -7.623   4.806  66.709  1.00  0.00    -0.086 NA 
BRANCH  23  25
HETATM   25  C   UNL     1      -8.857   4.275  68.689  1.00  0.00    -0.136 A  
HETATM   26  C   UNL     1      -9.913   5.194  68.539  1.00  0.00    -0.221 A  
HETATM   27  C   UNL     1     -10.678   5.611  69.626  1.00  0.00    -0.328 A  
HETATM   28  C   UNL     1     -10.408   5.118  70.907  1.00  0.00    -0.212 A  
HETATM   29  F   UNL     1     -11.672   6.489  69.419  1.00  0.00    -0.405 F  
HETATM   30  N   UNL     1     -11.015   5.389  72.099  1.00  0.00    -0.228 NA 
HETATM   31  C   UNL     1     -10.384   4.684  73.011  1.00  0.00    -0.181 A  
HETATM   32  N   UNL     1      -9.368   3.931  72.444  1.00  0.00    -0.115 NA 
HETATM   33  C   UNL     1     -10.752   4.743  74.449  1.00  0.00    -0.183 C  
HETATM   34  C   UNL     1      -8.590   3.762  69.987  1.00  0.00    -0.107 A  
HETATM   35  C   UNL     1      -9.372   4.201  71.079  1.00  0.00    -0.149 A  
BRANCH  32  36
HETATM   36  C   UNL     1      -8.387   3.069  73.107  1.00  0.00    -0.079 C  
HETATM   37  C   UNL     1      -6.986   3.664  73.299  1.00  0.00    -0.049 C  
HETATM   38  C   UNL     1      -8.289   1.709  72.415  1.00  0.00    -0.053 C  
ENDBRANCH  32  36
ENDBRANCH  23  25
ENDBRANCH  16  18
ENDBRANCH  13  16
ENDBRANCH   9  10
ENDBRANCH   6   9
ENDBRANCH   2   3
TORSDOF 7
ENDMDL
MODEL      158
REMARK 921   NORMALIZED FREE ENERGY PREDICTED BY IDOCK:   -3.71 KCAL/MOL
REMARK 922        TOTAL FREE ENERGY PREDICTED BY IDOCK:   -6.10 KCAL/MOL
REMARK 923 INTER-LIGAND FREE ENERGY PREDICTED BY IDOCK:   -6.03 KCAL/MOL
REMARK 924 INTRA-LIGAND FREE ENERGY PREDICTED BY IDOCK:   -0.07 KCAL/MOL
REMARK 927      BINDING AFFINITY PREDICTED BY RF-SCORE:    0.00 PKD
ROOT
HETATM    1  C   UNL     1     -10.426  17.223  67.097  1.00  0.00    -0.297 C  
HETATM    2  C   UNL     1     -11.022  15.867  66.738  1.00  0.00    -0.151 C  
ENDROOT
BRANCH   2   3
HETATM    3  N   UNL     1     -10.701  15.407  65.377  1.00  0.00    -0.373 NA 
HETATM    4  C   UNL     1      -9.514  14.519  65.407  1.00  0.00     0.202 C  
HETATM    5  C   UNL     1      -9.799  13.078  65.902  1.00  0.00    -0.237 C  
HETATM    6  N   UNL     1     -10.904  12.392  65.193  1.00  0.00    -0.288 NA 
HETATM    7  C   UNL     1     -11.818  14.711  64.708  1.00  0.00    -0.440 C  
HETATM    8  C   UNL     1     -12.090  13.278  65.225  1.00  0.00    -0.418 C  
BRANCH   6   9
HETATM    9  C   UNL     1     -10.558  12.060  63.797  1.00  0.00    -0.430 C  
BRANCH   9  10
HETATM   10  C   UNL     1      -9.630  10.885  63.674  1.00  0.00    -0.339 A  
HETATM   11  C   UNL     1      -9.238  10.405  62.429  1.00  0.00    -0.304 A  
HETATM   12  C   UNL     1      -8.393   9.306  62.367  1.00  0.00    -0.181 A  
HETATM   13  C   UNL     1      -7.954   8.697  63.544  1.00  0.00    -0.160 A  
HETATM   14  N   UNL     1      -8.304   9.165  64.760  1.00  0.00    -0.159 NA 
HETATM   15  C   UNL     1      -9.134  10.233  64.798  1.00  0.00    -0.219 A  
BRANCH  13  16
HETATM   16  N   UNL     1      -7.071   7.624  63.502  1.00  0.00    -0.067 NA 
HETATM   17  H   UNL     1      -6.402   7.609  62.732  1.00  0.00     0.000 HD 
BRANCH  16  18
HETATM   18  C   UNL     1      -7.011   6.574  64.404  1.00  0.00    -0.047 A  
HETATM   19  N   UNL     1      -6.396   5.453  63.998  1.00  0.00    -0.022 NA 
HETATM   20  C   UNL     1      -6.413   4.410  64.849  1.00  0.00    -0.035 A  
HETATM   21  C   UNL     1      -6.942   4.474  66.115  1.00  0.00    -0.063 A  
HETATM   22  F   UNL     1      -6.906   3.399  66.914  1.00  0.00    -0.048 F  
HETATM   23  C   UNL     1      -7.494   5.680  66.495  1.00  0.00    -0.087 A  
HETATM   24  N   UNL     1      -7.566   6.713  65.624  1.00  0.00    -0.082 NA 
BRANCH  23  25
HETATM   25  C   UNL     1      -7.999   5.973  67.857  1.00  0.00    -0.106 A  
HETATM   26  C   UNL     1      -9.114   5.283  68.369  1.00  0.00    -0.125 A  
HETATM   27  C   UNL     1      -9.586   5.513  69.660  1.00  0.00    -0.158 A  
HETATM   28  C   UNL     1      -8.951   6.447  70.485  1.00  0.00    -0.151 A  
HETATM   29  F   UNL     1     -10.654   4.824  70.091  1.00  0.00    -0.311 F  
HETATM   30  N   UNL     1      -9.241   6.832  71.761  1.00  0.00    -0.147 NA 
HETATM   31  C   UNL     1      -8.357   7.749  72.088  1.00  0.00    -0.117 A  
HETATM   32  N   UNL     1      -7.468   7.976  71.049  1.00  0.00    -0.068 NA 
HETATM   33  C   UNL     1      -8.374   8.428  73.409  1.00  0.00    -0.179 C  
HETATM   34  C   UNL     1      -7.344   6.912  68.698  1.00  0.00    -0.094 A  
HETATM   35  C   UNL     1      -7.839   7.137  70.002  1.00  0.00    -0.113 A  
BRANCH  32  36
HETATM   36  C   UNL     1      -6.382   8.955  70.969  1.00  0.00    -0.056 C  
HETATM   37  C   UNL     1      -6.726  10.291  70.299  1.00  0.00    -0.143 C  
HETATM   38  C   UNL     1      -5.136   8.349  70.321  1.00  0.00    -0.022 C  
ENDBRANCH  32  36
ENDBRANCH  23  25
ENDBRANCH  16  18
ENDBRANCH  13  16
ENDBRANCH   9  10
ENDBRANCH   6   9
ENDBRANCH   2   3
TORSDOF 7
ENDMDL
MODEL      159
REMARK 921   NORMALIZED FREE ENERGY PREDICTED BY IDOCK:   -3.49 KCAL/MOL
REMARK 922        TOTAL FREE ENERGY PREDICTED BY IDOCK:   -5.79 KCAL/MOL
REMARK 923 INTER-LIGAND FREE ENERGY PREDICTED BY IDOCK:   -4.90 KCAL/MOL
REMARK 924 INTRA-LIGAND FREE ENERGY PREDICTED BY IDOCK:   -0.89 KCAL/MOL
REMARK 927      BINDING AFFINITY PREDICTED BY RF-SCORE:    0.00 PKD
ROOT
HETATM    1  C   UNL     1     -11.155   4.825  73.167  1.00  0.00    -0.388 C  
HETATM    2  C   UNL     1     -10.876   4.288  71.768  1.00  0.00     0.430 C  
ENDROOT
BRANCH   2   3
HETATM    3  N   UNL     1      -9.456   4.316  71.381  1.00  0.00    -0.147 NA 
HETATM    4  C   UNL     1      -9.286   3.732  70.029  1.00  0.00    -0.180 C  
HETATM    5  C   UNL     1      -9.693   4.669  68.865  1.00  0.00    -0.166 C  
HETATM    6  N   UNL     1      -9.058   6.007  68.901  1.00  0.00    -0.122 NA 
HETATM    7  C   UNL     1      -8.860   5.667  71.411  1.00  0.00    -0.136 C  
HETATM    8  C   UNL     1      -9.289   6.588  70.243  1.00  0.00    -0.159 C  
BRANCH   6   9
HETATM    9  C   UNL     1      -7.610   5.951  68.617  1.00  0.00    -0.090 C  
BRANCH   9  10
HETATM   10  C   UNL     1      -6.985   7.305  68.431  1.00  0.00    -0.079 A  
HETATM   11  C   UNL     1      -7.316   8.105  67.343  1.00  0.00    -0.089 A  
HETATM   12  C   UNL     1      -6.700   9.341  67.204  1.00  0.00    -0.076 A  
HETATM   13  C   UNL     1      -5.758   9.759  68.147  1.00  0.00    -0.039 A  
HETATM   14  N   UNL     1      -5.444   9.006  69.221  1.00  0.00    -0.035 NA 
HETATM   15  C   UNL     1      -6.051   7.802  69.333  1.00  0.00    -0.034 A  
BRANCH  13  16
HETATM   16  N   UNL     1      -5.164  11.012  68.049  1.00  0.00    -0.039 NA 
HETATM   17  H   UNL     1      -4.271  11.061  67.558  1.00  0.00     0.000 HD 
BRANCH  16  18
HETATM   18  C   UNL     1      -5.666  12.201  68.554  1.00  0.00    -0.053 A  
HETATM   19  N   UNL     1      -5.136  12.652  69.700  1.00  0.00    -0.072 NA 
HETATM   20  C   UNL     1      -5.684  13.763  70.227  1.00  0.00    -0.142 A  
HETATM   21  C   UNL     1      -6.678  14.483  69.608  1.00  0.00    -0.155 A  
HETATM   22  F   UNL     1      -7.162  15.591  70.184  1.00  0.00    -0.129 F  
HETATM   23  C   UNL     1      -7.127  14.003  68.395  1.00  0.00    -0.102 A  
HETATM   24  N   UNL     1      -6.651  12.840  67.893  1.00  0.00    -0.102 NA 
BRANCH  23  25
HETATM   25  C   UNL     1      -8.101  14.708  67.530  1.00  0.00    -0.200 A  
HETATM   26  C   UNL     1      -8.054  16.108  67.396  1.00  0.00    -0.183 A  
HETATM   27  C   UNL     1      -8.936  16.791  66.560  1.00  0.00    -0.273 A  
HETATM   28  C   UNL     1      -9.898  16.089  65.826  1.00  0.00    -0.323 A  
HETATM   29  F   UNL     1      -8.841  18.128  66.475  1.00  0.00    -0.256 F  
HETATM   30  N   UNL     1     -10.852  16.546  64.965  1.00  0.00    -0.648 NA 
HETATM   31  C   UNL     1     -11.515  15.492  64.545  1.00  0.00    -0.308 A  
HETATM   32  N   UNL     1     -11.009  14.330  65.104  1.00  0.00    -0.341 NA 
HETATM   33  C   UNL     1     -12.659  15.602  63.604  1.00  0.00     1.173 C  
HETATM   34  C   UNL     1      -9.068  13.991  66.775  1.00  0.00    -0.250 A  
HETATM   35  C   UNL     1      -9.957  14.700  65.937  1.00  0.00    -0.328 A  
BRANCH  32  36
HETATM   36  C   UNL     1     -11.495  12.955  64.960  1.00  0.00    -0.315 C  
HETATM   37  C   UNL     1     -11.150  12.252  63.642  1.00  0.00    -0.537 C  
HETATM   38  C   UNL     1     -12.999  12.870  65.223  1.00  0.00    -0.007 C  
ENDBRANCH  32  36
ENDBRANCH  23  25
ENDBRANCH  16  18
ENDBRANCH  13  16
ENDBRANCH   9  10
ENDBRANCH   6   9
ENDBRANCH   2   3
TORSDOF 7
ENDMDL
MODEL      160
REMARK 921   NORMALIZED FREE ENERGY PREDICTED BY IDOCK:   -3.48 KCAL/MOL
REMARK 922        TOTAL FREE ENERGY PREDICTED BY IDOCK:   -5.78 KCAL/MOL
REMARK 923 INTER-LIGAND FREE ENERGY PREDICTED BY IDOCK:   -4.97 KCAL/MOL
REMARK 924 INTRA-LIGAND FREE ENERGY PREDICTED BY IDOCK:   -0.82 KCAL/MOL
REMARK 927      BINDING AFFINITY PREDICTED BY RF-SCORE:    0.00 PKD
ROOT
HETATM    1  C   UNL     1      -6.930  20.231  68.331  1.00  0.00    -0.269 C  
HETATM    2  C   UNL     1      -7.833  19.015  68.162  1.00  0.00    -0.300 C  
ENDROOT
BRANCH   2   3
HETATM    3  N   UNL     1      -7.205  17.890  67.449  1.00  0.00    -0.183 NA 
HETATM    4  C   UNL     1      -6.957  16.769  68.387  1.00  0.00    -0.170 C  
HETATM    5  C   UNL     1      -8.213  15.934  68.742  1.00  0.00    -0.196 C  
HETATM    6  N   UNL     1      -8.968  15.431  67.570  1.00  0.00    -0.180 NA 
HETATM    7  C   UNL     1      -7.993  17.402  66.299  1.00  0.00    -0.279 C  
HETATM    8  C   UNL     1      -9.248  16.579  66.678  1.00  0.00    -0.250 C  
BRANCH   6   9
HETATM    9  C   UNL     1      -8.233  14.385  66.832  1.00  0.00    -0.016 C  
BRANCH   9  10
HETATM   10  C   UNL     1      -7.787  13.243  67.701  1.00  0.00    -0.168 A  
HETATM   11  C   UNL     1      -6.438  13.005  67.939  1.00  0.00    -0.130 A  
HETATM   12  C   UNL     1      -6.075  11.928  68.735  1.00  0.00    -0.055 A  
HETATM   13  C   UNL     1      -7.059  11.099  69.277  1.00  0.00    -0.123 A  
HETATM   14  N   UNL     1      -8.373  11.330  69.077  1.00  0.00    -0.070 NA 
HETATM   15  C   UNL     1      -8.705  12.381  68.293  1.00  0.00    -0.175 A  
BRANCH  13  16
HETATM   16  N   UNL     1      -6.717  10.042  70.113  1.00  0.00    -0.111 NA 
HETATM   17  H   UNL     1      -6.618  10.254  71.106  1.00  0.00     0.000 HD 
BRANCH  16  18
HETATM   18  C   UNL     1      -6.497   8.729  69.729  1.00  0.00    -0.038 A  
HETATM   19  N   UNL     1      -5.443   8.101  70.272  1.00  0.00    -0.023 NA 
HETATM   20  C   UNL     1      -5.188   6.853  69.834  1.00  0.00    -0.015 A  
HETATM   21  C   UNL     1      -5.993   6.185  68.943  1.00  0.00    -0.024 A  
HETATM   22  F   UNL     1      -5.685   4.937  68.566  1.00  0.00    -0.013 F  
HETATM   23  C   UNL     1      -7.101   6.864  68.479  1.00  0.00    -0.082 A  
HETATM   24  N   UNL     1      -7.326   8.149  68.840  1.00  0.00    -0.088 NA 
BRANCH  23  25
HETATM   25  C   UNL     1      -8.143   6.264  67.613  1.00  0.00    -0.117 A  
HETATM   26  C   UNL     1      -9.491   6.642  67.751  1.00  0.00    -0.121 A  
HETATM   27  C   UNL     1     -10.484   6.120  66.925  1.00  0.00    -0.276 A  
HETATM   28  C   UNL     1     -10.156   5.196  65.927  1.00  0.00    -0.123 A  
HETATM   29  F   UNL     1     -11.753   6.521  67.106  1.00  0.00    -0.273 F  
HETATM   30  N   UNL     1     -10.955   4.560  65.023  1.00  0.00    -0.118 NA 
HETATM   31  C   UNL     1     -10.171   3.781  64.311  1.00  0.00    -0.235 A  
HETATM   32  N   UNL     1      -8.851   3.896  64.719  1.00  0.00    -0.119 NA 
HETATM   33  C   UNL     1     -10.695   2.903  63.234  1.00  0.00    -0.235 C  
HETATM   34  C   UNL     1      -7.805   5.336  66.591  1.00  0.00    -0.100 A  
HETATM   35  C   UNL     1      -8.825   4.813  65.767  1.00  0.00    -0.131 A  
BRANCH  32  36
HETATM   36  C   UNL     1      -7.677   3.160  64.245  1.00  0.00    -0.077 C  
HETATM   37  C   UNL     1      -6.796   2.524  65.328  1.00  0.00    -0.044 C  
HETATM   38  C   UNL     1      -6.824   4.021  63.312  1.00  0.00    -0.043 C  
ENDBRANCH  32  36
ENDBRANCH  23  25
ENDBRANCH  16  18
ENDBRANCH  13  16
ENDBRANCH   9  10
ENDBRANCH   6   9
ENDBRANCH   2   3
TORSDOF 7
ENDMDL
MODEL      161
REMARK 921   NORMALIZED FREE ENERGY PREDICTED BY IDOCK:   -3.48 KCAL/MOL
REMARK 922        TOTAL FREE ENERGY PREDICTED BY IDOCK:   -5.77 KCAL/MOL
REMARK 923 INTER-LIGAND FREE ENERGY PREDICTED BY IDOCK:   -5.60 KCAL/MOL
REMARK 924 INTRA-LIGAND FREE ENERGY PREDICTED BY IDOCK:   -0.17 KCAL/MOL
REMARK 927      BINDING AFFINITY PREDICTED BY RF-SCORE:    0.00 PKD
ROOT
HETATM    1  C   UNL     1     -12.246  12.249  64.883  1.00  0.00    -0.410 C  
HETATM    2  C   UNL     1     -13.005  13.553  65.103  1.00  0.00    -0.201 C  
ENDROOT
BRANCH   2   3
HETATM    3  N   UNL     1     -12.388  14.452  66.091  1.00  0.00    -0.369 NA 
HETATM    4  C   UNL     1     -11.485  13.686  66.983  1.00  0.00    -0.343 C  
HETATM    5  C   UNL     1     -10.116  13.321  66.357  1.00  0.00    -0.290 C  
HETATM    6  N   UNL     1      -9.375  14.470  65.785  1.00  0.00    -0.121 NA 
HETATM    7  C   UNL     1     -11.643  15.576  65.487  1.00  0.00     0.107 C  
HETATM    8  C   UNL     1     -10.283  15.186  64.860  1.00  0.00    -0.196 C  
BRANCH   6   9
HETATM    9  C   UNL     1      -8.882  15.396  66.825  1.00  0.00    -0.269 C  
BRANCH   9  10
HETATM   10  C   UNL     1      -8.070  14.717  67.892  1.00  0.00    -0.149 A  
HETATM   11  C   UNL     1      -8.176  15.096  69.226  1.00  0.00    -0.216 A  
HETATM   12  C   UNL     1      -7.394  14.451  70.173  1.00  0.00     0.380 A  
HETATM   13  C   UNL     1      -6.513  13.442  69.779  1.00  0.00    -0.033 A  
HETATM   14  N   UNL     1      -6.416  13.045  68.494  1.00  0.00    -0.077 NA 
HETATM   15  C   UNL     1      -7.182  13.691  67.585  1.00  0.00    -0.170 A  
BRANCH  13  16
HETATM   16  N   UNL     1      -5.754  12.754  70.719  1.00  0.00    -0.305 NA 
HETATM   17  H   UNL     1      -5.021  13.281  71.193  1.00  0.00     0.000 HD 
BRANCH  16  18
HETATM   18  C   UNL     1      -5.898  11.423  71.075  1.00  0.00     0.136 A  
HETATM   19  N   UNL     1      -5.150  10.978  72.096  1.00  0.00    -0.319 NA 
HETATM   20  C   UNL     1      -5.234   9.666  72.384  1.00  0.00    -0.049 A  
HETATM   21  C   UNL     1      -6.096   8.805  71.747  1.00  0.00    -0.070 A  
HETATM   22  F   UNL     1      -6.137   7.514  72.100  1.00  0.00    -0.040 F  
HETATM   23  C   UNL     1      -6.889   9.344  70.755  1.00  0.00    -0.109 A  
HETATM   24  N   UNL     1      -6.756  10.641  70.392  1.00  0.00    -0.303 NA 
BRANCH  23  25
HETATM   25  C   UNL     1      -7.957   8.601  70.047  1.00  0.00    -0.106 A  
HETATM   26  C   UNL     1      -9.310   8.819  70.367  1.00  0.00    -0.205 A  
HETATM   27  C   UNL     1     -10.336   8.159  69.692  1.00  0.00    -0.221 A  
HETATM   28  C   UNL     1     -10.036   7.256  68.667  1.00  0.00    -0.176 A  
HETATM   29  F   UNL     1     -11.607   8.410  70.043  1.00  0.00    -0.165 F  
HETATM   30  N   UNL     1     -10.867   6.505  67.888  1.00  0.00    -0.287 NA 
HETATM   31  C   UNL     1     -10.098   5.807  67.082  1.00  0.00    -0.181 A  
HETATM   32  N   UNL     1      -8.759   6.090  67.303  1.00  0.00    -0.106 NA 
HETATM   33  C   UNL     1     -10.653   4.844  66.097  1.00  0.00    -0.322 C  
HETATM   34  C   UNL     1      -7.651   7.694  68.998  1.00  0.00    -0.104 A  
HETATM   35  C   UNL     1      -8.703   7.030  68.327  1.00  0.00    -0.127 A  
BRANCH  32  36
HETATM   36  C   UNL     1      -7.580   5.487  66.677  1.00  0.00    -0.088 C  
HETATM   37  C   UNL     1      -6.607   4.770  67.622  1.00  0.00    -0.047 C  
HETATM   38  C   UNL     1      -6.825   6.506  65.822  1.00  0.00    -0.053 C  
ENDBRANCH  32  36
ENDBRANCH  23  25
ENDBRANCH  16  18
ENDBRANCH  13  16
ENDBRANCH   9  10
ENDBRANCH   6   9
ENDBRANCH   2   3
TORSDOF 7
ENDMDL
MODEL      162
REMARK 921   NORMALIZED FREE ENERGY PREDICTED BY IDOCK:   -3.40 KCAL/MOL
REMARK 922        TOTAL FREE ENERGY PREDICTED BY IDOCK:   -5.67 KCAL/MOL
REMARK 923 INTER-LIGAND FREE ENERGY PREDICTED BY IDOCK:   -5.79 KCAL/MOL
REMARK 924 INTRA-LIGAND FREE ENERGY PREDICTED BY IDOCK:    0.12 KCAL/MOL
REMARK 927      BINDING AFFINITY PREDICTED BY RF-SCORE:    0.00 PKD
ROOT
HETATM    1  C   UNL     1      -8.234  16.481  69.039  1.00  0.00    -0.208 C  
HETATM    2  C   UNL     1      -9.122  15.778  68.019  1.00  0.00    -0.187 C  
ENDROOT
BRANCH   2   3
HETATM    3  N   UNL     1      -8.385  15.009  67.003  1.00  0.00    -0.215 NA 
HETATM    4  C   UNL     1      -6.933  15.028  67.305  1.00  0.00    -0.052 C  
HETATM    5  C   UNL     1      -6.499  14.072  68.444  1.00  0.00    -0.103 C  
HETATM    6  N   UNL     1      -6.943  12.669  68.272  1.00  0.00    -0.086 NA 
HETATM    7  C   UNL     1      -8.840  13.611  66.871  1.00  0.00    -0.187 C  
HETATM    8  C   UNL     1      -8.402  12.677  68.025  1.00  0.00    -0.175 C  
BRANCH   6   9
HETATM    9  C   UNL     1      -6.246  11.989  67.162  1.00  0.00    -0.151 C  
BRANCH   9  10
HETATM   10  C   UNL     1      -6.091  10.509  67.371  1.00  0.00    -0.053 A  
HETATM   11  C   UNL     1      -6.674   9.596  66.499  1.00  0.00    -0.079 A  
HETATM   12  C   UNL     1      -6.517   8.239  66.743  1.00  0.00    -0.056 A  
HETATM   13  C   UNL     1      -5.787   7.810  67.854  1.00  0.00    -0.040 A  
HETATM   14  N   UNL     1      -5.194   8.683  68.694  1.00  0.00    -0.033 NA 
HETATM   15  C   UNL     1      -5.365  10.001  68.443  1.00  0.00    -0.035 A  
BRANCH  13  16
HETATM   16  N   UNL     1      -5.582   6.456  68.089  1.00  0.00    -0.008 NA 
HETATM   17  H   UNL     1      -4.745   6.040  67.680  1.00  0.00     0.000 HD 
BRANCH  16  18
HETATM   18  C   UNL     1      -6.402   5.615  68.825  1.00  0.00    -0.038 A  
HETATM   19  N   UNL     1      -5.985   4.352  69.000  1.00  0.00    -0.022 NA 
HETATM   20  C   UNL     1      -6.824   3.520  69.645  1.00  0.00    -0.041 A  
HETATM   21  C   UNL     1      -8.018   3.925  70.193  1.00  0.00    -0.047 A  
HETATM   22  F   UNL     1      -8.793   3.043  70.838  1.00  0.00    -0.099 F  
HETATM   23  C   UNL     1      -8.351   5.255  70.039  1.00  0.00    -0.098 A  
HETATM   24  N   UNL     1      -7.563   6.086  69.319  1.00  0.00    -0.092 NA 
BRANCH  23  25
HETATM   25  C   UNL     1      -9.532   5.895  70.665  1.00  0.00    -0.199 A  
HETATM   26  C   UNL     1     -10.353   5.169  71.548  1.00  0.00    -0.278 A  
HETATM   27  C   UNL     1     -11.448   5.759  72.177  1.00  0.00    -0.235 A  
HETATM   28  C   UNL     1     -11.757   7.103  71.941  1.00  0.00    -0.292 A  
HETATM   29  F   UNL     1     -12.194   5.015  73.009  1.00  0.00    -0.359 F  
HETATM   30  N   UNL     1     -12.770   7.871  72.435  1.00  0.00    -0.150 NA 
HETATM   31  C   UNL     1     -12.634   9.063  71.898  1.00  0.00    -0.382 A  
HETATM   32  N   UNL     1     -11.533   9.108  71.057  1.00  0.00    -0.286 NA 
HETATM   33  C   UNL     1     -13.581  10.171  72.184  1.00  0.00    -0.295 C  
HETATM   34  C   UNL     1      -9.835   7.263  70.434  1.00  0.00    -0.183 A  
HETATM   35  C   UNL     1     -10.952   7.843  71.076  1.00  0.00    -0.244 A  
BRANCH  32  36
HETATM   36  C   UNL     1     -11.067  10.211  70.214  1.00  0.00    -0.317 C  
HETATM   37  C   UNL     1     -12.069  10.740  69.180  1.00  0.00    -0.227 C  
HETATM   38  C   UNL     1      -9.742   9.866  69.532  1.00  0.00    -0.238 C  
ENDBRANCH  32  36
ENDBRANCH  23  25
ENDBRANCH  16  18
ENDBRANCH  13  16
ENDBRANCH   9  10
ENDBRANCH   6   9
ENDBRANCH   2   3
TORSDOF 7
ENDMDL
MODEL      163
REMARK 921   NORMALIZED FREE ENERGY PREDICTED BY IDOCK:   -3.38 KCAL/MOL
REMARK 922        TOTAL FREE ENERGY PREDICTED BY IDOCK:   -5.64 KCAL/MOL
REMARK 923 INTER-LIGAND FREE ENERGY PREDICTED BY IDOCK:   -5.60 KCAL/MOL
REMARK 924 INTRA-LIGAND FREE ENERGY PREDICTED BY IDOCK:   -0.04 KCAL/MOL
REMARK 927      BINDING AFFINITY PREDICTED BY RF-SCORE:    0.00 PKD
ROOT
HETATM    1  C   UNL     1     -12.132   7.121  71.981  1.00  0.00    -0.329 C  
HETATM    2  C   UNL     1     -11.981   6.988  70.470  1.00  0.00    -0.266 C  
ENDROOT
BRANCH   2   3
HETATM    3  N   UNL     1     -10.591   6.830  70.012  1.00  0.00    -0.210 NA 
HETATM    4  C   UNL     1     -10.529   5.845  68.906  1.00  0.00    -0.259 C  
HETATM    5  C   UNL     1     -10.993   6.389  67.531  1.00  0.00    -0.364 C  
HETATM    6  N   UNL     1     -10.324   7.641  67.107  1.00  0.00    -0.286 NA 
HETATM    7  C   UNL     1      -9.962   8.094  69.579  1.00  0.00    -0.187 C  
HETATM    8  C   UNL     1     -10.448   8.622  68.208  1.00  0.00    -0.184 C  
BRANCH   6   9
HETATM    9  C   UNL     1      -8.901   7.434  66.771  1.00  0.00    -0.137 C  
BRANCH   9  10
HETATM   10  C   UNL     1      -8.054   8.657  66.980  1.00  0.00    -0.100 A  
HETATM   11  C   UNL     1      -8.267   9.814  66.237  1.00  0.00    -0.116 A  
HETATM   12  C   UNL     1      -7.448  10.913  66.454  1.00  0.00    -0.145 A  
HETATM   13  C   UNL     1      -6.426  10.844  67.402  1.00  0.00    -0.065 A  
HETATM   14  N   UNL     1      -6.222   9.739  68.149  1.00  0.00    -0.054 NA 
HETATM   15  C   UNL     1      -7.027   8.676  67.917  1.00  0.00    -0.078 A  
BRANCH  13  16
HETATM   16  N   UNL     1      -5.625  11.949  67.665  1.00  0.00    -0.064 NA 
HETATM   17  H   UNL     1      -4.767  12.036  67.120  1.00  0.00     0.000 HD 
BRANCH  16  18
HETATM   18  C   UNL     1      -5.877  12.944  68.596  1.00  0.00    -0.069 A  
HETATM   19  N   UNL     1      -5.146  12.930  69.720  1.00  0.00    -0.077 NA 
HETATM   20  C   UNL     1      -5.453  13.850  70.655  1.00  0.00    -0.145 A  
HETATM   21  C   UNL     1      -6.398  14.830  70.471  1.00  0.00    -0.085 A  
HETATM   22  F   UNL     1      -6.637  15.723  71.440  1.00  0.00     0.882 F  
HETATM   23  C   UNL     1      -7.063  14.830  69.261  1.00  0.00    -0.154 A  
HETATM   24  N   UNL     1      -6.831  13.862  68.345  1.00  0.00    -0.090 NA 
BRANCH  23  25
HETATM   25  C   UNL     1      -8.022  15.877  68.839  1.00  0.00    -0.204 A  
HETATM   26  C   UNL     1      -9.394  15.744  69.121  1.00  0.00    -0.258 A  
HETATM   27  C   UNL     1     -10.311  16.732  68.766  1.00  0.00    -0.318 A  
HETATM   28  C   UNL     1      -9.880  17.893  68.115  1.00  0.00    -0.334 A  
HETATM   29  F   UNL     1     -11.608  16.547  69.063  1.00  0.00    -0.297 F  
HETATM   30  N   UNL     1     -10.592  18.970  67.676  1.00  0.00    -0.446 NA 
HETATM   31  C   UNL     1      -9.729  19.789  67.117  1.00  0.00    -0.376 A  
HETATM   32  N   UNL     1      -8.443  19.279  67.186  1.00  0.00    -0.280 NA 
HETATM   33  C   UNL     1     -10.146  21.071  66.494  1.00  0.00     0.790 C  
HETATM   34  C   UNL     1      -7.579  17.061  68.190  1.00  0.00    -0.194 A  
HETATM   35  C   UNL     1      -8.523  18.050  67.833  1.00  0.00    -0.252 A  
BRANCH  32  36
HETATM   36  C   UNL     1      -7.206  19.832  66.628  1.00  0.00    -0.233 C  
HETATM   37  C   UNL     1      -6.078  18.829  66.362  1.00  0.00    -0.187 C  
HETATM   38  C   UNL     1      -6.687  20.993  67.478  1.00  0.00    -0.428 C  
ENDBRANCH  32  36
ENDBRANCH  23  25
ENDBRANCH  16  18
ENDBRANCH  13  16
ENDBRANCH   9  10
ENDBRANCH   6   9
ENDBRANCH   2   3
TORSDOF 7
ENDMDL
MODEL      164
REMARK 921   NORMALIZED FREE ENERGY PREDICTED BY IDOCK:   -3.34 KCAL/MOL
REMARK 922        TOTAL FREE ENERGY PREDICTED BY IDOCK:   -5.58 KCAL/MOL
REMARK 923 INTER-LIGAND FREE ENERGY PREDICTED BY IDOCK:   -5.57 KCAL/MOL
REMARK 924 INTRA-LIGAND FREE ENERGY PREDICTED BY IDOCK:   -0.01 KCAL/MOL
REMARK 927      BINDING AFFINITY PREDICTED BY RF-SCORE:    0.00 PKD
ROOT
HETATM    1  C   UNL     1     -13.382  14.277  70.914  1.00  0.00    -0.266 C  
HETATM    2  C   UNL     1     -12.400  15.265  70.295  1.00  0.00    -0.366 C  
ENDROOT
BRANCH   2   3
HETATM    3  N   UNL     1     -11.958  14.908  68.937  1.00  0.00    -0.289 NA 
HETATM    4  C   UNL     1     -11.607  16.132  68.178  1.00  0.00    -0.133 C  
HETATM    5  C   UNL     1     -10.230  16.742  68.540  1.00  0.00    -0.298 C  
HETATM    6  N   UNL     1      -9.098  15.789  68.478  1.00  0.00    -0.187 NA 
HETATM    7  C   UNL     1     -10.817  13.970  68.912  1.00  0.00    -0.258 C  
HETATM    8  C   UNL     1      -9.454  14.601  69.286  1.00  0.00     0.006 C  
BRANCH   6   9
HETATM    9  C   UNL     1      -8.780  15.381  67.095  1.00  0.00    -0.220 C  
BRANCH   9  10
HETATM   10  C   UNL     1      -8.268  13.972  66.990  1.00  0.00    -0.078 A  
HETATM   11  C   UNL     1      -8.989  12.994  66.313  1.00  0.00     0.080 A  
HETATM   12  C   UNL     1      -8.485  11.703  66.257  1.00  0.00    -0.066 A  
HETATM   13  C   UNL     1      -7.272  11.402  66.881  1.00  0.00    -0.144 A  
HETATM   14  N   UNL     1      -6.548  12.344  67.520  1.00  0.00    -0.132 NA 
HETATM   15  C   UNL     1      -7.061  13.594  67.568  1.00  0.00    -0.152 A  
BRANCH  13  16
HETATM   16  N   UNL     1      -6.728  10.125  66.798  1.00  0.00    -0.075 NA 
HETATM   17  H   UNL     1      -5.746  10.026  67.056  1.00  0.00     0.000 HD 
BRANCH  16  18
HETATM   18  C   UNL     1      -7.390   8.975  66.398  1.00  0.00    -0.088 A  
HETATM   19  N   UNL     1      -7.457   8.734  65.081  1.00  0.00    -0.088 NA 
HETATM   20  C   UNL     1      -8.171   7.659  64.696  1.00  0.00    -0.063 A  
HETATM   21  C   UNL     1      -8.742   6.775  65.579  1.00  0.00    -0.032 A  
HETATM   22  F   UNL     1      -9.423   5.715  65.122  1.00  0.00    -0.041 F  
HETATM   23  C   UNL     1      -8.572   7.043  66.922  1.00  0.00    -0.120 A  
HETATM   24  N   UNL     1      -7.934   8.165  67.327  1.00  0.00    -0.112 NA 
BRANCH  23  25
HETATM   25  C   UNL     1      -9.009   6.141  68.013  1.00  0.00    -0.113 A  
HETATM   26  C   UNL     1      -8.700   4.768  67.972  1.00  0.00    -0.110 A  
HETATM   27  C   UNL     1      -9.068   3.906  69.003  1.00  0.00    -0.137 A  
HETATM   28  C   UNL     1      -9.761   4.394  70.116  1.00  0.00    -0.218 A  
HETATM   29  F   UNL     1      -8.745   2.607  68.906  1.00  0.00    -0.084 F  
HETATM   30  N   UNL     1     -10.219   3.740  71.221  1.00  0.00     0.025 NA 
HETATM   31  C   UNL     1     -10.817   4.640  71.970  1.00  0.00     0.085 A  
HETATM   32  N   UNL     1     -10.755   5.895  71.385  1.00  0.00    -0.251 NA 
HETATM   33  C   UNL     1     -11.471   4.289  73.257  1.00  0.00    -0.245 C  
HETATM   34  C   UNL     1      -9.700   6.642  69.149  1.00  0.00    -0.148 A  
HETATM   35  C   UNL     1     -10.071   5.752  70.182  1.00  0.00    -0.212 A  
BRANCH  32  36
HETATM   36  C   UNL     1     -11.349   7.152  71.846  1.00  0.00    -0.260 C  
HETATM   37  C   UNL     1     -10.993   7.584  73.274  1.00  0.00    -0.362 C  
HETATM   38  C   UNL     1     -12.868   7.145  71.664  1.00  0.00    -0.420 C  
ENDBRANCH  32  36
ENDBRANCH  23  25
ENDBRANCH  16  18
ENDBRANCH  13  16
ENDBRANCH   9  10
ENDBRANCH   6   9
ENDBRANCH   2   3
TORSDOF 7
ENDMDL
MODEL      165
REMARK 921   NORMALIZED FREE ENERGY PREDICTED BY IDOCK:   -3.24 KCAL/MOL
REMARK 922        TOTAL FREE ENERGY PREDICTED BY IDOCK:   -5.44 KCAL/MOL
REMARK 923 INTER-LIGAND FREE ENERGY PREDICTED BY IDOCK:   -5.00 KCAL/MOL
REMARK 924 INTRA-LIGAND FREE ENERGY PREDICTED BY IDOCK:   -0.44 KCAL/MOL
REMARK 927      BINDING AFFINITY PREDICTED BY RF-SCORE:    0.00 PKD
ROOT
HETATM    1  C   UNL     1     -13.155  14.588  70.380  1.00  0.00    -0.133 C  
HETATM    2  C   UNL     1     -11.794  14.903  69.769  1.00  0.00    -0.315 C  
ENDROOT
BRANCH   2   3
HETATM    3  N   UNL     1     -11.703  14.632  68.325  1.00  0.00    -0.328 NA 
HETATM    4  C   UNL     1     -10.353  14.988  67.825  1.00  0.00    -0.245 C  
HETATM    5  C   UNL     1      -9.249  13.954  68.159  1.00  0.00    -0.202 C  
HETATM    6  N   UNL     1      -9.566  12.563  67.759  1.00  0.00    -0.197 NA 
HETATM    7  C   UNL     1     -12.008  13.233  67.964  1.00  0.00    -0.313 C  
HETATM    8  C   UNL     1     -10.894  12.217  68.315  1.00  0.00    -0.225 C  
BRANCH   6   9
HETATM    9  C   UNL     1      -9.571  12.386  66.293  1.00  0.00    -0.241 C  
BRANCH   9  10
HETATM   10  C   UNL     1      -8.989  11.074  65.848  1.00  0.00    -0.208 A  
HETATM   11  C   UNL     1      -9.273  10.550  64.592  1.00  0.00    -0.274 A  
HETATM   12  C   UNL     1      -8.725   9.327  64.232  1.00  0.00    -0.204 A  
HETATM   13  C   UNL     1      -7.907   8.639  65.131  1.00  0.00    -0.110 A  
HETATM   14  N   UNL     1      -7.601   9.144  66.344  1.00  0.00    -0.092 NA 
HETATM   15  C   UNL     1      -8.151  10.334  66.677  1.00  0.00    -0.119 A  
BRANCH  13  16
HETATM   16  N   UNL     1      -7.313   7.435  64.772  1.00  0.00    -0.072 NA 
HETATM   17  H   UNL     1      -6.462   7.491  64.213  1.00  0.00     0.000 HD 
BRANCH  16  18
HETATM   18  C   UNL     1      -7.765   6.166  65.099  1.00  0.00    -0.097 A  
HETATM   19  N   UNL     1      -7.894   5.285  64.096  1.00  0.00    -0.094 NA 
HETATM   20  C   UNL     1      -8.410   4.081  64.408  1.00  0.00    -0.096 A  
HETATM   21  C   UNL     1      -8.719   3.700  65.692  1.00  0.00    -0.117 A  
HETATM   22  F   UNL     1      -9.212   2.478  65.928  1.00  0.00    -0.142 F  
HETATM   23  C   UNL     1      -8.494   4.631  66.685  1.00  0.00    -0.105 A  
HETATM   24  N   UNL     1      -8.058   5.875  66.381  1.00  0.00    -0.102 NA 
BRANCH  23  25
HETATM   25  C   UNL     1      -8.651   4.357  68.133  1.00  0.00    -0.105 A  
HETATM   26  C   UNL     1      -9.440   3.279  68.574  1.00  0.00    -0.206 A  
HETATM   27  C   UNL     1      -9.574   2.979  69.929  1.00  0.00    -0.054 A  
HETATM   28  C   UNL     1      -8.916   3.753  70.890  1.00  0.00    -0.092 A  
HETATM   29  F   UNL     1     -10.342   1.937  70.287  1.00  0.00     0.187 F  
HETATM   30  N   UNL     1      -8.911   3.647  72.250  1.00  0.00    -0.099 NA 
HETATM   31  C   UNL     1      -8.152   4.621  72.700  1.00  0.00    -0.100 A  
HETATM   32  N   UNL     1      -7.636   5.374  71.657  1.00  0.00    -0.101 NA 
HETATM   33  C   UNL     1      -7.928   4.842  74.152  1.00  0.00    -0.101 C  
HETATM   34  C   UNL     1      -7.970   5.137  69.106  1.00  0.00    -0.081 A  
HETATM   35  C   UNL     1      -8.122   4.822  70.475  1.00  0.00    -0.083 A  
BRANCH  32  36
HETATM   36  C   UNL     1      -6.808   6.580  71.719  1.00  0.00    -0.064 C  
HETATM   37  C   UNL     1      -6.887   7.515  70.505  1.00  0.00    -0.047 C  
HETATM   38  C   UNL     1      -5.350   6.236  72.023  1.00  0.00    -0.027 C  
ENDBRANCH  32  36
ENDBRANCH  23  25
ENDBRANCH  16  18
ENDBRANCH  13  16
ENDBRANCH   9  10
ENDBRANCH   6   9
ENDBRANCH   2   3
TORSDOF 7
ENDMDL
MODEL      166
REMARK 921   NORMALIZED FREE ENERGY PREDICTED BY IDOCK:   -3.23 KCAL/MOL
REMARK 922        TOTAL FREE ENERGY PREDICTED BY IDOCK:   -5.43 KCAL/MOL
REMARK 923 INTER-LIGAND FREE ENERGY PREDICTED BY IDOCK:   -6.32 KCAL/MOL
REMARK 924 INTRA-LIGAND FREE ENERGY PREDICTED BY IDOCK:    0.89 KCAL/MOL
REMARK 927      BINDING AFFINITY PREDICTED BY RF-SCORE:    0.00 PKD
ROOT
HETATM    1  C   UNL     1      -9.710  17.400  66.018  1.00  0.00    -0.172 C  
HETATM    2  C   UNL     1      -8.884  18.141  67.064  1.00  0.00    -0.262 C  
ENDROOT
BRANCH   2   3
HETATM    3  N   UNL     1      -8.923  17.535  68.405  1.00  0.00    -0.270 NA 
HETATM    4  C   UNL     1     -10.209  17.854  69.070  1.00  0.00    -0.273 C  
HETATM    5  C   UNL     1     -11.415  17.013  68.579  1.00  0.00     0.321 C  
HETATM    6  N   UNL     1     -11.198  15.548  68.614  1.00  0.00    -0.304 NA 
HETATM    7  C   UNL     1      -8.722  16.071  68.401  1.00  0.00    -0.186 C  
HETATM    8  C   UNL     1      -9.936  15.254  67.898  1.00  0.00    -0.228 C  
BRANCH   6   9
HETATM    9  C   UNL     1     -11.133  15.021  69.992  1.00  0.00    -0.263 C  
BRANCH   9  10
HETATM   10  C   UNL     1     -11.605  13.599  70.110  1.00  0.00    -0.208 A  
HETATM   11  C   UNL     1     -12.368  13.184  71.196  1.00  0.00    -0.295 A  
HETATM   12  C   UNL     1     -12.767  11.857  71.270  1.00  0.00    -0.401 A  
HETATM   13  C   UNL     1     -12.396  10.961  70.265  1.00  0.00    -0.330 A  
HETATM   14  N   UNL     1     -11.679  11.353  69.193  1.00  0.00    -0.313 NA 
HETATM   15  C   UNL     1     -11.294  12.649  69.143  1.00  0.00    -0.282 A  
BRANCH  13  16
HETATM   16  N   UNL     1     -12.824   9.639  70.299  1.00  0.00    -0.337 NA 
HETATM   17  H   UNL     1     -13.828   9.483  70.390  1.00  0.00     0.000 HD 
BRANCH  16  18
HETATM   18  C   UNL     1     -12.021   8.512  70.221  1.00  0.00     0.294 A  
HETATM   19  N   UNL     1     -12.152   7.598  71.194  1.00  0.00    -0.310 NA 
HETATM   20  C   UNL     1     -11.312   6.547  71.156  1.00  0.00    -0.314 A  
HETATM   21  C   UNL     1     -10.411   6.335  70.141  1.00  0.00    -0.205 A  
HETATM   22  F   UNL     1      -9.619   5.255  70.162  1.00  0.00    -0.178 F  
HETATM   23  C   UNL     1     -10.378   7.278  69.134  1.00  0.00    -0.205 A  
HETATM   24  N   UNL     1     -11.153   8.386  69.199  1.00  0.00     0.103 NA 
BRANCH  23  25
HETATM   25  C   UNL     1      -9.562   7.154  67.904  1.00  0.00    -0.145 A  
HETATM   26  C   UNL     1      -8.612   8.138  67.575  1.00  0.00    -0.129 A  
HETATM   27  C   UNL     1      -7.806   8.026  66.443  1.00  0.00    -0.097 A  
HETATM   28  C   UNL     1      -7.928   6.917  65.599  1.00  0.00    -0.120 A  
HETATM   29  F   UNL     1      -6.918   8.998  66.183  1.00  0.00    -0.079 F  
HETATM   30  N   UNL     1      -7.258   6.609  64.451  1.00  0.00    -0.064 NA 
HETATM   31  C   UNL     1      -7.747   5.466  64.026  1.00  0.00    -0.087 A  
HETATM   32  N   UNL     1      -8.730   4.995  64.882  1.00  0.00    -0.150 NA 
HETATM   33  C   UNL     1      -7.276   4.822  62.773  1.00  0.00    -0.039 C  
HETATM   34  C   UNL     1      -9.678   6.019  67.056  1.00  0.00    -0.159 A  
HETATM   35  C   UNL     1      -8.858   5.925  65.910  1.00  0.00    -0.149 A  
BRANCH  32  36
HETATM   36  C   UNL     1      -9.572   3.804  64.745  1.00  0.00    -0.174 C  
HETATM   37  C   UNL     1      -8.950   2.481  65.209  1.00  0.00    -0.134 C  
HETATM   38  C   UNL     1     -10.103   3.663  63.318  1.00  0.00    -0.177 C  
ENDBRANCH  32  36
ENDBRANCH  23  25
ENDBRANCH  16  18
ENDBRANCH  13  16
ENDBRANCH   9  10
ENDBRANCH   6   9
ENDBRANCH   2   3
TORSDOF 7
ENDMDL
MODEL      167
REMARK 921   NORMALIZED FREE ENERGY PREDICTED BY IDOCK:   -3.07 KCAL/MOL
REMARK 922        TOTAL FREE ENERGY PREDICTED BY IDOCK:   -5.20 KCAL/MOL
REMARK 923 INTER-LIGAND FREE ENERGY PREDICTED BY IDOCK:   -6.83 KCAL/MOL
REMARK 924 INTRA-LIGAND FREE ENERGY PREDICTED BY IDOCK:    1.63 KCAL/MOL
REMARK 927      BINDING AFFINITY PREDICTED BY RF-SCORE:    0.00 PKD
ROOT
HETATM    1  C   UNL     1     -12.533  15.205  70.744  1.00  0.00    -0.429 C  
HETATM    2  C   UNL     1     -11.302  16.103  70.681  1.00  0.00    -0.370 C  
ENDROOT
BRANCH   2   3
HETATM    3  N   UNL     1     -10.237  15.607  69.794  1.00  0.00    -0.289 NA 
HETATM    4  C   UNL     1     -10.729  14.454  69.003  1.00  0.00    -0.250 C  
HETATM    5  C   UNL     1     -11.641  14.833  67.809  1.00  0.00    -0.357 C  
HETATM    6  N   UNL     1     -11.066  15.844  66.892  1.00  0.00    -0.163 NA 
HETATM    7  C   UNL     1      -9.699  16.636  68.881  1.00  0.00    -0.255 C  
HETATM    8  C   UNL     1     -10.632  17.005  67.702  1.00  0.00    -0.333 C  
BRANCH   6   9
HETATM    9  C   UNL     1      -9.927  15.316  66.114  1.00  0.00    -0.302 C  
BRANCH   9  10
HETATM   10  C   UNL     1      -9.693  13.846  66.321  1.00  0.00    -0.304 A  
HETATM   11  C   UNL     1      -8.568  13.386  66.998  1.00  0.00    -0.168 A  
HETATM   12  C   UNL     1      -8.386  12.019  67.149  1.00  0.00    -0.181 A  
HETATM   13  C   UNL     1      -9.323  11.129  66.620  1.00  0.00    -0.177 A  
HETATM   14  N   UNL     1     -10.432  11.559  65.984  1.00  0.00    -0.244 NA 
HETATM   15  C   UNL     1     -10.587  12.895  65.841  1.00  0.00    -0.269 A  
BRANCH  13  16
HETATM   16  N   UNL     1      -9.182   9.758  66.801  1.00  0.00    -0.146 NA 
HETATM   17  H   UNL     1      -9.735   9.154  66.192  1.00  0.00     0.000 HD 
BRANCH  16  18
HETATM   18  C   UNL     1      -8.363   9.131  67.727  1.00  0.00    -0.117 A  
HETATM   19  N   UNL     1      -7.282   9.807  68.145  1.00  0.00    -0.079 NA 
HETATM   20  C   UNL     1      -6.449   9.160  68.981  1.00  0.00    -0.047 A  
HETATM   21  C   UNL     1      -6.700   7.905  69.480  1.00  0.00    -0.042 A  
HETATM   22  F   UNL     1      -5.833   7.331  70.324  1.00  0.00    -0.023 F  
HETATM   23  C   UNL     1      -7.867   7.296  69.065  1.00  0.00    -0.118 A  
HETATM   24  N   UNL     1      -8.673   7.893  68.157  1.00  0.00    -0.126 NA 
BRANCH  23  25
HETATM   25  C   UNL     1      -8.362   6.002  69.589  1.00  0.00    -0.119 A  
HETATM   26  C   UNL     1      -7.949   4.790  69.005  1.00  0.00    -0.075 A  
HETATM   27  C   UNL     1      -8.372   3.558  69.502  1.00  0.00    -0.055 A  
HETATM   28  C   UNL     1      -9.226   3.501  70.609  1.00  0.00    -0.137 A  
HETATM   29  F   UNL     1      -7.943   2.437  68.902  1.00  0.00    -0.052 F  
HETATM   30  N   UNL     1      -9.763   2.423  71.249  1.00  0.00    -0.151 NA 
HETATM   31  C   UNL     1     -10.512   2.897  72.220  1.00  0.00     0.044 A  
HETATM   32  N   UNL     1     -10.474   4.282  72.247  1.00  0.00    -0.140 NA 
HETATM   33  C   UNL     1     -11.285   2.010  73.126  1.00  0.00    -0.212 C  
HETATM   34  C   UNL     1      -9.219   5.946  70.721  1.00  0.00    -0.167 A  
HETATM   35  C   UNL     1      -9.643   4.689  71.208  1.00  0.00    -0.172 A  
BRANCH  32  36
HETATM   36  C   UNL     1     -11.211   5.202  73.116  1.00  0.00    -0.330 C  
HETATM   37  C   UNL     1     -12.089   6.242  72.408  1.00  0.00    -0.186 C  
HETATM   38  C   UNL     1     -10.277   5.894  74.110  1.00  0.00    -0.291 C  
ENDBRANCH  32  36
ENDBRANCH  23  25
ENDBRANCH  16  18
ENDBRANCH  13  16
ENDBRANCH   9  10
ENDBRANCH   6   9
ENDBRANCH   2   3
TORSDOF 7
ENDMDL
MODEL      168
REMARK 921   NORMALIZED FREE ENERGY PREDICTED BY IDOCK:   -3.07 KCAL/MOL
REMARK 922        TOTAL FREE ENERGY PREDICTED BY IDOCK:   -5.20 KCAL/MOL
REMARK 923 INTER-LIGAND FREE ENERGY PREDICTED BY IDOCK:   -4.23 KCAL/MOL
REMARK 924 INTRA-LIGAND FREE ENERGY PREDICTED BY IDOCK:   -0.97 KCAL/MOL
REMARK 927      BINDING AFFINITY PREDICTED BY RF-SCORE:    0.00 PKD
ROOT
HETATM    1  C   UNL     1     -11.714  12.058  63.054  1.00  0.00    -0.076 C  
HETATM    2  C   UNL     1     -12.366  13.430  63.179  1.00  0.00    -0.003 C  
ENDROOT
BRANCH   2   3
HETATM    3  N   UNL     1     -12.457  13.932  64.560  1.00  0.00    -0.636 NA 
HETATM    4  C   UNL     1     -11.200  13.643  65.291  1.00  0.00    -0.299 C  
HETATM    5  C   UNL     1     -10.023  14.591  64.950  1.00  0.00    -0.073 C  
HETATM    6  N   UNL     1     -10.338  16.033  65.076  1.00  0.00    -0.547 NA 
HETATM    7  C   UNL     1     -12.754  15.377  64.648  1.00  0.00     0.451 C  
HETATM    8  C   UNL     1     -11.566  16.303  64.294  1.00  0.00     0.034 C  
BRANCH   6   9
HETATM    9  C   UNL     1     -10.531  16.448  66.480  1.00  0.00    -0.282 C  
BRANCH   9  10
HETATM   10  C   UNL     1      -9.376  16.090  67.372  1.00  0.00    -0.220 A  
HETATM   11  C   UNL     1      -9.583  15.672  68.682  1.00  0.00    -0.202 A  
HETATM   12  C   UNL     1      -8.484  15.369  69.473  1.00  0.00    -0.213 A  
HETATM   13  C   UNL     1      -7.195  15.493  68.951  1.00  0.00    -0.142 A  
HETATM   14  N   UNL     1      -6.978  15.872  67.676  1.00  0.00    -0.146 NA 
HETATM   15  C   UNL     1      -8.062  16.170  66.923  1.00  0.00    -0.240 A  
BRANCH  13  16
HETATM   16  N   UNL     1      -6.084  15.150  69.714  1.00  0.00    -0.130 NA 
HETATM   17  H   UNL     1      -5.346  15.850  69.791  1.00  0.00     0.000 HD 
BRANCH  16  18
HETATM   18  C   UNL     1      -5.882  13.952  70.380  1.00  0.00    -0.161 A  
HETATM   19  N   UNL     1      -5.471  14.022  71.655  1.00  0.00    -0.211 NA 
HETATM   20  C   UNL     1      -5.198  12.855  72.269  1.00  0.00     0.116 A  
HETATM   21  C   UNL     1      -5.403  11.628  71.687  1.00  0.00     0.179 A  
HETATM   22  F   UNL     1      -5.126  10.508  72.367  1.00  0.00    -0.091 F  
HETATM   23  C   UNL     1      -5.896  11.627  70.399  1.00  0.00    -0.156 A  
HETATM   24  N   UNL     1      -6.093  12.790  69.734  1.00  0.00    -0.131 NA 
BRANCH  23  25
HETATM   25  C   UNL     1      -6.293  10.406  69.659  1.00  0.00    -0.068 A  
HETATM   26  C   UNL     1      -6.437   9.179  70.332  1.00  0.00    -0.051 A  
HETATM   27  C   UNL     1      -6.844   8.024  69.667  1.00  0.00    -0.042 A  
HETATM   28  C   UNL     1      -7.123   8.063  68.296  1.00  0.00    -0.088 A  
HETATM   29  F   UNL     1      -6.964   6.884  70.364  1.00  0.00    -0.056 F  
HETATM   30  N   UNL     1      -7.523   7.068  67.453  1.00  0.00    -0.095 NA 
HETATM   31  C   UNL     1      -7.635   7.609  66.260  1.00  0.00    -0.088 A  
HETATM   32  N   UNL     1      -7.327   8.960  66.295  1.00  0.00    -0.086 NA 
HETATM   33  C   UNL     1      -8.030   6.817  65.067  1.00  0.00    -0.125 C  
HETATM   34  C   UNL     1      -6.588  10.451  68.270  1.00  0.00    -0.060 A  
HETATM   35  C   UNL     1      -6.994   9.270  67.610  1.00  0.00    -0.078 A  
BRANCH  32  36
HETATM   36  C   UNL     1      -7.259   9.913  65.185  1.00  0.00    -0.133 C  
HETATM   37  C   UNL     1      -5.951  10.704  65.054  1.00  0.00    -0.048 C  
HETATM   38  C   UNL     1      -8.452  10.870  65.203  1.00  0.00    -0.038 C  
ENDBRANCH  32  36
ENDBRANCH  23  25
ENDBRANCH  16  18
ENDBRANCH  13  16
ENDBRANCH   9  10
ENDBRANCH   6   9
ENDBRANCH   2   3
TORSDOF 7
ENDMDL
MODEL      169
REMARK 921   NORMALIZED FREE ENERGY PREDICTED BY IDOCK:   -3.01 KCAL/MOL
REMARK 922        TOTAL FREE ENERGY PREDICTED BY IDOCK:   -5.12 KCAL/MOL
REMARK 923 INTER-LIGAND FREE ENERGY PREDICTED BY IDOCK:   -4.99 KCAL/MOL
REMARK 924 INTRA-LIGAND FREE ENERGY PREDICTED BY IDOCK:   -0.13 KCAL/MOL
REMARK 927      BINDING AFFINITY PREDICTED BY RF-SCORE:    0.00 PKD
ROOT
HETATM    1  C   UNL     1      -8.986   1.524  67.092  1.00  0.00    -0.137 C  
HETATM    2  C   UNL     1      -9.012   3.030  66.860  1.00  0.00    -0.161 C  
ENDROOT
BRANCH   2   3
HETATM    3  N   UNL     1      -7.786   3.569  66.247  1.00  0.00    -0.088 NA 
HETATM    4  C   UNL     1      -7.648   3.065  64.860  1.00  0.00    -0.076 C  
HETATM    5  C   UNL     1      -8.559   3.771  63.824  1.00  0.00    -0.093 C  
HETATM    6  N   UNL     1      -8.456   5.249  63.819  1.00  0.00    -0.125 NA 
HETATM    7  C   UNL     1      -7.725   5.045  66.243  1.00  0.00    -0.092 C  
HETATM    8  C   UNL     1      -8.650   5.727  65.206  1.00  0.00    -0.129 C  
BRANCH   6   9
HETATM    9  C   UNL     1      -7.157   5.721  63.299  1.00  0.00    -0.046 C  
BRANCH   9  10
HETATM   10  C   UNL     1      -6.762   7.075  63.818  1.00  0.00    -0.044 A  
HETATM   11  C   UNL     1      -5.553   7.267  64.478  1.00  0.00    -0.033 A  
HETATM   12  C   UNL     1      -5.240   8.531  64.955  1.00  0.00    -0.035 A  
HETATM   13  C   UNL     1      -6.138   9.586  64.774  1.00  0.00    -0.079 A  
HETATM   14  N   UNL     1      -7.302   9.423  64.114  1.00  0.00    -0.102 NA 
HETATM   15  C   UNL     1      -7.592   8.181  63.663  1.00  0.00    -0.132 A  
BRANCH  13  16
HETATM   16  N   UNL     1      -5.822  10.870  65.204  1.00  0.00    -0.356 NA 
HETATM   17  H   UNL     1      -5.366  11.482  64.528  1.00  0.00     0.000 HD 
BRANCH  16  18
HETATM   18  C   UNL     1      -6.065  11.398  66.462  1.00  0.00    -0.121 A  
HETATM   19  N   UNL     1      -5.497  12.578  66.751  1.00  0.00    -0.234 NA 
HETATM   20  C   UNL     1      -5.671  13.045  68.001  1.00  0.00    -0.107 A  
HETATM   21  C   UNL     1      -6.457  12.422  68.940  1.00  0.00    -0.090 A  
HETATM   22  F   UNL     1      -6.598  12.956  70.160  1.00  0.00    -0.058 F  
HETATM   23  C   UNL     1      -7.071  11.248  68.553  1.00  0.00    -0.083 A  
HETATM   24  N   UNL     1      -6.838  10.717  67.330  1.00  0.00    -0.078 NA 
BRANCH  23  25
HETATM   25  C   UNL     1      -8.047  10.506  69.384  1.00  0.00    -0.136 A  
HETATM   26  C   UNL     1      -7.632   9.415  70.170  1.00  0.00    -0.132 A  
HETATM   27  C   UNL     1      -8.523   8.723  70.988  1.00  0.00    -0.179 A  
HETATM   28  C   UNL     1      -9.867   9.106  71.047  1.00  0.00    -0.296 A  
HETATM   29  F   UNL     1      -8.066   7.690  71.714  1.00  0.00    -0.094 F  
HETATM   30  N   UNL     1     -10.901   8.576  71.762  1.00  0.00    -0.279 NA 
HETATM   31  C   UNL     1     -11.968   9.283  71.460  1.00  0.00    -0.368 A  
HETATM   32  N   UNL     1     -11.660  10.290  70.560  1.00  0.00    -0.314 NA 
HETATM   33  C   UNL     1     -13.304   8.979  72.033  1.00  0.00    -0.494 C  
HETATM   34  C   UNL     1      -9.409  10.905  69.452  1.00  0.00     0.062 A  
HETATM   35  C   UNL     1     -10.300  10.189  70.282  1.00  0.00    -0.174 A  
BRANCH  32  36
HETATM   36  C   UNL     1     -12.559  11.251  69.916  1.00  0.00    -0.064 C  
HETATM   37  C   UNL     1     -11.972  12.041  68.740  1.00  0.00    -0.299 C  
HETATM   38  C   UNL     1     -13.170  12.208  70.940  1.00  0.00     0.277 C  
ENDBRANCH  32  36
ENDBRANCH  23  25
ENDBRANCH  16  18
ENDBRANCH  13  16
ENDBRANCH   9  10
ENDBRANCH   6   9
ENDBRANCH   2   3
TORSDOF 7
ENDMDL
MODEL      170
REMARK 921   NORMALIZED FREE ENERGY PREDICTED BY IDOCK:   -2.91 KCAL/MOL
REMARK 922        TOTAL FREE ENERGY PREDICTED BY IDOCK:   -4.97 KCAL/MOL
REMARK 923 INTER-LIGAND FREE ENERGY PREDICTED BY IDOCK:   -4.81 KCAL/MOL
REMARK 924 INTRA-LIGAND FREE ENERGY PREDICTED BY IDOCK:   -0.17 KCAL/MOL
REMARK 927      BINDING AFFINITY PREDICTED BY RF-SCORE:    0.00 PKD
ROOT
HETATM    1  C   UNL     1     -11.097  20.256  66.416  1.00  0.00     0.564 C  
HETATM    2  C   UNL     1     -11.005  18.756  66.162  1.00  0.00     0.122 C  
ENDROOT
BRANCH   2   3
HETATM    3  N   UNL     1      -9.813  18.116  66.742  1.00  0.00    -0.319 NA 
HETATM    4  C   UNL     1     -10.161  17.465  68.028  1.00  0.00    -0.345 C  
HETATM    5  C   UNL     1     -10.904  16.112  67.886  1.00  0.00    -0.332 C  
HETATM    6  N   UNL     1     -10.228  15.129  67.008  1.00  0.00    -0.258 NA 
HETATM    7  C   UNL     1      -9.176  17.128  65.848  1.00  0.00    -0.004 C  
HETATM    8  C   UNL     1      -9.940  15.789  65.715  1.00  0.00    -0.358 C  
BRANCH   6   9
HETATM    9  C   UNL     1      -8.978  14.611  67.600  1.00  0.00    -0.187 C  
BRANCH   9  10
HETATM   10  C   UNL     1      -9.055  13.160  67.982  1.00  0.00    -0.207 A  
HETATM   11  C   UNL     1     -10.216  12.423  67.777  1.00  0.00    -0.212 A  
HETATM   12  C   UNL     1     -10.245  11.090  68.161  1.00  0.00    -0.201 A  
HETATM   13  C   UNL     1      -9.119  10.511  68.752  1.00  0.00    -0.166 A  
HETATM   14  N   UNL     1      -7.977  11.204  68.935  1.00  0.00    -0.142 NA 
HETATM   15  C   UNL     1      -7.972  12.504  68.559  1.00  0.00    -0.097 A  
BRANCH  13  16
HETATM   16  N   UNL     1      -9.114   9.166  69.102  1.00  0.00    -0.142 NA 
HETATM   17  H   UNL     1      -8.336   8.603  68.756  1.00  0.00     0.000 HD 
BRANCH  16  18
HETATM   18  C   UNL     1     -10.062   8.514  69.875  1.00  0.00    -0.195 A  
HETATM   19  N   UNL     1     -11.325   8.959  69.800  1.00  0.00    -0.010 NA 
HETATM   20  C   UNL     1     -12.224   8.375  70.614  1.00  0.00     0.109 A  
HETATM   21  C   UNL     1     -11.925   7.312  71.432  1.00  0.00    -0.320 A  
HETATM   22  F   UNL     1     -12.878   6.770  72.202  1.00  0.00    -0.327 F  
HETATM   23  C   UNL     1     -10.623   6.857  71.407  1.00  0.00    -0.219 A  
HETATM   24  N   UNL     1      -9.685   7.487  70.661  1.00  0.00    -0.175 NA 
BRANCH  23  25
HETATM   25  C   UNL     1     -10.148   5.652  72.125  1.00  0.00    -0.227 A  
HETATM   26  C   UNL     1     -11.067   4.715  72.634  1.00  0.00    -0.145 A  
HETATM   27  C   UNL     1     -10.645   3.555  73.280  1.00  0.00    -0.187 A  
HETATM   28  C   UNL     1      -9.279   3.294  73.438  1.00  0.00    -0.092 A  
HETATM   29  F   UNL     1     -11.570   2.700  73.744  1.00  0.00    -0.302 F  
HETATM   30  N   UNL     1      -8.650   2.241  74.036  1.00  0.00    -0.062 NA 
HETATM   31  C   UNL     1      -7.359   2.469  73.935  1.00  0.00    -0.037 A  
HETATM   32  N   UNL     1      -7.114   3.658  73.266  1.00  0.00    -0.052 NA 
HETATM   33  C   UNL     1      -6.347   1.542  74.501  1.00  0.00    -0.005 C  
HETATM   34  C   UNL     1      -8.761   5.382  72.272  1.00  0.00    -0.129 A  
HETATM   35  C   UNL     1      -8.350   4.204  72.935  1.00  0.00    -0.093 A  
BRANCH  32  36
HETATM   36  C   UNL     1      -5.831   4.314  73.002  1.00  0.00    -0.012 C  
HETATM   37  C   UNL     1      -5.714   5.774  73.457  1.00  0.00    -0.036 C  
HETATM   38  C   UNL     1      -5.438   4.189  71.529  1.00  0.00    -0.007 C  
ENDBRANCH  32  36
ENDBRANCH  23  25
ENDBRANCH  16  18
ENDBRANCH  13  16
ENDBRANCH   9  10
ENDBRANCH   6   9
ENDBRANCH   2   3
TORSDOF 7
ENDMDL
MODEL      171
REMARK 921   NORMALIZED FREE ENERGY PREDICTED BY IDOCK:   -2.66 KCAL/MOL
REMARK 922        TOTAL FREE ENERGY PREDICTED BY IDOCK:   -4.63 KCAL/MOL
REMARK 923 INTER-LIGAND FREE ENERGY PREDICTED BY IDOCK:   -5.53 KCAL/MOL
REMARK 924 INTRA-LIGAND FREE ENERGY PREDICTED BY IDOCK:    0.90 KCAL/MOL
REMARK 927      BINDING AFFINITY PREDICTED BY RF-SCORE:    0.00 PKD
ROOT
HETATM    1  C   UNL     1     -10.576   5.809  71.756  1.00  0.00    -0.293 C  
HETATM    2  C   UNL     1     -11.540   6.429  70.752  1.00  0.00    -0.338 C  
ENDROOT
BRANCH   2   3
HETATM    3  N   UNL     1     -10.950   6.690  69.428  1.00  0.00    -0.290 NA 
HETATM    4  C   UNL     1     -10.550   8.113  69.321  1.00  0.00    -0.182 C  
HETATM    5  C   UNL     1      -9.233   8.470  70.056  1.00  0.00    -0.155 C  
HETATM    6  N   UNL     1      -8.079   7.611  69.702  1.00  0.00    -0.124 NA 
HETATM    7  C   UNL     1      -9.791   5.829  69.116  1.00  0.00    -0.162 C  
HETATM    8  C   UNL     1      -8.490   6.199  69.869  1.00  0.00    -0.129 C  
BRANCH   6   9
HETATM    9  C   UNL     1      -7.607   7.841  68.322  1.00  0.00    -0.109 C  
BRANCH   9  10
HETATM   10  C   UNL     1      -7.069   9.226  68.097  1.00  0.00    -0.077 A  
HETATM   11  C   UNL     1      -7.913  10.330  68.072  1.00  0.00    -0.101 A  
HETATM   12  C   UNL     1      -7.371  11.587  67.845  1.00  0.00    -0.094 A  
HETATM   13  C   UNL     1      -5.997  11.726  67.639  1.00  0.00    -0.072 A  
HETATM   14  N   UNL     1      -5.161  10.669  67.685  1.00  0.00    -0.036 NA 
HETATM   15  C   UNL     1      -5.710   9.452  67.901  1.00  0.00    -0.041 A  
BRANCH  13  16
HETATM   16  N   UNL     1      -5.430  12.982  67.455  1.00  0.00    -0.336 NA 
HETATM   17  H   UNL     1      -4.443  13.008  67.199  1.00  0.00     0.000 HD 
BRANCH  16  18
HETATM   18  C   UNL     1      -6.074  14.202  67.585  1.00  0.00    -0.058 A  
HETATM   19  N   UNL     1      -5.382  15.299  67.246  1.00  0.00    -0.295 NA 
HETATM   20  C   UNL     1      -5.985  16.485  67.452  1.00  0.00    -0.158 A  
HETATM   21  C   UNL     1      -7.278  16.609  67.901  1.00  0.00    -0.140 A  
HETATM   22  F   UNL     1      -7.818  17.823  68.065  1.00  0.00    -0.215 F  
HETATM   23  C   UNL     1      -7.958  15.437  68.162  1.00  0.00    -0.131 A  
HETATM   24  N   UNL     1      -7.340  14.238  68.045  1.00  0.00    -0.125 NA 
BRANCH  23  25
HETATM   25  C   UNL     1      -9.390  15.371  68.534  1.00  0.00    -0.198 A  
HETATM   26  C   UNL     1     -10.375  15.172  67.548  1.00  0.00    -0.242 A  
HETATM   27  C   UNL     1     -11.726  15.070  67.876  1.00  0.00    -0.289 A  
HETATM   28  C   UNL     1     -12.135  15.162  69.211  1.00  0.00    -0.244 A  
HETATM   29  F   UNL     1     -12.618  14.880  66.891  1.00  0.00    -0.104 F  
HETATM   30  N   UNL     1     -13.386  15.099  69.752  1.00  0.00     0.557 NA 
HETATM   31  C   UNL     1     -13.242  15.255  71.049  1.00  0.00    -0.484 A  
HETATM   32  N   UNL     1     -11.908  15.411  71.387  1.00  0.00    -0.344 NA 
HETATM   33  C   UNL     1     -14.403  15.269  71.976  1.00  0.00    -0.689 C  
HETATM   34  C   UNL     1      -9.802  15.452  69.891  1.00  0.00    -0.191 A  
HETATM   35  C   UNL     1     -11.176  15.352  70.205  1.00  0.00    -0.302 A  
BRANCH  32  36
HETATM   36  C   UNL     1     -11.320  15.679  72.702  1.00  0.00    -0.070 C  
HETATM   37  C   UNL     1     -11.740  14.734  73.834  1.00  0.00     0.085 C  
HETATM   38  C   UNL     1     -11.543  17.133  73.121  1.00  0.00     0.648 C  
ENDBRANCH  32  36
ENDBRANCH  23  25
ENDBRANCH  16  18
ENDBRANCH  13  16
ENDBRANCH   9  10
ENDBRANCH   6   9
ENDBRANCH   2   3
TORSDOF 7
ENDMDL
MODEL      172
REMARK 921   NORMALIZED FREE ENERGY PREDICTED BY IDOCK:   -2.40 KCAL/MOL
REMARK 922        TOTAL FREE ENERGY PREDICTED BY IDOCK:   -4.25 KCAL/MOL
REMARK 923 INTER-LIGAND FREE ENERGY PREDICTED BY IDOCK:   -4.09 KCAL/MOL
REMARK 924 INTRA-LIGAND FREE ENERGY PREDICTED BY IDOCK:   -0.16 KCAL/MOL
REMARK 927      BINDING AFFINITY PREDICTED BY RF-SCORE:    0.00 PKD
ROOT
HETATM    1  C   UNL     1     -10.716   2.300  63.105  1.00  0.00    -0.214 C  
HETATM    2  C   UNL     1      -9.344   2.560  63.717  1.00  0.00    -0.111 C  
ENDROOT
BRANCH   2   3
HETATM    3  N   UNL     1      -9.332   2.580  65.189  1.00  0.00    -0.122 NA 
HETATM    4  C   UNL     1      -7.956   2.349  65.689  1.00  0.00    -0.082 C  
HETATM    5  C   UNL     1      -7.021   3.581  65.595  1.00  0.00    -0.058 C  
HETATM    6  N   UNL     1      -7.563   4.814  66.212  1.00  0.00    -0.090 NA 
HETATM    7  C   UNL     1      -9.863   3.831  65.769  1.00  0.00    -0.088 C  
HETATM    8  C   UNL     1      -8.915   5.049  65.655  1.00  0.00    -0.149 C  
BRANCH   6   9
HETATM    9  C   UNL     1      -7.632   4.725  67.684  1.00  0.00    -0.079 C  
BRANCH   9  10
HETATM   10  C   UNL     1      -7.588   6.063  68.366  1.00  0.00    -0.091 A  
HETATM   11  C   UNL     1      -6.411   6.802  68.425  1.00  0.00    -0.042 A  
HETATM   12  C   UNL     1      -6.416   8.025  69.080  1.00  0.00    -0.040 A  
HETATM   13  C   UNL     1      -7.591   8.492  69.673  1.00  0.00    -0.088 A  
HETATM   14  N   UNL     1      -8.746   7.801  69.604  1.00  0.00    -0.135 NA 
HETATM   15  C   UNL     1      -8.718   6.608  68.967  1.00  0.00    -0.129 A  
BRANCH  13  16
HETATM   16  N   UNL     1      -7.626   9.735  70.295  1.00  0.00    -0.167 NA 
HETATM   17  H   UNL     1      -8.100   9.785  71.197  1.00  0.00     0.000 HD 
BRANCH  16  18
HETATM   18  C   UNL     1      -7.081  10.913  69.809  1.00  0.00    -0.088 A  
HETATM   19  N   UNL     1      -5.748  11.042  69.872  1.00  0.00    -0.061 NA 
HETATM   20  C   UNL     1      -5.232  12.221  69.474  1.00  0.00    -0.068 A  
HETATM   21  C   UNL     1      -5.989  13.235  68.939  1.00  0.00    -0.079 A  
HETATM   22  F   UNL     1      -5.404  14.374  68.547  1.00  0.00    -0.079 F  
HETATM   23  C   UNL     1      -7.346  13.008  68.836  1.00  0.00    -0.017 A  
HETATM   24  N   UNL     1      -7.894  11.865  69.311  1.00  0.00     0.217 NA 
BRANCH  23  25
HETATM   25  C   UNL     1      -8.297  13.932  68.175  1.00  0.00    -0.163 A  
HETATM   26  C   UNL     1      -8.505  15.227  68.685  1.00  0.00    -0.168 A  
HETATM   27  C   UNL     1      -9.366  16.128  68.061  1.00  0.00    -0.203 A  
HETATM   28  C   UNL     1     -10.051  15.758  66.898  1.00  0.00    -0.266 A  
HETATM   29  F   UNL     1      -9.522  17.350  68.595  1.00  0.00    -0.253 F  
HETATM   30  N   UNL     1     -10.935  16.464  66.137  1.00  0.00    -0.044 NA 
HETATM   31  C   UNL     1     -11.309  15.669  65.160  1.00  0.00    -0.198 A  
HETATM   32  N   UNL     1     -10.676  14.439  65.248  1.00  0.00    -0.349 NA 
HETATM   33  C   UNL     1     -12.298  16.089  64.134  1.00  0.00     0.566 C  
HETATM   34  C   UNL     1      -8.981  13.558  66.987  1.00  0.00    -0.237 A  
HETATM   35  C   UNL     1      -9.855  14.482  66.371  1.00  0.00    -0.290 A  
BRANCH  32  36
HETATM   36  C   UNL     1     -10.858  13.252  64.410  1.00  0.00    -0.403 C  
HETATM   37  C   UNL     1     -11.697  13.443  63.141  1.00  0.00     0.147 C  
HETATM   38  C   UNL     1     -11.399  12.077  65.226  1.00  0.00    -0.366 C  
ENDBRANCH  32  36
ENDBRANCH  23  25
ENDBRANCH  16  18
ENDBRANCH  13  16
ENDBRANCH   9  10
ENDBRANCH   6   9
ENDBRANCH   2   3
TORSDOF 7
ENDMDL
MODEL      173
REMARK 921   NORMALIZED FREE ENERGY PREDICTED BY IDOCK:   -2.16 KCAL/MOL
REMARK 922        TOTAL FREE ENERGY PREDICTED BY IDOCK:   -3.92 KCAL/MOL
REMARK 923 INTER-LIGAND FREE ENERGY PREDICTED BY IDOCK:   -4.00 KCAL/MOL
REMARK 924 INTRA-LIGAND FREE ENERGY PREDICTED BY IDOCK:    0.08 KCAL/MOL
REMARK 927      BINDING AFFINITY PREDICTED BY RF-SCORE:    0.00 PKD
ROOT
HETATM    1  C   UNL     1     -14.326   7.301  72.430  1.00  0.00    -0.024 C  
HETATM    2  C   UNL     1     -13.444   7.333  71.187  1.00  0.00    -0.160 C  
ENDROOT
BRANCH   2   3
HETATM    3  N   UNL     1     -12.013   7.114  71.455  1.00  0.00    -0.306 NA 
HETATM    4  C   UNL     1     -11.541   5.905  70.739  1.00  0.00     0.085 C  
HETATM    5  C   UNL     1     -11.297   6.107  69.223  1.00  0.00    -0.291 C  
HETATM    6  N   UNL     1     -10.413   7.248  68.888  1.00  0.00    -0.205 NA 
HETATM    7  C   UNL     1     -11.160   8.264  71.093  1.00  0.00    -0.250 C  
HETATM    8  C   UNL     1     -10.938   8.451  69.573  1.00  0.00    -0.040 C  
BRANCH   6   9
HETATM    9  C   UNL     1      -9.011   7.011  69.288  1.00  0.00    -0.138 C  
BRANCH   9  10
HETATM   10  C   UNL     1      -8.126   8.211  69.101  1.00  0.00    -0.121 A  
HETATM   11  C   UNL     1      -7.816   8.684  67.831  1.00  0.00    -0.103 A  
HETATM   12  C   UNL     1      -6.980   9.785  67.708  1.00  0.00    -0.086 A  
HETATM   13  C   UNL     1      -6.460  10.396  68.851  1.00  0.00    -0.052 A  
HETATM   14  N   UNL     1      -6.771   9.965  70.091  1.00  0.00    -0.096 NA 
HETATM   15  C   UNL     1      -7.581   8.886  70.188  1.00  0.00    -0.074 A  
BRANCH  13  16
HETATM   16  N   UNL     1      -5.658  11.527  68.750  1.00  0.00    -0.043 NA 
HETATM   17  H   UNL     1      -4.906  11.497  68.061  1.00  0.00     0.000 HD 
BRANCH  16  18
HETATM   18  C   UNL     1      -5.780  12.690  69.494  1.00  0.00    -0.097 A  
HETATM   19  N   UNL     1      -5.130  12.738  70.665  1.00  0.00    -0.106 NA 
HETATM   20  C   UNL     1      -5.318  13.838  71.419  1.00  0.00    -0.199 A  
HETATM   21  C   UNL     1      -6.060  14.919  71.008  1.00  0.00     0.107 A  
HETATM   22  F   UNL     1      -6.188  15.987  71.806  1.00  0.00     0.922 F  
HETATM   23  C   UNL     1      -6.643  14.832  69.761  1.00  0.00    -0.169 A  
HETATM   24  N   UNL     1      -6.537  13.701  69.026  1.00  0.00    -0.105 NA 
BRANCH  23  25
HETATM   25  C   UNL     1      -7.372  15.942  69.103  1.00  0.00    -0.198 A  
HETATM   26  C   UNL     1      -7.133  17.276  69.482  1.00  0.00     0.041 A  
HETATM   27  C   UNL     1      -7.779  18.340  68.854  1.00  0.00    -0.205 A  
HETATM   28  C   UNL     1      -8.689  18.099  67.819  1.00  0.00    -0.255 A  
HETATM   29  F   UNL     1      -7.509  19.591  69.260  1.00  0.00    -0.381 F  
HETATM   30  N   UNL     1      -9.429  18.974  67.080  1.00  0.00    -0.308 NA 
HETATM   31  C   UNL     1     -10.140  18.251  66.243  1.00  0.00    -0.380 A  
HETATM   32  N   UNL     1      -9.877  16.900  66.404  1.00  0.00    -0.289 NA 
HETATM   33  C   UNL     1     -11.097  18.864  65.286  1.00  0.00     0.819 C  
HETATM   34  C   UNL     1      -8.285  15.695  68.044  1.00  0.00    -0.146 A  
HETATM   35  C   UNL     1      -8.935  16.785  67.422  1.00  0.00    -0.204 A  
BRANCH  32  36
HETATM   36  C   UNL     1     -10.498  15.758  65.729  1.00  0.00    -0.367 C  
HETATM   37  C   UNL     1     -11.446  16.092  64.570  1.00  0.00    -0.233 C  
HETATM   38  C   UNL     1     -11.196  14.837  66.730  1.00  0.00    -0.344 C  
ENDBRANCH  32  36
ENDBRANCH  23  25
ENDBRANCH  16  18
ENDBRANCH  13  16
ENDBRANCH   9  10
ENDBRANCH   6   9
ENDBRANCH   2   3
TORSDOF 7
ENDMDL
MODEL      174
REMARK 921   NORMALIZED FREE ENERGY PREDICTED BY IDOCK:   -2.13 KCAL/MOL
REMARK 922        TOTAL FREE ENERGY PREDICTED BY IDOCK:   -3.88 KCAL/MOL
REMARK 923 INTER-LIGAND FREE ENERGY PREDICTED BY IDOCK:   -3.30 KCAL/MOL
REMARK 924 INTRA-LIGAND FREE ENERGY PREDICTED BY IDOCK:   -0.57 KCAL/MOL
REMARK 927      BINDING AFFINITY PREDICTED BY RF-SCORE:    0.00 PKD
ROOT
HETATM    1  C   UNL     1     -10.877  20.552  67.097  1.00  0.00     0.599 C  
HETATM    2  C   UNL     1     -10.127  19.403  67.762  1.00  0.00    -0.401 C  
ENDROOT
BRANCH   2   3
HETATM    3  N   UNL     1      -9.193  18.695  66.871  1.00  0.00    -0.295 NA 
HETATM    4  C   UNL     1      -7.818  18.758  67.423  1.00  0.00    -0.232 C  
HETATM    5  C   UNL     1      -7.549  17.782  68.596  1.00  0.00    -0.276 C  
HETATM    6  N   UNL     1      -7.897  16.370  68.314  1.00  0.00    -0.162 NA 
HETATM    7  C   UNL     1      -9.559  17.285  66.626  1.00  0.00    -0.276 C  
HETATM    8  C   UNL     1      -9.290  16.332  67.815  1.00  0.00    -0.216 C  
BRANCH   6   9
HETATM    9  C   UNL     1      -6.989  15.753  67.326  1.00  0.00    -0.197 C  
BRANCH   9  10
HETATM   10  C   UNL     1      -6.683  14.310  67.616  1.00  0.00    -0.188 A  
HETATM   11  C   UNL     1      -7.591  13.305  67.299  1.00  0.00    -0.079 A  
HETATM   12  C   UNL     1      -7.271  11.990  67.601  1.00  0.00    -0.117 A  
HETATM   13  C   UNL     1      -6.055  11.693  68.220  1.00  0.00    -0.049 A  
HETATM   14  N   UNL     1      -5.153  12.652  68.511  1.00  0.00    -0.057 NA 
HETATM   15  C   UNL     1      -5.487  13.929  68.215  1.00  0.00    -0.111 A  
BRANCH  13  16
HETATM   16  N   UNL     1      -5.697  10.377  68.489  1.00  0.00    -0.037 NA 
HETATM   17  H   UNL     1      -5.260   9.854  67.730  1.00  0.00     0.000 HD 
BRANCH  16  18
HETATM   18  C   UNL     1      -5.877   9.705  69.688  1.00  0.00    -0.033 A  
HETATM   19  N   UNL     1      -5.630  10.389  70.815  1.00  0.00    -0.084 NA 
HETATM   20  C   UNL     1      -5.727   9.707  71.972  1.00  0.00     0.063 A  
HETATM   21  C   UNL     1      -6.143   8.399  72.047  1.00  0.00    -0.057 A  
HETATM   22  F   UNL     1      -6.233   7.790  73.237  1.00  0.00    -0.057 F  
HETATM   23  C   UNL     1      -6.450   7.777  70.854  1.00  0.00    -0.038 A  
HETATM   24  N   UNL     1      -6.274   8.418  69.675  1.00  0.00    -0.035 NA 
BRANCH  23  25
HETATM   25  C   UNL     1      -7.027   6.417  70.749  1.00  0.00    -0.068 A  
HETATM   26  C   UNL     1      -6.940   5.519  71.829  1.00  0.00    -0.075 A  
HETATM   27  C   UNL     1      -7.507   4.247  71.768  1.00  0.00    -0.069 A  
HETATM   28  C   UNL     1      -8.185   3.832  70.616  1.00  0.00    -0.057 A  
HETATM   29  F   UNL     1      -7.391   3.435  72.831  1.00  0.00    -0.044 F  
HETATM   30  N   UNL     1      -8.802   2.648  70.339  1.00  0.00    -0.075 NA 
HETATM   31  C   UNL     1      -9.277   2.749  69.117  1.00  0.00    -0.148 A  
HETATM   32  N   UNL     1      -8.998   3.993  68.575  1.00  0.00    -0.108 NA 
HETATM   33  C   UNL     1      -9.997   1.631  68.455  1.00  0.00     0.338 C  
HETATM   34  C   UNL     1      -7.727   6.004  69.583  1.00  0.00    -0.097 A  
HETATM   35  C   UNL     1      -8.291   4.709  69.537  1.00  0.00    -0.074 A  
BRANCH  32  36
HETATM   36  C   UNL     1      -9.283   4.491  67.228  1.00  0.00    -0.136 C  
HETATM   37  C   UNL     1      -8.064   4.833  66.362  1.00  0.00    -0.107 C  
HETATM   38  C   UNL     1     -10.247   5.678  67.269  1.00  0.00    -0.250 C  
ENDBRANCH  32  36
ENDBRANCH  23  25
ENDBRANCH  16  18
ENDBRANCH  13  16
ENDBRANCH   9  10
ENDBRANCH   6   9
ENDBRANCH   2   3
TORSDOF 7
ENDMDL
MODEL      175
REMARK 921   NORMALIZED FREE ENERGY PREDICTED BY IDOCK:   -1.95 KCAL/MOL
REMARK 922        TOTAL FREE ENERGY PREDICTED BY IDOCK:   -3.62 KCAL/MOL
REMARK 923 INTER-LIGAND FREE ENERGY PREDICTED BY IDOCK:   -4.14 KCAL/MOL
REMARK 924 INTRA-LIGAND FREE ENERGY PREDICTED BY IDOCK:    0.52 KCAL/MOL
REMARK 927      BINDING AFFINITY PREDICTED BY RF-SCORE:    0.00 PKD
ROOT
HETATM    1  C   UNL     1      -7.497   5.759  62.463  1.00  0.00    -0.056 C  
HETATM    2  C   UNL     1      -8.798   4.968  62.403  1.00  0.00    -0.105 C  
ENDROOT
BRANCH   2   3
HETATM    3  N   UNL     1      -9.203   4.372  63.687  1.00  0.00    -0.142 NA 
HETATM    4  C   UNL     1      -9.395   2.911  63.532  1.00  0.00    -0.097 C  
HETATM    5  C   UNL     1      -8.083   2.089  63.485  1.00  0.00    -0.072 C  
HETATM    6  N   UNL     1      -7.158   2.341  64.614  1.00  0.00    -0.051 NA 
HETATM    7  C   UNL     1      -8.249   4.628  64.786  1.00  0.00    -0.111 C  
HETATM    8  C   UNL     1      -6.942   3.803  64.713  1.00  0.00    -0.050 C  
BRANCH   6   9
HETATM    9  C   UNL     1      -7.676   1.819  65.895  1.00  0.00    -0.067 C  
BRANCH   9  10
HETATM   10  C   UNL     1      -7.434   2.741  67.057  1.00  0.00    -0.069 A  
HETATM   11  C   UNL     1      -6.144   3.095  67.436  1.00  0.00    -0.028 A  
HETATM   12  C   UNL     1      -5.971   3.936  68.527  1.00  0.00    -0.027 A  
HETATM   13  C   UNL     1      -7.083   4.406  69.228  1.00  0.00    -0.051 A  
HETATM   14  N   UNL     1      -8.341   4.092  68.857  1.00  0.00    -0.077 NA 
HETATM   15  C   UNL     1      -8.489   3.266  67.796  1.00  0.00    -0.088 A  
BRANCH  13  16
HETATM   16  N   UNL     1      -6.931   5.285  70.294  1.00  0.00    -0.054 NA 
HETATM   17  H   UNL     1      -6.844   4.871  71.222  1.00  0.00     0.000 HD 
BRANCH  16  18
HETATM   18  C   UNL     1      -6.887   6.668  70.220  1.00  0.00    -0.058 A  
HETATM   19  N   UNL     1      -6.153   7.307  71.142  1.00  0.00    -0.036 NA 
HETATM   20  C   UNL     1      -6.181   8.653  71.113  1.00  0.00    -0.046 A  
HETATM   21  C   UNL     1      -6.842   9.376  70.150  1.00  0.00    -0.071 A  
HETATM   22  F   UNL     1      -6.809  10.715  70.175  1.00  0.00    -0.132 F  
HETATM   23  C   UNL     1      -7.518   8.654  69.188  1.00  0.00    -0.083 A  
HETATM   24  N   UNL     1      -7.575   7.303  69.251  1.00  0.00    -0.099 NA 
BRANCH  23  25
HETATM   25  C   UNL     1      -8.182   9.255  68.008  1.00  0.00    -0.115 A  
HETATM   26  C   UNL     1      -8.544   8.457  66.908  1.00  0.00    -0.129 A  
HETATM   27  C   UNL     1      -9.202   8.992  65.802  1.00  0.00    -0.232 A  
HETATM   28  C   UNL     1      -9.521  10.353  65.763  1.00  0.00    -0.198 A  
HETATM   29  F   UNL     1      -9.521   8.178  64.783  1.00  0.00     0.365 F  
HETATM   30  N   UNL     1     -10.147  11.082  64.795  1.00  0.00    -0.283 NA 
HETATM   31  C   UNL     1     -10.195  12.321  65.229  1.00  0.00    -0.278 A  
HETATM   32  N   UNL     1      -9.620  12.432  66.485  1.00  0.00    -0.236 NA 
HETATM   33  C   UNL     1     -10.789  13.418  64.422  1.00  0.00    -0.422 C  
HETATM   34  C   UNL     1      -8.517  10.636  67.978  1.00  0.00    -0.119 A  
HETATM   35  C   UNL     1      -9.179  11.163  66.846  1.00  0.00    -0.169 A  
BRANCH  32  36
HETATM   36  C   UNL     1      -9.405  13.635  67.292  1.00  0.00    -0.233 C  
HETATM   37  C   UNL     1      -7.979  13.854  67.811  1.00  0.00    -0.174 C  
HETATM   38  C   UNL     1     -10.403  13.712  68.448  1.00  0.00    -0.248 C  
ENDBRANCH  32  36
ENDBRANCH  23  25
ENDBRANCH  16  18
ENDBRANCH  13  16
ENDBRANCH   9  10
ENDBRANCH   6   9
ENDBRANCH   2   3
TORSDOF 7
ENDMDL
MODEL      176
REMARK 921   NORMALIZED FREE ENERGY PREDICTED BY IDOCK:   -1.80 KCAL/MOL
REMARK 922        TOTAL FREE ENERGY PREDICTED BY IDOCK:   -3.41 KCAL/MOL
REMARK 923 INTER-LIGAND FREE ENERGY PREDICTED BY IDOCK:   -4.17 KCAL/MOL
REMARK 924 INTRA-LIGAND FREE ENERGY PREDICTED BY IDOCK:    0.76 KCAL/MOL
REMARK 927      BINDING AFFINITY PREDICTED BY RF-SCORE:    0.00 PKD
ROOT
HETATM    1  C   UNL     1     -12.150  12.100  67.768  1.00  0.00     0.003 C  
HETATM    2  C   UNL     1     -12.020  13.617  67.694  1.00  0.00    -0.351 C  
ENDROOT
BRANCH   2   3
HETATM    3  N   UNL     1     -10.668  14.123  67.982  1.00  0.00    -0.239 NA 
HETATM    4  C   UNL     1      -9.922  13.141  68.804  1.00  0.00    -0.028 C  
HETATM    5  C   UNL     1      -9.374  11.924  68.015  1.00  0.00    -0.193 C  
HETATM    6  N   UNL     1      -8.567  12.276  66.824  1.00  0.00    -0.180 NA 
HETATM    7  C   UNL     1      -9.886  14.447  66.772  1.00  0.00    -0.264 C  
HETATM    8  C   UNL     1      -9.357  13.216  65.996  1.00  0.00    -0.006 C  
BRANCH   6   9
HETATM    9  C   UNL     1      -7.270  12.885  67.181  1.00  0.00     0.029 C  
BRANCH   9  10
HETATM   10  C   UNL     1      -6.707  12.374  68.477  1.00  0.00    -0.077 A  
HETATM   11  C   UNL     1      -6.425  13.239  69.529  1.00  0.00    -0.078 A  
HETATM   12  C   UNL     1      -5.891  12.723  70.700  1.00  0.00    -0.095 A  
HETATM   13  C   UNL     1      -5.638  11.353  70.806  1.00  0.00    -0.111 A  
HETATM   14  N   UNL     1      -5.929  10.497  69.806  1.00  0.00    -0.050 NA 
HETATM   15  C   UNL     1      -6.443  11.022  68.670  1.00  0.00    -0.052 A  
BRANCH  13  16
HETATM   16  N   UNL     1      -5.145  10.811  71.988  1.00  0.00    -0.287 NA 
HETATM   17  H   UNL     1      -4.371  11.305  72.432  1.00  0.00     0.000 HD 
BRANCH  16  18
HETATM   18  C   UNL     1      -5.603   9.666  72.621  1.00  0.00     0.141 A  
HETATM   19  N   UNL     1      -5.393   9.572  73.942  1.00  0.00    -0.245 NA 
HETATM   20  C   UNL     1      -5.766   8.422  74.535  1.00  0.00    -0.107 A  
HETATM   21  C   UNL     1      -6.416   7.407  73.875  1.00  0.00    -0.076 A  
HETATM   22  F   UNL     1      -6.774   6.298  74.536  1.00  0.00    -0.078 F  
HETATM   23  C   UNL     1      -6.665   7.600  72.532  1.00  0.00    -0.063 A  
HETATM   24  N   UNL     1      -6.220   8.711  71.899  1.00  0.00    -0.067 NA 
BRANCH  23  25
HETATM   25  C   UNL     1      -7.458   6.674  71.690  1.00  0.00    -0.088 A  
HETATM   26  C   UNL     1      -8.350   5.759  72.280  1.00  0.00    -0.118 A  
HETATM   27  C   UNL     1      -9.134   4.903  71.509  1.00  0.00    -0.139 A  
HETATM   28  C   UNL     1      -9.049   4.936  70.113  1.00  0.00    -0.110 A  
HETATM   29  F   UNL     1      -9.966   4.052  72.131  1.00  0.00    -0.200 F  
HETATM   30  N   UNL     1      -9.707   4.196  69.175  1.00  0.00    -0.172 NA 
HETATM   31  C   UNL     1      -9.267   4.596  68.004  1.00  0.00    -0.127 A  
HETATM   32  N   UNL     1      -8.329   5.607  68.143  1.00  0.00    -0.100 NA 
HETATM   33  C   UNL     1      -9.741   3.992  66.732  1.00  0.00    -0.216 C  
HETATM   34  C   UNL     1      -7.380   6.720  70.272  1.00  0.00    -0.085 A  
HETATM   35  C   UNL     1      -8.178   5.840  69.506  1.00  0.00    -0.108 A  
BRANCH  32  36
HETATM   36  C   UNL     1      -7.545   6.280  67.104  1.00  0.00    -0.096 C  
HETATM   37  C   UNL     1      -6.021   6.171  67.232  1.00  0.00    -0.017 C  
HETATM   38  C   UNL     1      -7.956   7.746  66.964  1.00  0.00    -0.116 C  
ENDBRANCH  32  36
ENDBRANCH  23  25
ENDBRANCH  16  18
ENDBRANCH  13  16
ENDBRANCH   9  10
ENDBRANCH   6   9
ENDBRANCH   2   3
TORSDOF 7
ENDMDL
MODEL      177
REMARK 921   NORMALIZED FREE ENERGY PREDICTED BY IDOCK:   -1.67 KCAL/MOL
REMARK 922        TOTAL FREE ENERGY PREDICTED BY IDOCK:   -3.23 KCAL/MOL
REMARK 923 INTER-LIGAND FREE ENERGY PREDICTED BY IDOCK:   -6.93 KCAL/MOL
REMARK 924 INTRA-LIGAND FREE ENERGY PREDICTED BY IDOCK:    3.69 KCAL/MOL
REMARK 927      BINDING AFFINITY PREDICTED BY RF-SCORE:    0.00 PKD
ROOT
HETATM    1  C   UNL     1      -9.304   4.061  71.550  1.00  0.00    -0.207 C  
HETATM    2  C   UNL     1      -8.299   3.630  70.489  1.00  0.00    -0.057 C  
ENDROOT
BRANCH   2   3
HETATM    3  N   UNL     1      -8.169   4.567  69.361  1.00  0.00    -0.068 NA 
HETATM    4  C   UNL     1      -6.907   4.310  68.628  1.00  0.00    -0.047 C  
HETATM    5  C   UNL     1      -6.947   3.078  67.689  1.00  0.00    -0.049 C  
HETATM    6  N   UNL     1      -8.077   3.071  66.731  1.00  0.00    -0.080 NA 
HETATM    7  C   UNL     1      -9.304   4.520  68.417  1.00  0.00    -0.142 C  
HETATM    8  C   UNL     1      -9.328   3.277  67.496  1.00  0.00    -0.206 C  
BRANCH   6   9
HETATM    9  C   UNL     1      -7.943   4.112  65.692  1.00  0.00    -0.097 C  
BRANCH   9  10
HETATM   10  C   UNL     1      -8.320   5.485  66.171  1.00  0.00    -0.119 A  
HETATM   11  C   UNL     1      -7.348   6.421  66.508  1.00  0.00    -0.078 A  
HETATM   12  C   UNL     1      -7.746   7.671  66.961  1.00  0.00    -0.108 A  
HETATM   13  C   UNL     1      -9.105   7.969  67.079  1.00  0.00    -0.144 A  
HETATM   14  N   UNL     1     -10.060   7.082  66.733  1.00  0.00    -0.211 NA 
HETATM   15  C   UNL     1      -9.651   5.867  66.300  1.00  0.00    -0.119 A  
BRANCH  13  16
HETATM   16  N   UNL     1      -9.522   9.230  67.488  1.00  0.00    -0.130 NA 
HETATM   17  H   UNL     1      -9.683   9.360  68.487  1.00  0.00     0.000 HD 
BRANCH  16  18
HETATM   18  C   UNL     1      -9.740  10.329  66.671  1.00  0.00    -0.185 A  
HETATM   19  N   UNL     1      -9.876  10.098  65.357  1.00  0.00    -0.289 NA 
HETATM   20  C   UNL     1     -10.006  11.176  64.562  1.00  0.00    -0.296 A  
HETATM   21  C   UNL     1     -10.091  12.462  65.038  1.00  0.00    -0.247 A  
HETATM   22  F   UNL     1     -10.239  13.485  64.186  1.00  0.00    -0.446 F  
HETATM   23  C   UNL     1     -10.018  12.622  66.406  1.00  0.00    -0.255 A  
HETATM   24  N   UNL     1      -9.799  11.559  67.216  1.00  0.00    -0.189 NA 
BRANCH  23  25
HETATM   25  C   UNL     1     -10.213  13.913  67.105  1.00  0.00    -0.258 A  
HETATM   26  C   UNL     1     -11.316  14.104  67.958  1.00  0.00    -0.324 A  
HETATM   27  C   UNL     1     -11.503  15.296  68.655  1.00  0.00    -0.337 A  
HETATM   28  C   UNL     1     -10.583  16.342  68.520  1.00  0.00    -0.304 A  
HETATM   29  F   UNL     1     -12.575  15.418  69.454  1.00  0.00    -0.238 F  
HETATM   30  N   UNL     1     -10.571  17.580  69.093  1.00  0.00    -0.219 NA 
HETATM   31  C   UNL     1      -9.503  18.195  68.635  1.00  0.00    -0.316 A  
HETATM   32  N   UNL     1      -8.791  17.380  67.770  1.00  0.00    -0.229 NA 
HETATM   33  C   UNL     1      -9.169  19.590  69.021  1.00  0.00    -0.298 C  
HETATM   34  C   UNL     1      -9.271  14.969  66.977  1.00  0.00    -0.246 A  
HETATM   35  C   UNL     1      -9.478  16.173  67.686  1.00  0.00    -0.220 A  
BRANCH  32  36
HETATM   36  C   UNL     1      -7.591  17.695  66.992  1.00  0.00    -0.203 C  
HETATM   37  C   UNL     1      -7.826  18.260  65.586  1.00  0.00     0.247 C  
HETATM   38  C   UNL     1      -6.644  16.496  66.925  1.00  0.00    -0.212 C  
ENDBRANCH  32  36
ENDBRANCH  23  25
ENDBRANCH  16  18
ENDBRANCH  13  16
ENDBRANCH   9  10
ENDBRANCH   6   9
ENDBRANCH   2   3
TORSDOF 7
ENDMDL
MODEL      178
REMARK 921   NORMALIZED FREE ENERGY PREDICTED BY IDOCK:   -1.60 KCAL/MOL
REMARK 922        TOTAL FREE ENERGY PREDICTED BY IDOCK:   -3.13 KCAL/MOL
REMARK 923 INTER-LIGAND FREE ENERGY PREDICTED BY IDOCK:   -6.10 KCAL/MOL
REMARK 924 INTRA-LIGAND FREE ENERGY PREDICTED BY IDOCK:    2.98 KCAL/MOL
REMARK 927      BINDING AFFINITY PREDICTED BY RF-SCORE:    0.00 PKD
ROOT
HETATM    1  C   UNL     1      -5.841  15.195  69.242  1.00  0.00    -0.097 C  
HETATM    2  C   UNL     1      -6.676  16.461  69.093  1.00  0.00    -0.205 C  
ENDROOT
BRANCH   2   3
HETATM    3  N   UNL     1      -7.745  16.365  68.085  1.00  0.00    -0.156 NA 
HETATM    4  C   UNL     1      -9.029  16.833  68.659  1.00  0.00    -0.251 C  
HETATM    5  C   UNL     1      -9.167  18.373  68.759  1.00  0.00    -0.254 C  
HETATM    6  N   UNL     1      -8.906  19.098  67.494  1.00  0.00    -0.292 NA 
HETATM    7  C   UNL     1      -7.460  17.114  66.844  1.00  0.00    -0.204 C  
HETATM    8  C   UNL     1      -7.595  18.650  66.971  1.00  0.00    -0.226 C  
BRANCH   6   9
HETATM    9  C   UNL     1      -9.958  18.867  66.484  1.00  0.00    -0.384 C  
BRANCH   9  10
HETATM   10  C   UNL     1     -10.583  17.503  66.574  1.00  0.00    -0.191 A  
HETATM   11  C   UNL     1     -10.490  16.599  65.521  1.00  0.00    -0.285 A  
HETATM   12  C   UNL     1     -11.097  15.358  65.644  1.00  0.00    -0.272 A  
HETATM   13  C   UNL     1     -11.794  15.036  66.810  1.00  0.00    -0.082 A  
HETATM   14  N   UNL     1     -11.873  15.891  67.850  1.00  0.00     0.007 NA 
HETATM   15  C   UNL     1     -11.280  17.098  67.708  1.00  0.00     0.090 A  
BRANCH  13  16
HETATM   16  N   UNL     1     -12.370  13.781  66.970  1.00  0.00    -0.441 NA 
HETATM   17  H   UNL     1     -13.122  13.535  66.326  1.00  0.00     0.000 HD 
BRANCH  16  18
HETATM   18  C   UNL     1     -12.024  12.832  67.918  1.00  0.00    -0.266 A  
HETATM   19  N   UNL     1     -12.519  12.991  69.154  1.00  0.00     0.139 NA 
HETATM   20  C   UNL     1     -12.113  12.112  70.089  1.00  0.00    -0.290 A  
HETATM   21  C   UNL     1     -11.303  11.036  69.815  1.00  0.00    -0.292 A  
HETATM   22  F   UNL     1     -10.954  10.192  70.794  1.00  0.00    -0.350 F  
HETATM   23  C   UNL     1     -10.887  10.891  68.507  1.00  0.00    -0.220 A  
HETATM   24  N   UNL     1     -11.213  11.813  67.572  1.00  0.00    -0.270 NA 
BRANCH  23  25
HETATM   25  C   UNL     1     -10.115   9.731  68.003  1.00  0.00    -0.204 A  
HETATM   26  C   UNL     1     -10.667   8.437  68.037  1.00  0.00    -0.118 A  
HETATM   27  C   UNL     1      -9.976   7.335  67.536  1.00  0.00    -0.169 A  
HETATM   28  C   UNL     1      -8.702   7.496  66.979  1.00  0.00    -0.127 A  
HETATM   29  F   UNL     1     -10.556   6.126  67.597  1.00  0.00    -0.176 F  
HETATM   30  N   UNL     1      -7.855   6.572  66.443  1.00  0.00    -0.102 NA 
HETATM   31  C   UNL     1      -6.775   7.223  66.071  1.00  0.00    -0.053 A  
HETATM   32  N   UNL     1      -6.893   8.577  66.340  1.00  0.00    -0.072 NA 
HETATM   33  C   UNL     1      -5.608   6.534  65.462  1.00  0.00    -0.025 C  
HETATM   34  C   UNL     1      -8.828   9.900  67.426  1.00  0.00    -0.137 A  
HETATM   35  C   UNL     1      -8.139   8.771  66.928  1.00  0.00    -0.101 A  
BRANCH  32  36
HETATM   36  C   UNL     1      -5.902   9.639  66.149  1.00  0.00    -0.061 C  
HETATM   37  C   UNL     1      -5.258  10.197  67.424  1.00  0.00    -0.041 C  
HETATM   38  C   UNL     1      -6.470  10.781  65.305  1.00  0.00     0.072 C  
ENDBRANCH  32  36
ENDBRANCH  23  25
ENDBRANCH  16  18
ENDBRANCH  13  16
ENDBRANCH   9  10
ENDBRANCH   6   9
ENDBRANCH   2   3
TORSDOF 7
ENDMDL
MODEL      179
REMARK 921   NORMALIZED FREE ENERGY PREDICTED BY IDOCK:   -1.59 KCAL/MOL
REMARK 922        TOTAL FREE ENERGY PREDICTED BY IDOCK:   -3.11 KCAL/MOL
REMARK 923 INTER-LIGAND FREE ENERGY PREDICTED BY IDOCK:   -5.81 KCAL/MOL
REMARK 924 INTRA-LIGAND FREE ENERGY PREDICTED BY IDOCK:    2.70 KCAL/MOL
REMARK 927      BINDING AFFINITY PREDICTED BY RF-SCORE:    0.00 PKD
ROOT
HETATM    1  C   UNL     1      -5.131  15.513  69.392  1.00  0.00    -0.093 C  
HETATM    2  C   UNL     1      -5.581  16.969  69.417  1.00  0.00    -0.170 C  
ENDROOT
BRANCH   2   3
HETATM    3  N   UNL     1      -6.477  17.345  68.310  1.00  0.00    -0.168 NA 
HETATM    4  C   UNL     1      -7.891  17.192  68.727  1.00  0.00    -0.258 C  
HETATM    5  C   UNL     1      -8.423  18.329  69.635  1.00  0.00     0.927 C  
HETATM    6  N   UNL     1      -8.218  19.693  69.096  1.00  0.00    -0.183 NA 
HETATM    7  C   UNL     1      -6.258  18.717  67.810  1.00  0.00    -0.198 C  
HETATM    8  C   UNL     1      -6.789  19.836  68.738  1.00  0.00    -0.330 C  
BRANCH   6   9
HETATM    9  C   UNL     1      -9.064  19.966  67.916  1.00  0.00    -0.313 C  
BRANCH   9  10
HETATM   10  C   UNL     1      -9.591  18.722  67.259  1.00  0.00    -0.333 A  
HETATM   11  C   UNL     1      -9.099  18.294  66.031  1.00  0.00     0.006 A  
HETATM   12  C   UNL     1      -9.628  17.148  65.455  1.00  0.00     0.360 A  
HETATM   13  C   UNL     1     -10.646  16.448  66.107  1.00  0.00    -0.255 A  
HETATM   14  N   UNL     1     -11.117  16.834  67.310  1.00  0.00    -0.026 NA 
HETATM   15  C   UNL     1     -10.592  17.958  67.851  1.00  0.00    -0.376 A  
BRANCH  13  16
HETATM   16  N   UNL     1     -11.157  15.273  65.568  1.00  0.00    -0.340 NA 
HETATM   17  H   UNL     1     -11.451  15.305  64.591  1.00  0.00     0.000 HD 
BRANCH  16  18
HETATM   18  C   UNL     1     -11.308  14.063  66.227  1.00  0.00    -0.333 A  
HETATM   19  N   UNL     1     -12.232  14.005  67.197  1.00  0.00    -0.388 NA 
HETATM   20  C   UNL     1     -12.315  12.852  67.888  1.00  0.00     0.263 A  
HETATM   21  C   UNL     1     -11.574  11.735  67.588  1.00  0.00    -0.294 A  
HETATM   22  F   UNL     1     -11.724  10.616  68.308  1.00  0.00    -0.364 F  
HETATM   23  C   UNL     1     -10.693  11.841  66.531  1.00  0.00    -0.265 A  
HETATM   24  N   UNL     1     -10.532  13.018  65.881  1.00  0.00    -0.277 NA 
BRANCH  23  25
HETATM   25  C   UNL     1      -9.904  10.711  65.988  1.00  0.00    -0.280 A  
HETATM   26  C   UNL     1      -9.114  10.880  64.836  1.00  0.00    -0.201 A  
HETATM   27  C   UNL     1      -8.334   9.844  64.327  1.00  0.00    -0.166 A  
HETATM   28  C   UNL     1      -8.320   8.596  64.960  1.00  0.00    -0.171 A  
HETATM   29  F   UNL     1      -7.601  10.067  63.224  1.00  0.00    -0.124 F  
HETATM   30  N   UNL     1      -7.648   7.454  64.637  1.00  0.00    -0.097 NA 
HETATM   31  C   UNL     1      -7.981   6.555  65.535  1.00  0.00    -0.117 A  
HETATM   32  N   UNL     1      -8.861   7.083  66.466  1.00  0.00    -0.135 NA 
HETATM   33  C   UNL     1      -7.459   5.165  65.493  1.00  0.00    -0.077 C  
HETATM   34  C   UNL     1      -9.882   9.450  66.641  1.00  0.00    -0.309 A  
HETATM   35  C   UNL     1      -9.090   8.408  66.107  1.00  0.00    -0.189 A  
BRANCH  32  36
HETATM   36  C   UNL     1      -9.528   6.409  67.583  1.00  0.00    -0.119 C  
HETATM   37  C   UNL     1     -10.702   5.493  67.214  1.00  0.00    -0.243 C  
HETATM   38  C   UNL     1      -9.960   7.410  68.655  1.00  0.00    -0.174 C  
ENDBRANCH  32  36
ENDBRANCH  23  25
ENDBRANCH  16  18
ENDBRANCH  13  16
ENDBRANCH   9  10
ENDBRANCH   6   9
ENDBRANCH   2   3
TORSDOF 7
ENDMDL
MODEL      180
REMARK 921   NORMALIZED FREE ENERGY PREDICTED BY IDOCK:   -1.55 KCAL/MOL
REMARK 922        TOTAL FREE ENERGY PREDICTED BY IDOCK:   -3.05 KCAL/MOL
REMARK 923 INTER-LIGAND FREE ENERGY PREDICTED BY IDOCK:   -6.32 KCAL/MOL
REMARK 924 INTRA-LIGAND FREE ENERGY PREDICTED BY IDOCK:    3.27 KCAL/MOL
REMARK 927      BINDING AFFINITY PREDICTED BY RF-SCORE:    0.00 PKD
ROOT
HETATM    1  C   UNL     1      -5.283  15.373  69.138  1.00  0.00    -0.095 C  
HETATM    2  C   UNL     1      -6.027  16.691  68.957  1.00  0.00    -0.156 C  
ENDROOT
BRANCH   2   3
HETATM    3  N   UNL     1      -7.096  16.648  67.945  1.00  0.00    -0.137 NA 
HETATM    4  C   UNL     1      -8.313  17.317  68.464  1.00  0.00    -0.267 C  
HETATM    5  C   UNL     1      -8.258  18.865  68.440  1.00  0.00    -0.342 C  
HETATM    6  N   UNL     1      -7.904  19.448  67.125  1.00  0.00    -0.250 NA 
HETATM    7  C   UNL     1      -6.715  17.254  66.654  1.00  0.00    -0.233 C  
HETATM    8  C   UNL     1      -6.658  18.801  66.657  1.00  0.00    -0.191 C  
BRANCH   6   9
HETATM    9  C   UNL     1      -8.974  19.270  66.123  1.00  0.00    -0.255 C  
BRANCH   9  10
HETATM   10  C   UNL     1      -9.817  18.049  66.361  1.00  0.00    -0.340 A  
HETATM   11  C   UNL     1      -9.825  16.994  65.455  1.00  0.00     0.329 A  
HETATM   12  C   UNL     1     -10.633  15.895  65.708  1.00  0.00    -0.368 A  
HETATM   13  C   UNL     1     -11.426  15.864  66.857  1.00  0.00     0.249 A  
HETATM   14  N   UNL     1     -11.411  16.867  67.759  1.00  0.00     0.159 NA 
HETATM   15  C   UNL     1     -10.622  17.933  67.489  1.00  0.00    -0.376 A  
BRANCH  13  16
HETATM   16  N   UNL     1     -12.208  14.753  67.152  1.00  0.00    -0.441 NA 
HETATM   17  H   UNL     1     -12.918  14.496  66.466  1.00  0.00     0.000 HD 
BRANCH  16  18
HETATM   18  C   UNL     1     -12.116  13.960  68.285  1.00  0.00    -0.287 A  
HETATM   19  N   UNL     1     -12.741  14.395  69.388  1.00  0.00     0.075 NA 
HETATM   20  C   UNL     1     -12.579  13.662  70.506  1.00  0.00    -0.267 A  
HETATM   21  C   UNL     1     -11.892  12.473  70.538  1.00  0.00    -0.055 A  
HETATM   22  F   UNL     1     -11.788  11.788  71.685  1.00  0.00     0.148 F  
HETATM   23  C   UNL     1     -11.334  12.047  69.350  1.00  0.00    -0.251 A  
HETATM   24  N   UNL     1     -11.411  12.813  68.237  1.00  0.00    -0.290 NA 
BRANCH  23  25
HETATM   25  C   UNL     1     -10.666  10.738  69.166  1.00  0.00    -0.265 A  
HETATM   26  C   UNL     1     -10.211  10.341  67.895  1.00  0.00    -0.217 A  
HETATM   27  C   UNL     1      -9.547   9.131  67.702  1.00  0.00    -0.149 A  
HETATM   28  C   UNL     1      -9.315   8.275  68.784  1.00  0.00    -0.143 A  
HETATM   29  F   UNL     1      -9.137   8.808  66.466  1.00  0.00    -0.144 F  
HETATM   30  N   UNL     1      -8.701   7.057  68.825  1.00  0.00    -0.127 NA 
HETATM   31  C   UNL     1      -8.749   6.654  70.075  1.00  0.00    -0.141 A  
HETATM   32  N   UNL     1      -9.378   7.592  70.878  1.00  0.00    -0.157 NA 
HETATM   33  C   UNL     1      -8.196   5.344  70.505  1.00  0.00    -0.110 C  
HETATM   34  C   UNL     1     -10.419   9.877  70.269  1.00  0.00    -0.348 A  
HETATM   35  C   UNL     1      -9.750   8.651  70.055  1.00  0.00    -0.171 A  
BRANCH  32  36
HETATM   36  C   UNL     1      -9.701   7.510  72.304  1.00  0.00    -0.160 C  
HETATM   37  C   UNL     1     -10.946   8.282  72.760  1.00  0.00    -0.309 C  
HETATM   38  C   UNL     1      -8.499   7.897  73.167  1.00  0.00    -0.242 C  
ENDBRANCH  32  36
ENDBRANCH  23  25
ENDBRANCH  16  18
ENDBRANCH  13  16
ENDBRANCH   9  10
ENDBRANCH   6   9
ENDBRANCH   2   3
TORSDOF 7
ENDMDL
MODEL      181
REMARK 921   NORMALIZED FREE ENERGY PREDICTED BY IDOCK:   -1.46 KCAL/MOL
REMARK 922        TOTAL FREE ENERGY PREDICTED BY IDOCK:   -2.93 KCAL/MOL
REMARK 923 INTER-LIGAND FREE ENERGY PREDICTED BY IDOCK:   -2.99 KCAL/MOL
REMARK 924 INTRA-LIGAND FREE ENERGY PREDICTED BY IDOCK:    0.06 KCAL/MOL
REMARK 927      BINDING AFFINITY PREDICTED BY RF-SCORE:    0.00 PKD
ROOT
HETATM    1  C   UNL     1     -13.216  15.962  74.363  1.00  0.00     0.575 C  
HETATM    2  C   UNL     1     -12.415  14.752  73.894  1.00  0.00    -0.278 C  
ENDROOT
BRANCH   2   3
HETATM    3  N   UNL     1     -13.036  14.010  72.785  1.00  0.00    -0.420 NA 
HETATM    4  C   UNL     1     -14.036  14.862  72.099  1.00  0.00    -0.518 C  
HETATM    5  C   UNL     1     -13.433  15.922  71.144  1.00  0.00     0.295 C  
HETATM    6  N   UNL     1     -12.486  15.380  70.142  1.00  0.00    -0.364 NA 
HETATM    7  C   UNL     1     -12.065  13.499  71.796  1.00  0.00     0.504 C  
HETATM    8  C   UNL     1     -11.469  14.577  70.860  1.00  0.00    -0.114 C  
BRANCH   6   9
HETATM    9  C   UNL     1     -13.158  14.549  69.123  1.00  0.00     1.466 C  
BRANCH   9  10
HETATM   10  C   UNL     1     -12.201  13.814  68.226  1.00  0.00    -0.177 A  
HETATM   11  C   UNL     1     -10.828  13.870  68.441  1.00  0.00    -0.269 A  
HETATM   12  C   UNL     1      -9.984  13.188  67.577  1.00  0.00    -0.223 A  
HETATM   13  C   UNL     1     -10.518  12.465  66.507  1.00  0.00    -0.230 A  
HETATM   14  N   UNL     1     -11.847  12.380  66.300  1.00  0.00    -0.550 NA 
HETATM   15  C   UNL     1     -12.653  13.058  67.150  1.00  0.00     0.669 A  
BRANCH  13  16
HETATM   16  N   UNL     1      -9.691  11.739  65.658  1.00  0.00    -0.232 NA 
HETATM   17  H   UNL     1      -9.273  12.247  64.877  1.00  0.00     0.000 HD 
BRANCH  16  18
HETATM   18  C   UNL     1      -9.378  10.393  65.767  1.00  0.00    -0.186 A  
HETATM   19  N   UNL     1      -9.203   9.711  64.626  1.00  0.00    -0.249 NA 
HETATM   20  C   UNL     1      -8.981   8.388  64.738  1.00  0.00     0.254 A  
HETATM   21  C   UNL     1      -8.842   7.743  65.944  1.00  0.00    -0.142 A  
HETATM   22  F   UNL     1      -8.603   6.426  65.977  1.00  0.00    -0.125 F  
HETATM   23  C   UNL     1      -8.962   8.519  67.079  1.00  0.00    -0.137 A  
HETATM   24  N   UNL     1      -9.272   9.833  66.988  1.00  0.00    -0.141 NA 
BRANCH  23  25
HETATM   25  C   UNL     1      -8.723   8.025  68.454  1.00  0.00    -0.130 A  
HETATM   26  C   UNL     1      -7.436   7.618  68.853  1.00  0.00    -0.096 A  
HETATM   27  C   UNL     1      -7.178   7.184  70.152  1.00  0.00    -0.078 A  
HETATM   28  C   UNL     1      -8.207   7.144  71.099  1.00  0.00    -0.112 A  
HETATM   29  F   UNL     1      -5.929   6.809  70.472  1.00  0.00    -0.022 F  
HETATM   30  N   UNL     1      -8.183   6.753  72.406  1.00  0.00    -0.105 NA 
HETATM   31  C   UNL     1      -9.409   6.887  72.861  1.00  0.00    -0.135 A  
HETATM   32  N   UNL     1     -10.254   7.376  71.878  1.00  0.00    -0.186 NA 
HETATM   33  C   UNL     1      -9.778   6.529  74.254  1.00  0.00    -0.309 C  
HETATM   34  C   UNL     1      -9.767   7.998  69.418  1.00  0.00    -0.170 A  
HETATM   35  C   UNL     1      -9.488   7.549  70.728  1.00  0.00    -0.163 A  
BRANCH  32  36
HETATM   36  C   UNL     1     -11.699   7.605  71.941  1.00  0.00    -0.289 C  
HETATM   37  C   UNL     1     -12.572   6.632  71.139  1.00  0.00    -0.194 C  
HETATM   38  C   UNL     1     -12.048   9.048  71.575  1.00  0.00    -0.410 C  
ENDBRANCH  32  36
ENDBRANCH  23  25
ENDBRANCH  16  18
ENDBRANCH  13  16
ENDBRANCH   9  10
ENDBRANCH   6   9
ENDBRANCH   2   3
TORSDOF 7
ENDMDL
MODEL      182
REMARK 921   NORMALIZED FREE ENERGY PREDICTED BY IDOCK:   -1.27 KCAL/MOL
REMARK 922        TOTAL FREE ENERGY PREDICTED BY IDOCK:   -2.66 KCAL/MOL
REMARK 923 INTER-LIGAND FREE ENERGY PREDICTED BY IDOCK:   -5.93 KCAL/MOL
REMARK 924 INTRA-LIGAND FREE ENERGY PREDICTED BY IDOCK:    3.27 KCAL/MOL
REMARK 927      BINDING AFFINITY PREDICTED BY RF-SCORE:    0.00 PKD
ROOT
HETATM    1  C   UNL     1     -13.535  13.977  72.334  1.00  0.00    -0.639 C  
HETATM    2  C   UNL     1     -12.208  14.011  71.585  1.00  0.00    -0.141 C  
ENDROOT
BRANCH   2   3
HETATM    3  N   UNL     1     -12.331  14.310  70.149  1.00  0.00    -0.340 NA 
HETATM    4  C   UNL     1     -12.784  15.709  69.958  1.00  0.00    -0.043 C  
HETATM    5  C   UNL     1     -11.679  16.777  70.156  1.00  0.00     0.846 C  
HETATM    6  N   UNL     1     -10.452  16.548  69.358  1.00  0.00    -0.312 NA 
HETATM    7  C   UNL     1     -11.085  14.088  69.387  1.00  0.00    -0.203 C  
HETATM    8  C   UNL     1      -9.993  15.163  69.608  1.00  0.00    -0.171 C  
BRANCH   6   9
HETATM    9  C   UNL     1     -10.673  16.753  67.913  1.00  0.00    -0.347 C  
BRANCH   9  10
HETATM   10  C   UNL     1     -10.746  15.472  67.132  1.00  0.00    -0.315 A  
HETATM   11  C   UNL     1      -9.632  14.972  66.466  1.00  0.00    -0.299 A  
HETATM   12  C   UNL     1      -9.752  13.793  65.744  1.00  0.00    -0.175 A  
HETATM   13  C   UNL     1     -10.982  13.133  65.689  1.00  0.00    -0.277 A  
HETATM   14  N   UNL     1     -12.065  13.590  66.348  1.00  0.00    -0.415 NA 
HETATM   15  C   UNL     1     -11.928  14.744  67.041  1.00  0.00    -0.203 A  
BRANCH  13  16
HETATM   16  N   UNL     1     -11.110  11.927  65.008  1.00  0.00    -0.310 NA 
HETATM   17  H   UNL     1     -12.044  11.518  64.969  1.00  0.00     0.000 HD 
BRANCH  16  18
HETATM   18  C   UNL     1     -10.094  11.227  64.376  1.00  0.00    -0.303 A  
HETATM   19  N   UNL     1      -9.538  11.797  63.297  1.00  0.00    -0.322 NA 
HETATM   20  C   UNL     1      -8.609  11.076  62.642  1.00  0.00    -0.220 A  
HETATM   21  C   UNL     1      -8.158   9.851  63.073  1.00  0.00    -0.147 A  
HETATM   22  F   UNL     1      -7.217   9.199  62.378  1.00  0.00    -0.101 F  
HETATM   23  C   UNL     1      -8.722   9.356  64.231  1.00  0.00    -0.197 A  
HETATM   24  N   UNL     1      -9.719  10.026  64.855  1.00  0.00    -0.313 NA 
BRANCH  23  25
HETATM   25  C   UNL     1      -8.278   8.117  64.910  1.00  0.00    -0.150 A  
HETATM   26  C   UNL     1      -7.041   7.528  64.584  1.00  0.00    -0.064 A  
HETATM   27  C   UNL     1      -6.584   6.383  65.234  1.00  0.00    -0.039 A  
HETATM   28  C   UNL     1      -7.355   5.788  66.238  1.00  0.00    -0.078 A  
HETATM   29  F   UNL     1      -5.396   5.869  64.878  1.00  0.00    -0.014 F  
HETATM   30  N   UNL     1      -7.111   4.677  66.990  1.00  0.00    -0.070 NA 
HETATM   31  C   UNL     1      -8.147   4.525  67.784  1.00  0.00    -0.099 A  
HETATM   32  N   UNL     1      -9.081   5.529  67.582  1.00  0.00    -0.108 NA 
HETATM   33  C   UNL     1      -8.252   3.393  68.740  1.00  0.00    -0.075 C  
HETATM   34  C   UNL     1      -9.056   7.522  65.939  1.00  0.00    -0.086 A  
HETATM   35  C   UNL     1      -8.580   6.358  66.583  1.00  0.00    -0.121 A  
BRANCH  32  36
HETATM   36  C   UNL     1     -10.397   5.696  68.202  1.00  0.00    -0.197 C  
HETATM   37  C   UNL     1     -11.525   6.167  67.275  1.00  0.00     0.348 C  
HETATM   38  C   UNL     1     -10.319   6.598  69.435  1.00  0.00    -0.228 C  
ENDBRANCH  32  36
ENDBRANCH  23  25
ENDBRANCH  16  18
ENDBRANCH  13  16
ENDBRANCH   9  10
ENDBRANCH   6   9
ENDBRANCH   2   3
TORSDOF 7
ENDMDL
MODEL      183
REMARK 921   NORMALIZED FREE ENERGY PREDICTED BY IDOCK:   -1.18 KCAL/MOL
REMARK 922        TOTAL FREE ENERGY PREDICTED BY IDOCK:   -2.53 KCAL/MOL
REMARK 923 INTER-LIGAND FREE ENERGY PREDICTED BY IDOCK:   -4.09 KCAL/MOL
REMARK 924 INTRA-LIGAND FREE ENERGY PREDICTED BY IDOCK:    1.56 KCAL/MOL
REMARK 927      BINDING AFFINITY PREDICTED BY RF-SCORE:    0.00 PKD
ROOT
HETATM    1  C   UNL     1      -7.254  19.731  68.029  1.00  0.00    -0.321 C  
HETATM    2  C   UNL     1      -7.146  19.756  69.549  1.00  0.00    -0.215 C  
ENDROOT
BRANCH   2   3
HETATM    3  N   UNL     1      -6.935  18.434  70.162  1.00  0.00     0.592 NA 
HETATM    4  C   UNL     1      -7.865  17.444  69.569  1.00  0.00     0.482 C  
HETATM    5  C   UNL     1      -7.455  16.935  68.163  1.00  0.00    -0.178 C  
HETATM    6  N   UNL     1      -6.071  16.416  68.077  1.00  0.00    -0.111 NA 
HETATM    7  C   UNL     1      -5.548  17.939  70.041  1.00  0.00    -0.241 C  
HETATM    8  C   UNL     1      -5.160  17.445  68.627  1.00  0.00    -0.143 C  
BRANCH   6   9
HETATM    9  C   UNL     1      -5.898  15.145  68.809  1.00  0.00    -0.089 C  
BRANCH   9  10
HETATM   10  C   UNL     1      -6.335  13.940  68.024  1.00  0.00    -0.144 A  
HETATM   11  C   UNL     1      -5.422  12.964  67.639  1.00  0.00    -0.109 A  
HETATM   12  C   UNL     1      -5.870  11.878  66.902  1.00  0.00    -0.118 A  
HETATM   13  C   UNL     1      -7.218  11.782  66.552  1.00  0.00     0.111 A  
HETATM   14  N   UNL     1      -8.121  12.706  66.938  1.00  0.00    -0.074 NA 
HETATM   15  C   UNL     1      -7.663  13.761  67.651  1.00  0.00    -0.179 A  
BRANCH  13  16
HETATM   16  N   UNL     1      -7.693  10.678  65.852  1.00  0.00    -0.159 NA 
HETATM   17  H   UNL     1      -8.100  10.856  64.933  1.00  0.00     0.000 HD 
BRANCH  16  18
HETATM   18  C   UNL     1      -7.670   9.361  66.280  1.00  0.00    -0.097 A  
HETATM   19  N   UNL     1      -7.022   8.477  65.506  1.00  0.00    -0.073 NA 
HETATM   20  C   UNL     1      -7.073   7.186  65.886  1.00  0.00    -0.069 A  
HETATM   21  C   UNL     1      -7.670   6.763  67.049  1.00  0.00    -0.100 A  
HETATM   22  F   UNL     1      -7.664   5.462  67.371  1.00  0.00    -0.090 F  
HETATM   23  C   UNL     1      -8.254   7.734  67.835  1.00  0.00    -0.123 A  
HETATM   24  N   UNL     1      -8.290   9.024  67.427  1.00  0.00    -0.111 NA 
BRANCH  23  25
HETATM   25  C   UNL     1      -8.834   7.483  69.175  1.00  0.00    -0.136 A  
HETATM   26  C   UNL     1      -9.397   8.537  69.918  1.00  0.00    -0.159 A  
HETATM   27  C   UNL     1      -9.981   8.320  71.165  1.00  0.00    -0.185 A  
HETATM   28  C   UNL     1     -10.022   7.032  71.709  1.00  0.00    -0.176 A  
HETATM   29  F   UNL     1     -10.501   9.367  71.826  1.00  0.00    -0.397 F  
HETATM   30  N   UNL     1     -10.531   6.597  72.898  1.00  0.00    -0.215 NA 
HETATM   31  C   UNL     1     -10.310   5.302  72.949  1.00  0.00    -0.196 A  
HETATM   32  N   UNL     1      -9.671   4.860  71.802  1.00  0.00    -0.159 NA 
HETATM   33  C   UNL     1     -10.706   4.479  74.121  1.00  0.00    -0.319 C  
HETATM   34  C   UNL     1      -8.887   6.171  69.719  1.00  0.00    -0.135 A  
HETATM   35  C   UNL     1      -9.478   5.971  70.987  1.00  0.00    -0.168 A  
BRANCH  32  36
HETATM   36  C   UNL     1      -9.183   3.516  71.484  1.00  0.00    -0.126 C  
HETATM   37  C   UNL     1      -9.715   2.894  70.187  1.00  0.00    -0.027 C  
HETATM   38  C   UNL     1      -9.403   2.556  72.655  1.00  0.00    -0.132 C  
ENDBRANCH  32  36
ENDBRANCH  23  25
ENDBRANCH  16  18
ENDBRANCH  13  16
ENDBRANCH   9  10
ENDBRANCH   6   9
ENDBRANCH   2   3
TORSDOF 7
ENDMDL
MODEL      184
REMARK 921   NORMALIZED FREE ENERGY PREDICTED BY IDOCK:   -1.09 KCAL/MOL
REMARK 922        TOTAL FREE ENERGY PREDICTED BY IDOCK:   -2.41 KCAL/MOL
REMARK 923 INTER-LIGAND FREE ENERGY PREDICTED BY IDOCK:   -4.11 KCAL/MOL
REMARK 924 INTRA-LIGAND FREE ENERGY PREDICTED BY IDOCK:    1.70 KCAL/MOL
REMARK 927      BINDING AFFINITY PREDICTED BY RF-SCORE:    0.00 PKD
ROOT
HETATM    1  C   UNL     1      -9.451  18.166  67.126  1.00  0.00    -0.264 C  
HETATM    2  C   UNL     1      -8.932  17.187  68.173  1.00  0.00    -0.240 C  
ENDROOT
BRANCH   2   3
HETATM    3  N   UNL     1      -8.136  16.078  67.623  1.00  0.00    -0.144 NA 
HETATM    4  C   UNL     1      -6.704  16.266  67.956  1.00  0.00    -0.132 C  
HETATM    5  C   UNL     1      -6.329  15.903  69.415  1.00  0.00    -0.160 C  
HETATM    6  N   UNL     1      -6.755  14.550  69.842  1.00  0.00    -0.154 NA 
HETATM    7  C   UNL     1      -8.577  14.746  68.083  1.00  0.00    -0.159 C  
HETATM    8  C   UNL     1      -8.199  14.410  69.545  1.00  0.00     0.316 C  
BRANCH   6   9
HETATM    9  C   UNL     1      -5.994  13.480  69.166  1.00  0.00    -0.089 C  
BRANCH   9  10
HETATM   10  C   UNL     1      -6.867  12.484  68.455  1.00  0.00    -0.083 A  
HETATM   11  C   UNL     1      -7.111  12.588  67.090  1.00  0.00    -0.058 A  
HETATM   12  C   UNL     1      -7.937  11.655  66.481  1.00  0.00    -0.053 A  
HETATM   13  C   UNL     1      -8.515  10.635  67.241  1.00  0.00    -0.126 A  
HETATM   14  N   UNL     1      -8.269  10.505  68.560  1.00  0.00    -0.117 NA 
HETATM   15  C   UNL     1      -7.466  11.429  69.136  1.00  0.00    -0.057 A  
BRANCH  13  16
HETATM   16  N   UNL     1      -9.308   9.664  66.640  1.00  0.00    -0.150 NA 
HETATM   17  H   UNL     1     -10.230   9.960  66.317  1.00  0.00     0.000 HD 
BRANCH  16  18
HETATM   18  C   UNL     1      -8.971   8.336  66.438  1.00  0.00    -0.166 A  
HETATM   19  N   UNL     1      -8.731   7.950  65.176  1.00  0.00    -0.027 NA 
HETATM   20  C   UNL     1      -8.484   6.641  64.978  1.00  0.00     0.000 A  
HETATM   21  C   UNL     1      -8.384   5.727  65.999  1.00  0.00    -0.126 A  
HETATM   22  F   UNL     1      -8.117   4.443  65.727  1.00  0.00    -0.098 F  
HETATM   23  C   UNL     1      -8.570   6.206  67.280  1.00  0.00    -0.103 A  
HETATM   24  N   UNL     1      -8.906   7.500  67.492  1.00  0.00    -0.127 NA 
BRANCH  23  25
HETATM   25  C   UNL     1      -8.380   5.397  68.507  1.00  0.00    -0.097 A  
HETATM   26  C   UNL     1      -7.448   4.344  68.530  1.00  0.00    -0.064 A  
HETATM   27  C   UNL     1      -7.224   3.592  69.682  1.00  0.00    -0.042 A  
HETATM   28  C   UNL     1      -7.931   3.875  70.856  1.00  0.00    -0.058 A  
HETATM   29  F   UNL     1      -6.321   2.600  69.642  1.00  0.00    -0.026 F  
HETATM   30  N   UNL     1      -7.879   3.273  72.079  1.00  0.00    -0.057 NA 
HETATM   31  C   UNL     1      -8.748   3.898  72.842  1.00  0.00    -0.098 A  
HETATM   32  N   UNL     1      -9.376   4.921  72.149  1.00  0.00    -0.134 NA 
HETATM   33  C   UNL     1      -8.991   3.499  74.252  1.00  0.00    -0.094 C  
HETATM   34  C   UNL     1      -9.090   5.696  69.701  1.00  0.00    -0.148 A  
HETATM   35  C   UNL     1      -8.855   4.920  70.858  1.00  0.00    -0.128 A  
BRANCH  32  36
HETATM   36  C   UNL     1     -10.450   5.809  72.598  1.00  0.00    -0.208 C  
HETATM   37  C   UNL     1     -11.302   6.450  71.496  1.00  0.00    -0.346 C  
HETATM   38  C   UNL     1      -9.917   6.887  73.543  1.00  0.00    -0.293 C  
ENDBRANCH  32  36
ENDBRANCH  23  25
ENDBRANCH  16  18
ENDBRANCH  13  16
ENDBRANCH   9  10
ENDBRANCH   6   9
ENDBRANCH   2   3
TORSDOF 7
ENDMDL
MODEL      185
REMARK 921   NORMALIZED FREE ENERGY PREDICTED BY IDOCK:   -0.99 KCAL/MOL
REMARK 922        TOTAL FREE ENERGY PREDICTED BY IDOCK:   -2.28 KCAL/MOL
REMARK 923 INTER-LIGAND FREE ENERGY PREDICTED BY IDOCK:   -2.35 KCAL/MOL
REMARK 924 INTRA-LIGAND FREE ENERGY PREDICTED BY IDOCK:    0.08 KCAL/MOL
REMARK 927      BINDING AFFINITY PREDICTED BY RF-SCORE:    0.00 PKD
ROOT
HETATM    1  C   UNL     1     -11.823  20.354  66.465  1.00  0.00     2.808 C  
HETATM    2  C   UNL     1     -11.014  19.361  67.291  1.00  0.00    -0.342 C  
ENDROOT
BRANCH   2   3
HETATM    3  N   UNL     1      -9.832  18.821  66.600  1.00  0.00    -0.336 NA 
HETATM    4  C   UNL     1      -8.602  19.154  67.358  1.00  0.00    -0.286 C  
HETATM    5  C   UNL     1      -8.358  18.273  68.609  1.00  0.00    -0.287 C  
HETATM    6  N   UNL     1      -8.392  16.815  68.351  1.00  0.00    -0.213 NA 
HETATM    7  C   UNL     1      -9.891  17.363  66.375  1.00  0.00    -0.302 C  
HETATM    8  C   UNL     1      -9.653  16.504  67.641  1.00  0.00    -0.235 C  
BRANCH   6   9
HETATM    9  C   UNL     1      -7.237  16.356  67.554  1.00  0.00    -0.145 C  
BRANCH   9  10
HETATM   10  C   UNL     1      -6.915  14.902  67.751  1.00  0.00    -0.193 A  
HETATM   11  C   UNL     1      -7.723  13.908  67.211  1.00  0.00    -0.104 A  
HETATM   12  C   UNL     1      -7.395  12.578  67.433  1.00  0.00    -0.147 A  
HETATM   13  C   UNL     1      -6.271  12.257  68.197  1.00  0.00    -0.058 A  
HETATM   14  N   UNL     1      -5.462  13.208  68.706  1.00  0.00    -0.071 NA 
HETATM   15  C   UNL     1      -5.804  14.498  68.484  1.00  0.00    -0.095 A  
BRANCH  13  16
HETATM   16  N   UNL     1      -5.900  10.931  68.393  1.00  0.00    -0.043 NA 
HETATM   17  H   UNL     1      -4.978  10.657  68.054  1.00  0.00     0.000 HD 
BRANCH  16  18
HETATM   18  C   UNL     1      -6.661   9.947  69.002  1.00  0.00    -0.053 A  
HETATM   19  N   UNL     1      -7.038  10.163  70.271  1.00  0.00    -0.193 NA 
HETATM   20  C   UNL     1      -7.707   9.168  70.884  1.00  0.00    -0.126 A  
HETATM   21  C   UNL     1      -8.085   8.008  70.250  1.00  0.00    -0.113 A  
HETATM   22  F   UNL     1      -8.765   7.069  70.919  1.00  0.00    -0.137 F  
HETATM   23  C   UNL     1      -7.727   7.882  68.923  1.00  0.00    -0.105 A  
HETATM   24  N   UNL     1      -6.979   8.833  68.316  1.00  0.00    -0.072 NA 
BRANCH  23  25
HETATM   25  C   UNL     1      -8.150   6.763  68.050  1.00  0.00    -0.114 A  
HETATM   26  C   UNL     1      -8.895   5.690  68.574  1.00  0.00    -0.108 A  
HETATM   27  C   UNL     1      -9.336   4.644  67.766  1.00  0.00    -0.141 A  
HETATM   28  C   UNL     1      -9.045   4.640  66.397  1.00  0.00    -0.120 A  
HETATM   29  F   UNL     1     -10.042   3.649  68.325  1.00  0.00    -0.107 F  
HETATM   30  N   UNL     1      -9.366   3.729  65.434  1.00  0.00    -0.151 NA 
HETATM   31  C   UNL     1      -8.850   4.174  64.310  1.00  0.00    -0.139 A  
HETATM   32  N   UNL     1      -8.196   5.381  64.504  1.00  0.00    -0.129 NA 
HETATM   33  C   UNL     1      -8.973   3.425  63.033  1.00  0.00    -0.093 C  
HETATM   34  C   UNL     1      -7.865   6.769  66.658  1.00  0.00    -0.107 A  
HETATM   35  C   UNL     1      -8.316   5.697  65.854  1.00  0.00    -0.128 A  
BRANCH  32  36
HETATM   36  C   UNL     1      -7.432   6.176  63.540  1.00  0.00    -0.078 C  
HETATM   37  C   UNL     1      -8.151   7.395  62.950  1.00  0.00    -0.063 C  
HETATM   38  C   UNL     1      -6.877   5.299  62.417  1.00  0.00    -0.026 C  
ENDBRANCH  32  36
ENDBRANCH  23  25
ENDBRANCH  16  18
ENDBRANCH  13  16
ENDBRANCH   9  10
ENDBRANCH   6   9
ENDBRANCH   2   3
TORSDOF 7
ENDMDL
MODEL      186
REMARK 921   NORMALIZED FREE ENERGY PREDICTED BY IDOCK:   -0.94 KCAL/MOL
REMARK 922        TOTAL FREE ENERGY PREDICTED BY IDOCK:   -2.20 KCAL/MOL
REMARK 923 INTER-LIGAND FREE ENERGY PREDICTED BY IDOCK:   -5.47 KCAL/MOL
REMARK 924 INTRA-LIGAND FREE ENERGY PREDICTED BY IDOCK:    3.27 KCAL/MOL
REMARK 927      BINDING AFFINITY PREDICTED BY RF-SCORE:    0.00 PKD
ROOT
HETATM    1  C   UNL     1      -7.593  16.762  67.125  1.00  0.00    -0.221 C  
HETATM    2  C   UNL     1      -8.266  16.278  68.403  1.00  0.00    -0.185 C  
ENDROOT
BRANCH   2   3
HETATM    3  N   UNL     1      -9.342  15.296  68.186  1.00  0.00    -0.196 NA 
HETATM    4  C   UNL     1      -9.784  14.730  69.483  1.00  0.00     0.042 C  
HETATM    5  C   UNL     1     -10.706  15.660  70.311  1.00  0.00    -0.338 C  
HETATM    6  N   UNL     1     -11.885  16.173  69.575  1.00  0.00    -0.221 NA 
HETATM    7  C   UNL     1     -10.509  15.845  67.466  1.00  0.00    -0.298 C  
HETATM    8  C   UNL     1     -11.409  16.778  68.311  1.00  0.00    -0.051 C  
BRANCH   6   9
HETATM    9  C   UNL     1     -12.874  15.114  69.288  1.00  0.00     0.476 C  
BRANCH   9  10
HETATM   10  C   UNL     1     -12.266  13.744  69.178  1.00  0.00    -0.289 A  
HETATM   11  C   UNL     1     -11.816  13.253  67.957  1.00  0.00    -0.392 A  
HETATM   12  C   UNL     1     -11.278  11.975  67.903  1.00  0.00    -0.323 A  
HETATM   13  C   UNL     1     -11.202  11.202  69.063  1.00  0.00    -0.256 A  
HETATM   14  N   UNL     1     -11.610  11.672  70.259  1.00  0.00    -0.240 NA 
HETATM   15  C   UNL     1     -12.138  12.917  70.289  1.00  0.00    -0.302 A  
BRANCH  13  16
HETATM   16  N   UNL     1     -10.625   9.937  69.036  1.00  0.00    -0.212 NA 
HETATM   17  H   UNL     1      -9.924   9.766  68.315  1.00  0.00     0.000 HD 
BRANCH  16  18
HETATM   18  C   UNL     1     -10.908   8.886  69.894  1.00  0.00    -0.211 A  
HETATM   19  N   UNL     1     -12.084   8.922  70.538  1.00  0.00    -0.009 NA 
HETATM   20  C   UNL     1     -12.317   7.941  71.430  1.00  0.00    -0.312 A  
HETATM   21  C   UNL     1     -11.461   6.886  71.636  1.00  0.00    -0.275 A  
HETATM   22  F   UNL     1     -11.769   5.936  72.529  1.00  0.00    -0.320 F  
HETATM   23  C   UNL     1     -10.302   6.873  70.887  1.00  0.00    -0.198 A  
HETATM   24  N   UNL     1     -10.009   7.896  70.050  1.00  0.00    -0.189 NA 
BRANCH  23  25
HETATM   25  C   UNL     1      -9.325   5.760  70.885  1.00  0.00    -0.185 A  
HETATM   26  C   UNL     1      -8.978   5.112  72.085  1.00  0.00    -0.139 A  
HETATM   27  C   UNL     1      -8.089   4.039  72.105  1.00  0.00    -0.085 A  
HETATM   28  C   UNL     1      -7.516   3.577  70.915  1.00  0.00    -0.037 A  
HETATM   29  F   UNL     1      -7.799   3.461  73.282  1.00  0.00    -0.063 F  
HETATM   30  N   UNL     1      -6.629   2.562  70.703  1.00  0.00    -0.031 NA 
HETATM   31  C   UNL     1      -6.388   2.538  69.412  1.00  0.00    -0.029 A  
HETATM   32  N   UNL     1      -7.112   3.518  68.751  1.00  0.00    -0.049 NA 
HETATM   33  C   UNL     1      -5.438   1.571  68.803  1.00  0.00    -0.013 C  
HETATM   34  C   UNL     1      -8.754   5.285  69.674  1.00  0.00    -0.112 A  
HETATM   35  C   UNL     1      -7.851   4.200  69.713  1.00  0.00    -0.052 A  
BRANCH  32  36
HETATM   36  C   UNL     1      -7.084   3.878  67.331  1.00  0.00    -0.063 C  
HETATM   37  C   UNL     1      -7.793   2.910  66.375  1.00  0.00    -0.077 C  
HETATM   38  C   UNL     1      -5.655   4.136  66.853  1.00  0.00    -0.018 C  
ENDBRANCH  32  36
ENDBRANCH  23  25
ENDBRANCH  16  18
ENDBRANCH  13  16
ENDBRANCH   9  10
ENDBRANCH   6   9
ENDBRANCH   2   3
TORSDOF 7
ENDMDL
MODEL      187
REMARK 921   NORMALIZED FREE ENERGY PREDICTED BY IDOCK:   -0.85 KCAL/MOL
REMARK 922        TOTAL FREE ENERGY PREDICTED BY IDOCK:   -2.07 KCAL/MOL
REMARK 923 INTER-LIGAND FREE ENERGY PREDICTED BY IDOCK:   -3.64 KCAL/MOL
REMARK 924 INTRA-LIGAND FREE ENERGY PREDICTED BY IDOCK:    1.57 KCAL/MOL
REMARK 927      BINDING AFFINITY PREDICTED BY RF-SCORE:    0.00 PKD
ROOT
HETATM    1  C   UNL     1     -11.481  15.339  66.983  1.00  0.00    -0.167 C  
HETATM    2  C   UNL     1      -9.999  15.618  67.205  1.00  0.00    -0.236 C  
ENDROOT
BRANCH   2   3
HETATM    3  N   UNL     1      -9.132  14.438  67.056  1.00  0.00    -0.225 NA 
HETATM    4  C   UNL     1      -9.411  13.461  68.136  1.00  0.00    -0.218 C  
HETATM    5  C   UNL     1     -10.700  12.626  67.932  1.00  0.00    -0.218 C  
HETATM    6  N   UNL     1     -10.790  11.942  66.621  1.00  0.00    -0.263 NA 
HETATM    7  C   UNL     1      -9.260  13.770  65.745  1.00  0.00     0.310 C  
HETATM    8  C   UNL     1     -10.560  12.950  65.562  1.00  0.00    -0.279 C  
BRANCH   6   9
HETATM    9  C   UNL     1      -9.815  10.841  66.492  1.00  0.00    -0.203 C  
BRANCH   9  10
HETATM   10  C   UNL     1      -9.153  10.474  67.791  1.00  0.00    -0.140 A  
HETATM   11  C   UNL     1      -7.779  10.606  67.959  1.00  0.00    -0.100 A  
HETATM   12  C   UNL     1      -7.211  10.239  69.170  1.00  0.00    -0.083 A  
HETATM   13  C   UNL     1      -8.018   9.739  70.195  1.00  0.00    -0.186 A  
HETATM   14  N   UNL     1      -9.355   9.629  70.057  1.00  0.00    -0.228 NA 
HETATM   15  C   UNL     1      -9.887   9.986  68.866  1.00  0.00    -0.184 A  
BRANCH  13  16
HETATM   16  N   UNL     1      -7.473   9.408  71.431  1.00  0.00    -0.323 NA 
HETATM   17  H   UNL     1      -7.483  10.135  72.147  1.00  0.00     0.000 HD 
BRANCH  16  18
HETATM   18  C   UNL     1      -6.918   8.189  71.784  1.00  0.00    -0.076 A  
HETATM   19  N   UNL     1      -6.604   8.011  73.076  1.00  0.00    -0.076 NA 
HETATM   20  C   UNL     1      -5.990   6.857  73.398  1.00  0.00    -0.058 A  
HETATM   21  C   UNL     1      -5.759   5.846  72.496  1.00  0.00    -0.032 A  
HETATM   22  F   UNL     1      -5.159   4.716  72.894  1.00  0.00    -0.006 F  
HETATM   23  C   UNL     1      -6.173   6.066  71.199  1.00  0.00    -0.039 A  
HETATM   24  N   UNL     1      -6.712   7.254  70.837  1.00  0.00    -0.047 NA 
BRANCH  23  25
HETATM   25  C   UNL     1      -6.119   5.048  70.124  1.00  0.00    -0.021 A  
HETATM   26  C   UNL     1      -5.705   3.733  70.405  1.00  0.00    -0.013 A  
HETATM   27  C   UNL     1      -5.681   2.748  69.420  1.00  0.00    -0.022 A  
HETATM   28  C   UNL     1      -6.074   3.051  68.111  1.00  0.00    -0.025 A  
HETATM   29  F   UNL     1      -5.276   1.512  69.751  1.00  0.00    -0.006 F  
HETATM   30  N   UNL     1      -6.122   2.258  67.003  1.00  0.00    -0.023 NA 
HETATM   31  C   UNL     1      -6.546   3.016  66.016  1.00  0.00    -0.039 A  
HETATM   32  N   UNL     1      -6.795   4.308  66.452  1.00  0.00    -0.054 NA 
HETATM   33  C   UNL     1      -6.701   2.499  64.632  1.00  0.00    -0.039 C  
HETATM   34  C   UNL     1      -6.532   5.355  68.799  1.00  0.00    -0.043 A  
HETATM   35  C   UNL     1      -6.495   4.346  67.811  1.00  0.00    -0.038 A  
BRANCH  32  36
HETATM   36  C   UNL     1      -7.209   5.475  65.671  1.00  0.00    -0.068 C  
HETATM   37  C   UNL     1      -6.164   6.586  65.512  1.00  0.00    -0.034 C  
HETATM   38  C   UNL     1      -8.520   6.059  66.201  1.00  0.00    -0.134 C  
ENDBRANCH  32  36
ENDBRANCH  23  25
ENDBRANCH  16  18
ENDBRANCH  13  16
ENDBRANCH   9  10
ENDBRANCH   6   9
ENDBRANCH   2   3
TORSDOF 7
ENDMDL
MODEL      188
REMARK 921   NORMALIZED FREE ENERGY PREDICTED BY IDOCK:   -0.72 KCAL/MOL
REMARK 922        TOTAL FREE ENERGY PREDICTED BY IDOCK:   -1.89 KCAL/MOL
REMARK 923 INTER-LIGAND FREE ENERGY PREDICTED BY IDOCK:   -3.60 KCAL/MOL
REMARK 924 INTRA-LIGAND FREE ENERGY PREDICTED BY IDOCK:    1.71 KCAL/MOL
REMARK 927      BINDING AFFINITY PREDICTED BY RF-SCORE:    0.00 PKD
ROOT
HETATM    1  C   UNL     1      -7.875   8.883  67.494  1.00  0.00    -0.101 C  
HETATM    2  C   UNL     1      -8.858   7.726  67.355  1.00  0.00    -0.127 C  
ENDROOT
BRANCH   2   3
HETATM    3  N   UNL     1     -10.273   8.117  67.471  1.00  0.00    -0.222 NA 
HETATM    4  C   UNL     1     -11.113   6.919  67.707  1.00  0.00    -0.146 C  
HETATM    5  C   UNL     1     -11.072   6.377  69.158  1.00  0.00    -0.365 C  
HETATM    6  N   UNL     1     -11.361   7.389  70.201  1.00  0.00    -0.224 NA 
HETATM    7  C   UNL     1     -10.528   9.112  68.532  1.00  0.00    -0.204 C  
HETATM    8  C   UNL     1     -10.472   8.550  69.973  1.00  0.00    -0.223 C  
BRANCH   6   9
HETATM    9  C   UNL     1     -12.772   7.823  70.189  1.00  0.00     1.163 C  
BRANCH   9  10
HETATM   10  C   UNL     1     -13.023   9.060  71.004  1.00  0.00    -0.090 A  
HETATM   11  C   UNL     1     -13.878   9.037  72.101  1.00  0.00    -0.526 A  
HETATM   12  C   UNL     1     -14.092  10.208  72.813  1.00  0.00     0.860 A  
HETATM   13  C   UNL     1     -13.457  11.388  72.420  1.00  0.00     0.316 A  
HETATM   14  N   UNL     1     -12.606  11.423  71.374  1.00  0.00    -0.362 NA 
HETATM   15  C   UNL     1     -12.417  10.271  70.689  1.00  0.00    -0.318 A  
BRANCH  13  16
HETATM   16  N   UNL     1     -13.624  12.561  73.147  1.00  0.00     0.304 NA 
HETATM   17  H   UNL     1     -14.095  12.480  74.048  1.00  0.00     0.000 HD 
BRANCH  16  18
HETATM   18  C   UNL     1     -13.212  13.829  72.768  1.00  0.00    -0.387 A  
HETATM   19  N   UNL     1     -13.611  14.856  73.532  1.00  0.00    -0.110 NA 
HETATM   20  C   UNL     1     -13.276  16.091  73.113  1.00  0.00    -0.537 A  
HETATM   21  C   UNL     1     -12.489  16.328  72.012  1.00  0.00    -0.200 A  
HETATM   22  F   UNL     1     -12.181  17.585  71.666  1.00  0.00     1.827 F  
HETATM   23  C   UNL     1     -12.051  15.222  71.313  1.00  0.00    -0.349 A  
HETATM   24  N   UNL     1     -12.450  13.978  71.668  1.00  0.00    -0.316 NA 
BRANCH  23  25
HETATM   25  C   UNL     1     -11.099  15.276  70.179  1.00  0.00    -0.312 A  
HETATM   26  C   UNL     1     -10.734  14.101  69.497  1.00  0.00    -0.051 A  
HETATM   27  C   UNL     1      -9.869  14.131  68.404  1.00  0.00    -0.231 A  
HETATM   28  C   UNL     1      -9.339  15.346  67.958  1.00  0.00    -0.196 A  
HETATM   29  F   UNL     1      -9.558  12.976  67.794  1.00  0.00    -0.185 F  
HETATM   30  N   UNL     1      -8.482  15.606  66.929  1.00  0.00    -0.228 NA 
HETATM   31  C   UNL     1      -8.278  16.904  66.929  1.00  0.00    -0.213 A  
HETATM   32  N   UNL     1      -8.998  17.522  67.938  1.00  0.00    -0.246 NA 
HETATM   33  C   UNL     1      -7.367  17.561  65.955  1.00  0.00    -0.288 C  
HETATM   34  C   UNL     1     -10.574  16.514  69.719  1.00  0.00    -0.265 A  
HETATM   35  C   UNL     1      -9.694  16.525  68.614  1.00  0.00    -0.247 A  
BRANCH  32  36
HETATM   36  C   UNL     1      -9.003  18.934  68.330  1.00  0.00    -0.328 C  
HETATM   37  C   UNL     1      -7.767  19.427  69.092  1.00  0.00    -0.287 C  
HETATM   38  C   UNL     1     -10.273  19.290  69.103  1.00  0.00    -0.188 C  
ENDBRANCH  32  36
ENDBRANCH  23  25
ENDBRANCH  16  18
ENDBRANCH  13  16
ENDBRANCH   9  10
ENDBRANCH   6   9
ENDBRANCH   2   3
TORSDOF 7
ENDMDL
MODEL      189
REMARK 921   NORMALIZED FREE ENERGY PREDICTED BY IDOCK:   -0.71 KCAL/MOL
REMARK 922        TOTAL FREE ENERGY PREDICTED BY IDOCK:   -1.88 KCAL/MOL
REMARK 923 INTER-LIGAND FREE ENERGY PREDICTED BY IDOCK:   -2.23 KCAL/MOL
REMARK 924 INTRA-LIGAND FREE ENERGY PREDICTED BY IDOCK:    0.36 KCAL/MOL
REMARK 927      BINDING AFFINITY PREDICTED BY RF-SCORE:    0.00 PKD
ROOT
HETATM    1  C   UNL     1     -11.850  20.379  66.467  1.00  0.00     2.808 C  
HETATM    2  C   UNL     1     -11.005  19.405  67.279  1.00  0.00    -0.342 C  
ENDROOT
BRANCH   2   3
HETATM    3  N   UNL     1      -9.834  18.875  66.560  1.00  0.00    -0.348 NA 
HETATM    4  C   UNL     1      -8.588  19.267  67.260  1.00  0.00    -0.292 C  
HETATM    5  C   UNL     1      -8.271  18.436  68.528  1.00  0.00    -0.318 C  
HETATM    6  N   UNL     1      -8.272  16.969  68.319  1.00  0.00    -0.218 NA 
HETATM    7  C   UNL     1      -9.859  17.409  66.385  1.00  0.00    -0.302 C  
HETATM    8  C   UNL     1      -9.549  16.600  67.667  1.00  0.00    -0.239 C  
BRANCH   6   9
HETATM    9  C   UNL     1      -7.134  16.517  67.493  1.00  0.00    -0.143 C  
BRANCH   9  10
HETATM   10  C   UNL     1      -6.740  15.090  67.749  1.00  0.00    -0.188 A  
HETATM   11  C   UNL     1      -7.545  14.036  67.331  1.00  0.00    -0.167 A  
HETATM   12  C   UNL     1      -7.148  12.735  67.606  1.00  0.00    -0.145 A  
HETATM   13  C   UNL     1      -5.958  12.502  68.299  1.00  0.00    -0.061 A  
HETATM   14  N   UNL     1      -5.153  13.512  68.689  1.00  0.00    -0.070 NA 
HETATM   15  C   UNL     1      -5.562  14.772  68.418  1.00  0.00    -0.110 A  
BRANCH  13  16
HETATM   16  N   UNL     1      -5.520  11.206  68.543  1.00  0.00    -0.043 NA 
HETATM   17  H   UNL     1      -5.037  10.732  67.780  1.00  0.00     0.000 HD 
BRANCH  16  18
HETATM   18  C   UNL     1      -5.678  10.494  69.722  1.00  0.00    -0.048 A  
HETATM   19  N   UNL     1      -5.134  11.017  70.830  1.00  0.00    -0.094 NA 
HETATM   20  C   UNL     1      -5.220  10.281  71.954  1.00  0.00    -0.001 A  
HETATM   21  C   UNL     1      -5.900   9.089  72.028  1.00  0.00    -0.074 A  
HETATM   22  F   UNL     1      -5.958   8.421  73.187  1.00  0.00    -0.059 F  
HETATM   23  C   UNL     1      -6.497   8.644  70.867  1.00  0.00    -0.047 A  
HETATM   24  N   UNL     1      -6.348   9.326  69.707  1.00  0.00    -0.038 NA 
BRANCH  23  25
HETATM   25  C   UNL     1      -7.370   7.450  70.785  1.00  0.00    -0.069 A  
HETATM   26  C   UNL     1      -8.040   7.136  69.588  1.00  0.00    -0.129 A  
HETATM   27  C   UNL     1      -8.838   5.998  69.475  1.00  0.00    -0.125 A  
HETATM   28  C   UNL     1      -8.990   5.133  70.563  1.00  0.00    -0.134 A  
HETATM   29  F   UNL     1      -9.451   5.753  68.306  1.00  0.00    -0.115 F  
HETATM   30  N   UNL     1      -9.716   3.984  70.677  1.00  0.00    -0.196 NA 
HETATM   31  C   UNL     1      -9.542   3.550  71.906  1.00  0.00    -0.148 A  
HETATM   32  N   UNL     1      -8.697   4.388  72.616  1.00  0.00    -0.108 NA 
HETATM   33  C   UNL     1     -10.207   2.322  72.411  1.00  0.00    -0.222 C  
HETATM   34  C   UNL     1      -7.512   6.565  71.888  1.00  0.00    -0.092 A  
HETATM   35  C   UNL     1      -8.329   5.420  71.757  1.00  0.00    -0.119 A  
BRANCH  32  36
HETATM   36  C   UNL     1      -8.300   4.312  74.023  1.00  0.00    -0.095 C  
HETATM   37  C   UNL     1      -7.435   5.466  74.544  1.00  0.00    -0.081 C  
HETATM   38  C   UNL     1      -7.632   2.972  74.338  1.00  0.00    -0.056 C  
ENDBRANCH  32  36
ENDBRANCH  23  25
ENDBRANCH  16  18
ENDBRANCH  13  16
ENDBRANCH   9  10
ENDBRANCH   6   9
ENDBRANCH   2   3
TORSDOF 7
ENDMDL
MODEL      190
REMARK 921   NORMALIZED FREE ENERGY PREDICTED BY IDOCK:   -0.70 KCAL/MOL
REMARK 922        TOTAL FREE ENERGY PREDICTED BY IDOCK:   -1.86 KCAL/MOL
REMARK 923 INTER-LIGAND FREE ENERGY PREDICTED BY IDOCK:   -1.57 KCAL/MOL
REMARK 924 INTRA-LIGAND FREE ENERGY PREDICTED BY IDOCK:   -0.29 KCAL/MOL
REMARK 927      BINDING AFFINITY PREDICTED BY RF-SCORE:    0.00 PKD
ROOT
HETATM    1  C   UNL     1     -11.756  14.649  72.725  1.00  0.00     0.053 C  
HETATM    2  C   UNL     1     -11.165  13.507  71.906  1.00  0.00     3.659 C  
ENDROOT
BRANCH   2   3
HETATM    3  N   UNL     1     -12.042  13.018  70.829  1.00  0.00    -0.276 NA 
HETATM    4  C   UNL     1     -12.314  14.108  69.861  1.00  0.00    -0.327 C  
HETATM    5  C   UNL     1     -11.154  14.402  68.877  1.00  0.00    -0.259 C  
HETATM    6  N   UNL     1     -10.651  13.215  68.147  1.00  0.00    -0.238 NA 
HETATM    7  C   UNL     1     -11.502  11.847  70.110  1.00  0.00    -0.049 C  
HETATM    8  C   UNL     1     -10.338  12.163  69.140  1.00  0.00     0.124 C  
BRANCH   6   9
HETATM    9  C   UNL     1     -11.626  12.705  67.161  1.00  0.00    -0.368 C  
BRANCH   9  10
HETATM   10  C   UNL     1     -10.996  11.900  66.060  1.00  0.00    -0.355 A  
HETATM   11  C   UNL     1     -11.548  11.872  64.784  1.00  0.00    -0.302 A  
HETATM   12  C   UNL     1     -10.941  11.100  63.804  1.00  0.00    -0.256 A  
HETATM   13  C   UNL     1      -9.796  10.361  64.110  1.00  0.00    -0.313 A  
HETATM   14  N   UNL     1      -9.233  10.397  65.335  1.00  0.00    -0.179 NA 
HETATM   15  C   UNL     1      -9.845  11.150  66.278  1.00  0.00    -0.214 A  
BRANCH  13  16
HETATM   16  N   UNL     1      -9.147   9.618  63.130  1.00  0.00    -0.362 NA 
HETATM   17  H   UNL     1      -9.365   9.848  62.160  1.00  0.00     0.000 HD 
BRANCH  16  18
HETATM   18  C   UNL     1      -8.236   8.596  63.342  1.00  0.00    -0.155 A  
HETATM   19  N   UNL     1      -7.236   8.475  62.457  1.00  0.00    -0.097 NA 
HETATM   20  C   UNL     1      -6.402   7.431  62.623  1.00  0.00    -0.058 A  
HETATM   21  C   UNL     1      -6.480   6.562  63.685  1.00  0.00    -0.040 A  
HETATM   22  F   UNL     1      -5.602   5.556  63.794  1.00  0.00    -0.013 F  
HETATM   23  C   UNL     1      -7.489   6.788  64.598  1.00  0.00    -0.097 A  
HETATM   24  N   UNL     1      -8.390   7.778  64.401  1.00  0.00    -0.035 NA 
BRANCH  23  25
HETATM   25  C   UNL     1      -7.652   6.033  65.862  1.00  0.00    -0.087 A  
HETATM   26  C   UNL     1      -7.549   4.630  65.874  1.00  0.00    -0.090 A  
HETATM   27  C   UNL     1      -7.662   3.899  67.056  1.00  0.00    -0.084 A  
HETATM   28  C   UNL     1      -7.882   4.556  68.272  1.00  0.00    -0.080 A  
HETATM   29  F   UNL     1      -7.555   2.562  67.003  1.00  0.00    -0.065 F  
HETATM   30  N   UNL     1      -8.029   4.050  69.530  1.00  0.00    -0.056 NA 
HETATM   31  C   UNL     1      -8.229   5.076  70.327  1.00  0.00    -0.088 A  
HETATM   32  N   UNL     1      -8.205   6.268  69.620  1.00  0.00    -0.122 NA 
HETATM   33  C   UNL     1      -8.460   4.910  71.785  1.00  0.00    -0.124 C  
HETATM   34  C   UNL     1      -7.861   6.704  67.097  1.00  0.00    -0.105 A  
HETATM   35  C   UNL     1      -7.979   5.947  68.285  1.00  0.00    -0.109 A  
BRANCH  32  36
HETATM   36  C   UNL     1      -8.452   7.627  70.107  1.00  0.00    -0.138 C  
HETATM   37  C   UNL     1      -9.901   8.122  70.022  1.00  0.00    -0.182 C  
HETATM   38  C   UNL     1      -7.513   8.633  69.438  1.00  0.00    -0.080 C  
ENDBRANCH  32  36
ENDBRANCH  23  25
ENDBRANCH  16  18
ENDBRANCH  13  16
ENDBRANCH   9  10
ENDBRANCH   6   9
ENDBRANCH   2   3
TORSDOF 7
ENDMDL
MODEL      191
REMARK 921   NORMALIZED FREE ENERGY PREDICTED BY IDOCK:   -0.55 KCAL/MOL
REMARK 922        TOTAL FREE ENERGY PREDICTED BY IDOCK:   -1.65 KCAL/MOL
REMARK 923 INTER-LIGAND FREE ENERGY PREDICTED BY IDOCK:   -4.37 KCAL/MOL
REMARK 924 INTRA-LIGAND FREE ENERGY PREDICTED BY IDOCK:    2.73 KCAL/MOL
REMARK 927      BINDING AFFINITY PREDICTED BY RF-SCORE:    0.00 PKD
ROOT
HETATM    1  C   UNL     1      -6.534   4.629  69.456  1.00  0.00    -0.032 C  
HETATM    2  C   UNL     1      -7.295   4.830  68.150  1.00  0.00    -0.066 C  
ENDROOT
BRANCH   2   3
HETATM    3  N   UNL     1      -7.065   6.136  67.511  1.00  0.00    -0.072 NA 
HETATM    4  C   UNL     1      -7.388   6.058  66.066  1.00  0.00    -0.077 C  
HETATM    5  C   UNL     1      -8.902   6.087  65.741  1.00  0.00    -0.135 C  
HETATM    6  N   UNL     1      -9.640   7.221  66.345  1.00  0.00    -0.146 NA 
HETATM    7  C   UNL     1      -7.830   7.240  68.126  1.00  0.00    -0.118 C  
HETATM    8  C   UNL     1      -9.342   7.242  67.795  1.00  0.00    -0.128 C  
BRANCH   6   9
HETATM    9  C   UNL     1      -9.279   8.517  65.736  1.00  0.00    -0.146 C  
BRANCH   9  10
HETATM   10  C   UNL     1      -8.188   9.240  66.474  1.00  0.00    -0.107 A  
HETATM   11  C   UNL     1      -6.907   9.342  65.943  1.00  0.00    -0.088 A  
HETATM   12  C   UNL     1      -5.928  10.005  66.670  1.00  0.00    -0.056 A  
HETATM   13  C   UNL     1      -6.237  10.552  67.917  1.00  0.00    -0.058 A  
HETATM   14  N   UNL     1      -7.481  10.485  68.434  1.00  0.00    -0.088 NA 
HETATM   15  C   UNL     1      -8.418   9.828  67.713  1.00  0.00    -0.121 A  
BRANCH  13  16
HETATM   16  N   UNL     1      -5.282  11.259  68.639  1.00  0.00    -0.043 NA 
HETATM   17  H   UNL     1      -4.350  10.848  68.694  1.00  0.00     0.000 HD 
BRANCH  16  18
HETATM   18  C   UNL     1      -5.472  12.467  69.290  1.00  0.00    -0.071 A  
HETATM   19  N   UNL     1      -5.145  12.520  70.589  1.00  0.00    -0.110 NA 
HETATM   20  C   UNL     1      -5.408  13.671  71.235  1.00  0.00    -0.194 A  
HETATM   21  C   UNL     1      -5.904  14.792  70.613  1.00  0.00    -0.149 A  
HETATM   22  F   UNL     1      -6.124  15.909  71.318  1.00  0.00     0.276 F  
HETATM   23  C   UNL     1      -6.150  14.691  69.259  1.00  0.00    -0.107 A  
HETATM   24  N   UNL     1      -5.975  13.516  68.610  1.00  0.00    -0.081 NA 
BRANCH  23  25
HETATM   25  C   UNL     1      -6.567  15.825  68.402  1.00  0.00    -0.116 A  
HETATM   26  C   UNL     1      -5.722  16.296  67.380  1.00  0.00    -0.168 A  
HETATM   27  C   UNL     1      -6.106  17.337  66.536  1.00  0.00    -0.216 A  
HETATM   28  C   UNL     1      -7.358  17.942  66.690  1.00  0.00    -0.225 A  
HETATM   29  F   UNL     1      -5.256  17.741  65.580  1.00  0.00    -0.187 F  
HETATM   30  N   UNL     1      -7.930  18.966  65.993  1.00  0.00    -0.456 NA 
HETATM   31  C   UNL     1      -9.110  19.174  66.533  1.00  0.00    -0.341 A  
HETATM   32  N   UNL     1      -9.343  18.294  67.577  1.00  0.00    -0.260 NA 
HETATM   33  C   UNL     1     -10.022  20.243  66.050  1.00  0.00    -0.397 C  
HETATM   34  C   UNL     1      -7.845  16.428  68.551  1.00  0.00    -0.197 A  
HETATM   35  C   UNL     1      -8.216  17.486  67.691  1.00  0.00    -0.215 A  
BRANCH  32  36
HETATM   36  C   UNL     1     -10.492  18.230  68.484  1.00  0.00    -0.216 C  
HETATM   37  C   UNL     1     -10.280  18.820  69.884  1.00  0.00     0.838 C  
HETATM   38  C   UNL     1     -11.034  16.804  68.591  1.00  0.00    -0.298 C  
ENDBRANCH  32  36
ENDBRANCH  23  25
ENDBRANCH  16  18
ENDBRANCH  13  16
ENDBRANCH   9  10
ENDBRANCH   6   9
ENDBRANCH   2   3
TORSDOF 7
ENDMDL
MODEL      192
REMARK 921   NORMALIZED FREE ENERGY PREDICTED BY IDOCK:   -0.51 KCAL/MOL
REMARK 922        TOTAL FREE ENERGY PREDICTED BY IDOCK:   -1.59 KCAL/MOL
REMARK 923 INTER-LIGAND FREE ENERGY PREDICTED BY IDOCK:   -3.91 KCAL/MOL
REMARK 924 INTRA-LIGAND FREE ENERGY PREDICTED BY IDOCK:    2.32 KCAL/MOL
REMARK 927      BINDING AFFINITY PREDICTED BY RF-SCORE:    0.00 PKD
ROOT
HETATM    1  C   UNL     1     -11.765  12.012  67.984  1.00  0.00    -0.398 C  
HETATM    2  C   UNL     1     -11.354  13.205  68.840  1.00  0.00    -0.289 C  
ENDROOT
BRANCH   2   3
HETATM    3  N   UNL     1      -9.926  13.227  69.200  1.00  0.00     0.213 NA 
HETATM    4  C   UNL     1      -9.277  11.962  68.782  1.00  0.00     0.034 C  
HETATM    5  C   UNL     1      -8.965  11.866  67.268  1.00  0.00    -0.176 C  
HETATM    6  N   UNL     1      -8.197  13.011  66.724  1.00  0.00     0.030 NA 
HETATM    7  C   UNL     1      -9.188  14.371  68.626  1.00  0.00    -0.181 C  
HETATM    8  C   UNL     1      -8.897  14.257  67.111  1.00  0.00    -0.229 C  
BRANCH   6   9
HETATM    9  C   UNL     1      -6.805  13.040  67.214  1.00  0.00    -0.026 C  
BRANCH   9  10
HETATM   10  C   UNL     1      -6.498  11.952  68.205  1.00  0.00    -0.052 A  
HETATM   11  C   UNL     1      -6.447  12.217  69.569  1.00  0.00    -0.094 A  
HETATM   12  C   UNL     1      -6.143  11.184  70.445  1.00  0.00    -0.126 A  
HETATM   13  C   UNL     1      -5.888   9.904  69.949  1.00  0.00    -0.043 A  
HETATM   14  N   UNL     1      -5.959   9.624  68.632  1.00  0.00    -0.043 NA 
HETATM   15  C   UNL     1      -6.250  10.647  67.795  1.00  0.00    -0.054 A  
BRANCH  13  16
HETATM   16  N   UNL     1      -5.627   8.847  70.813  1.00  0.00    -0.028 NA 
HETATM   17  H   UNL     1      -4.903   8.996  71.517  1.00  0.00     0.000 HD 
BRANCH  16  18
HETATM   18  C   UNL     1      -6.253   7.610  70.813  1.00  0.00    -0.034 A  
HETATM   19  N   UNL     1      -6.105   6.849  71.907  1.00  0.00    -0.038 NA 
HETATM   20  C   UNL     1      -6.647   5.617  71.867  1.00  0.00    -0.057 A  
HETATM   21  C   UNL     1      -7.400   5.156  70.814  1.00  0.00    -0.069 A  
HETATM   22  F   UNL     1      -7.924   3.924  70.853  1.00  0.00    -0.055 F  
HETATM   23  C   UNL     1      -7.574   6.018  69.751  1.00  0.00    -0.081 A  
HETATM   24  N   UNL     1      -6.964   7.227  69.735  1.00  0.00    -0.056 NA 
BRANCH  23  25
HETATM   25  C   UNL     1      -8.451   5.742  68.589  1.00  0.00    -0.107 A  
HETATM   26  C   UNL     1      -9.549   6.577  68.309  1.00  0.00    -0.131 A  
HETATM   27  C   UNL     1     -10.367   6.360  67.202  1.00  0.00    -0.232 A  
HETATM   28  C   UNL     1     -10.108   5.294  66.333  1.00  0.00    -0.226 A  
HETATM   29  F   UNL     1     -11.400   7.190  66.988  1.00  0.00    -0.419 F  
HETATM   30  N   UNL     1     -10.771   4.896  65.210  1.00  0.00     0.039 NA 
HETATM   31  C   UNL     1     -10.143   3.833  64.760  1.00  0.00    -0.170 A  
HETATM   32  N   UNL     1      -9.058   3.519  65.561  1.00  0.00    -0.141 NA 
HETATM   33  C   UNL     1     -10.599   3.099  63.551  1.00  0.00    -0.251 C  
HETATM   34  C   UNL     1      -8.177   4.668  67.701  1.00  0.00    -0.100 A  
HETATM   35  C   UNL     1      -9.020   4.459  66.587  1.00  0.00    -0.117 A  
BRANCH  32  36
HETATM   36  C   UNL     1      -8.140   2.381  65.459  1.00  0.00    -0.084 C  
HETATM   37  C   UNL     1      -7.189   2.172  66.643  1.00  0.00    -0.056 C  
HETATM   38  C   UNL     1      -7.349   2.425  64.151  1.00  0.00    -0.058 C  
ENDBRANCH  32  36
ENDBRANCH  23  25
ENDBRANCH  16  18
ENDBRANCH  13  16
ENDBRANCH   9  10
ENDBRANCH   6   9
ENDBRANCH   2   3
TORSDOF 7
ENDMDL
MODEL      193
REMARK 921   NORMALIZED FREE ENERGY PREDICTED BY IDOCK:   -0.47 KCAL/MOL
REMARK 922        TOTAL FREE ENERGY PREDICTED BY IDOCK:   -1.54 KCAL/MOL
REMARK 923 INTER-LIGAND FREE ENERGY PREDICTED BY IDOCK:   -4.21 KCAL/MOL
REMARK 924 INTRA-LIGAND FREE ENERGY PREDICTED BY IDOCK:    2.68 KCAL/MOL
REMARK 927      BINDING AFFINITY PREDICTED BY RF-SCORE:    0.00 PKD
ROOT
HETATM    1  C   UNL     1      -7.789   9.677  63.020  1.00  0.00    -0.127 C  
HETATM    2  C   UNL     1      -7.940  10.877  63.948  1.00  0.00     0.343 C  
ENDROOT
BRANCH   2   3
HETATM    3  N   UNL     1      -9.153  10.847  64.782  1.00  0.00    -0.197 NA 
HETATM    4  C   UNL     1      -9.206  12.051  65.645  1.00  0.00    -0.003 C  
HETATM    5  C   UNL     1      -9.653  13.345  64.920  1.00  0.00     0.335 C  
HETATM    6  N   UNL     1     -10.927  13.224  64.173  1.00  0.00    -0.385 NA 
HETATM    7  C   UNL     1     -10.405  10.744  64.004  1.00  0.00    -0.286 C  
HETATM    8  C   UNL     1     -10.825  12.046  63.282  1.00  0.00    -0.334 C  
BRANCH   6   9
HETATM    9  C   UNL     1     -12.093  13.081  65.068  1.00  0.00    -0.427 C  
BRANCH   9  10
HETATM   10  C   UNL     1     -11.765  12.422  66.377  1.00  0.00    -0.453 A  
HETATM   11  C   UNL     1     -11.918  11.051  66.550  1.00  0.00     1.428 A  
HETATM   12  C   UNL     1     -11.617  10.490  67.783  1.00  0.00     0.043 A  
HETATM   13  C   UNL     1     -11.175  11.303  68.829  1.00  0.00    -0.250 A  
HETATM   14  N   UNL     1     -10.997  12.631  68.671  1.00  0.00    -0.247 NA 
HETATM   15  C   UNL     1     -11.302  13.158  67.463  1.00  0.00    -0.298 A  
BRANCH  13  16
HETATM   16  N   UNL     1     -10.826  10.753  70.057  1.00  0.00    -0.457 NA 
HETATM   17  H   UNL     1     -10.341  11.365  70.714  1.00  0.00     0.000 HD 
BRANCH  16  18
HETATM   18  C   UNL     1     -11.073   9.456  70.477  1.00  0.00    -0.273 A  
HETATM   19  N   UNL     1     -11.917   9.296  71.507  1.00  0.00    -0.342 NA 
HETATM   20  C   UNL     1     -12.089   8.041  71.962  1.00  0.00    -0.331 A  
HETATM   21  C   UNL     1     -11.519   6.938  71.372  1.00  0.00    -0.282 A  
HETATM   22  F   UNL     1     -11.750   5.716  71.870  1.00  0.00    -0.295 F  
HETATM   23  C   UNL     1     -10.719   7.167  70.272  1.00  0.00    -0.238 A  
HETATM   24  N   UNL     1     -10.464   8.429  69.854  1.00  0.00    -0.219 NA 
BRANCH  23  25
HETATM   25  C   UNL     1     -10.122   6.098  69.439  1.00  0.00    -0.230 A  
HETATM   26  C   UNL     1     -10.172   4.755  69.857  1.00  0.00    -0.238 A  
HETATM   27  C   UNL     1      -9.651   3.726  69.074  1.00  0.00    -0.120 A  
HETATM   28  C   UNL     1      -9.061   4.012  67.838  1.00  0.00    -0.141 A  
HETATM   29  F   UNL     1      -9.728   2.465  69.528  1.00  0.00    -0.187 F  
HETATM   30  N   UNL     1      -8.489   3.176  66.924  1.00  0.00    -0.099 NA 
HETATM   31  C   UNL     1      -8.068   3.933  65.935  1.00  0.00    -0.101 A  
HETATM   32  N   UNL     1      -8.362   5.267  66.169  1.00  0.00    -0.114 NA 
HETATM   33  C   UNL     1      -7.361   3.370  64.756  1.00  0.00    -0.071 C  
HETATM   34  C   UNL     1      -9.536   6.389  68.178  1.00  0.00    -0.115 A  
HETATM   35  C   UNL     1      -9.008   5.334  67.400  1.00  0.00    -0.108 A  
BRANCH  32  36
HETATM   36  C   UNL     1      -8.010   6.438  65.362  1.00  0.00    -0.116 C  
HETATM   37  C   UNL     1      -8.829   6.647  64.083  1.00  0.00     0.757 C  
HETATM   38  C   UNL     1      -6.515   6.459  65.039  1.00  0.00    -0.038 C  
ENDBRANCH  32  36
ENDBRANCH  23  25
ENDBRANCH  16  18
ENDBRANCH  13  16
ENDBRANCH   9  10
ENDBRANCH   6   9
ENDBRANCH   2   3
TORSDOF 7
ENDMDL
MODEL      194
REMARK 921   NORMALIZED FREE ENERGY PREDICTED BY IDOCK:   -0.43 KCAL/MOL
REMARK 922        TOTAL FREE ENERGY PREDICTED BY IDOCK:   -1.48 KCAL/MOL
REMARK 923 INTER-LIGAND FREE ENERGY PREDICTED BY IDOCK:   -1.23 KCAL/MOL
REMARK 924 INTRA-LIGAND FREE ENERGY PREDICTED BY IDOCK:   -0.24 KCAL/MOL
REMARK 927      BINDING AFFINITY PREDICTED BY RF-SCORE:    0.00 PKD
ROOT
HETATM    1  C   UNL     1     -11.374  20.106  68.479  1.00  0.00     1.661 C  
HETATM    2  C   UNL     1     -11.397  18.672  67.963  1.00  0.00     0.803 C  
ENDROOT
BRANCH   2   3
HETATM    3  N   UNL     1     -10.133  17.941  68.152  1.00  0.00    -0.345 NA 
HETATM    4  C   UNL     1     -10.302  16.891  69.184  1.00  0.00    -0.319 C  
HETATM    5  C   UNL     1     -11.044  15.621  68.697  1.00  0.00    -0.317 C  
HETATM    6  N   UNL     1     -10.480  15.012  67.469  1.00  0.00    -0.252 NA 
HETATM    7  C   UNL     1      -9.609  17.332  66.912  1.00  0.00    -0.268 C  
HETATM    8  C   UNL     1     -10.372  16.070  66.440  1.00  0.00    -0.305 C  
BRANCH   6   9
HETATM    9  C   UNL     1      -9.158  14.396  67.702  1.00  0.00    -0.194 C  
BRANCH   9  10
HETATM   10  C   UNL     1      -9.193  12.894  67.715  1.00  0.00    -0.200 A  
HETATM   11  C   UNL     1      -9.130  12.183  68.909  1.00  0.00     0.230 A  
HETATM   12  C   UNL     1      -9.148  10.797  68.869  1.00  0.00    -0.170 A  
HETATM   13  C   UNL     1      -9.223  10.136  67.641  1.00  0.00    -0.141 A  
HETATM   14  N   UNL     1      -9.311  10.809  66.476  1.00  0.00    -0.165 NA 
HETATM   15  C   UNL     1      -9.284  12.161  66.536  1.00  0.00    -0.216 A  
BRANCH  13  16
HETATM   16  N   UNL     1      -9.289   8.749  67.584  1.00  0.00    -0.136 NA 
HETATM   17  H   UNL     1     -10.040   8.346  67.023  1.00  0.00     0.000 HD 
BRANCH  16  18
HETATM   18  C   UNL     1      -8.434   7.859  68.214  1.00  0.00    -0.124 A  
HETATM   19  N   UNL     1      -8.224   8.036  69.527  1.00  0.00    -0.120 NA 
HETATM   20  C   UNL     1      -7.330   7.219  70.114  1.00  0.00    -0.079 A  
HETATM   21  C   UNL     1      -6.707   6.184  69.460  1.00  0.00    -0.052 A  
HETATM   22  F   UNL     1      -5.841   5.400  70.116  1.00  0.00    -0.014 F  
HETATM   23  C   UNL     1      -7.023   6.013  68.128  1.00  0.00    -0.076 A  
HETATM   24  N   UNL     1      -7.852   6.877  67.498  1.00  0.00    -0.110 NA 
BRANCH  23  25
HETATM   25  C   UNL     1      -6.546   4.882  67.298  1.00  0.00    -0.050 A  
HETATM   26  C   UNL     1      -6.103   3.690  67.901  1.00  0.00    -0.032 A  
HETATM   27  C   UNL     1      -5.684   2.600  67.141  1.00  0.00    -0.022 A  
HETATM   28  C   UNL     1      -5.697   2.668  65.744  1.00  0.00    -0.018 A  
HETATM   29  F   UNL     1      -5.272   1.490  67.775  1.00  0.00    -0.009 F  
HETATM   30  N   UNL     1      -5.330   1.738  64.816  1.00  0.00    -0.005 NA 
HETATM   31  C   UNL     1      -5.515   2.290  63.637  1.00  0.00    -0.008 A  
HETATM   32  N   UNL     1      -6.015   3.577  63.763  1.00  0.00    -0.014 NA 
HETATM   33  C   UNL     1      -5.196   1.579  62.373  1.00  0.00     0.000 C  
HETATM   34  C   UNL     1      -6.573   4.950  65.879  1.00  0.00    -0.045 A  
HETATM   35  C   UNL     1      -6.140   3.836  65.124  1.00  0.00    -0.023 A  
BRANCH  32  36
HETATM   36  C   UNL     1      -6.294   4.559  62.712  1.00  0.00    -0.025 C  
HETATM   37  C   UNL     1      -5.769   5.979  62.959  1.00  0.00    -0.018 C  
HETATM   38  C   UNL     1      -7.785   4.601  62.377  1.00  0.00    -0.056 C  
ENDBRANCH  32  36
ENDBRANCH  23  25
ENDBRANCH  16  18
ENDBRANCH  13  16
ENDBRANCH   9  10
ENDBRANCH   6   9
ENDBRANCH   2   3
TORSDOF 7
ENDMDL
MODEL      195
REMARK 921   NORMALIZED FREE ENERGY PREDICTED BY IDOCK:   -0.41 KCAL/MOL
REMARK 922        TOTAL FREE ENERGY PREDICTED BY IDOCK:   -1.45 KCAL/MOL
REMARK 923 INTER-LIGAND FREE ENERGY PREDICTED BY IDOCK:   -0.99 KCAL/MOL
REMARK 924 INTRA-LIGAND FREE ENERGY PREDICTED BY IDOCK:   -0.46 KCAL/MOL
REMARK 927      BINDING AFFINITY PREDICTED BY RF-SCORE:    0.00 PKD
ROOT
HETATM    1  C   UNL     1     -11.850  20.379  66.467  1.00  0.00     2.808 C  
HETATM    2  C   UNL     1     -11.008  19.403  67.280  1.00  0.00    -0.342 C  
ENDROOT
BRANCH   2   3
HETATM    3  N   UNL     1      -9.829  18.882  66.568  1.00  0.00    -0.348 NA 
HETATM    4  C   UNL     1      -8.590  19.275  67.280  1.00  0.00    -0.292 C  
HETATM    5  C   UNL     1      -8.280  18.438  68.546  1.00  0.00    -0.318 C  
HETATM    6  N   UNL     1      -8.274  16.973  68.329  1.00  0.00    -0.218 NA 
HETATM    7  C   UNL     1      -9.847  17.417  66.385  1.00  0.00    -0.302 C  
HETATM    8  C   UNL     1      -9.545  16.602  67.665  1.00  0.00    -0.239 C  
BRANCH   6   9
HETATM    9  C   UNL     1      -7.128  16.529  67.510  1.00  0.00    -0.143 C  
BRANCH   9  10
HETATM   10  C   UNL     1      -6.731  15.102  67.762  1.00  0.00    -0.185 A  
HETATM   11  C   UNL     1      -7.528  14.047  67.332  1.00  0.00    -0.147 A  
HETATM   12  C   UNL     1      -7.128  12.747  67.603  1.00  0.00    -0.145 A  
HETATM   13  C   UNL     1      -5.943  12.515  68.304  1.00  0.00    -0.061 A  
HETATM   14  N   UNL     1      -5.145  13.525  68.706  1.00  0.00    -0.071 NA 
HETATM   15  C   UNL     1      -5.557  14.785  68.438  1.00  0.00    -0.110 A  
BRANCH  13  16
HETATM   16  N   UNL     1      -5.503  11.218  68.545  1.00  0.00    -0.043 NA 
HETATM   17  H   UNL     1      -4.607  10.953  68.135  1.00  0.00     0.000 HD 
BRANCH  16  18
HETATM   18  C   UNL     1      -6.162  10.251  69.288  1.00  0.00    -0.045 A  
HETATM   19  N   UNL     1      -6.417  10.535  70.573  1.00  0.00    -0.288 NA 
HETATM   20  C   UNL     1      -6.983   9.560  71.309  1.00  0.00     0.117 A  
HETATM   21  C   UNL     1      -7.380   8.352  70.788  1.00  0.00    -0.060 A  
HETATM   22  F   UNL     1      -7.954   7.436  71.578  1.00  0.00    -0.091 F  
HETATM   23  C   UNL     1      -7.153   8.154  69.442  1.00  0.00    -0.055 A  
HETATM   24  N   UNL     1      -6.505   9.087  68.705  1.00  0.00    -0.053 NA 
BRANCH  23  25
HETATM   25  C   UNL     1      -7.620   6.969  68.684  1.00  0.00    -0.108 A  
HETATM   26  C   UNL     1      -7.454   6.904  67.288  1.00  0.00    -0.096 A  
HETATM   27  C   UNL     1      -7.852   5.785  66.558  1.00  0.00    -0.101 A  
HETATM   28  C   UNL     1      -8.431   4.690  67.207  1.00  0.00    -0.104 A  
HETATM   29  F   UNL     1      -7.668   5.782  65.228  1.00  0.00    -0.079 F  
HETATM   30  N   UNL     1      -8.895   3.512  66.698  1.00  0.00    -0.125 NA 
HETATM   31  C   UNL     1      -9.358   2.820  67.715  1.00  0.00    -0.190 A  
HETATM   32  N   UNL     1      -9.200   3.514  68.904  1.00  0.00    -0.150 NA 
HETATM   33  C   UNL     1      -9.973   1.479  67.543  1.00  0.00     0.677 C  
HETATM   34  C   UNL     1      -8.195   5.853  69.348  1.00  0.00    -0.113 A  
HETATM   35  C   UNL     1      -8.598   4.730  68.591  1.00  0.00    -0.093 A  
BRANCH  32  36
HETATM   36  C   UNL     1      -9.638   3.139  70.250  1.00  0.00    -0.110 C  
HETATM   37  C   UNL     1     -10.469   4.185  71.005  1.00  0.00     0.326 C  
HETATM   38  C   UNL     1      -8.458   2.686  71.111  1.00  0.00    -0.094 C  
ENDBRANCH  32  36
ENDBRANCH  23  25
ENDBRANCH  16  18
ENDBRANCH  13  16
ENDBRANCH   9  10
ENDBRANCH   6   9
ENDBRANCH   2   3
TORSDOF 7
ENDMDL
MODEL      196
REMARK 921   NORMALIZED FREE ENERGY PREDICTED BY IDOCK:   -0.36 KCAL/MOL
REMARK 922        TOTAL FREE ENERGY PREDICTED BY IDOCK:   -1.39 KCAL/MOL
REMARK 923 INTER-LIGAND FREE ENERGY PREDICTED BY IDOCK:   -5.53 KCAL/MOL
REMARK 924 INTRA-LIGAND FREE ENERGY PREDICTED BY IDOCK:    4.14 KCAL/MOL
REMARK 927      BINDING AFFINITY PREDICTED BY RF-SCORE:    0.00 PKD
ROOT
HETATM    1  C   UNL     1      -7.661  16.781  67.710  1.00  0.00    -0.180 C  
HETATM    2  C   UNL     1      -8.358  16.398  69.011  1.00  0.00    -0.225 C  
ENDROOT
BRANCH   2   3
HETATM    3  N   UNL     1      -9.465  15.442  68.845  1.00  0.00    -0.206 NA 
HETATM    4  C   UNL     1      -9.892  14.925  70.167  1.00  0.00     0.334 C  
HETATM    5  C   UNL     1     -10.768  15.903  70.990  1.00  0.00     0.181 C  
HETATM    6  N   UNL     1     -11.950  16.428  70.266  1.00  0.00     0.144 NA 
HETATM    7  C   UNL     1     -10.633  16.004  68.136  1.00  0.00    -0.286 C  
HETATM    8  C   UNL     1     -11.487  16.985  68.975  1.00  0.00     0.506 C  
BRANCH   6   9
HETATM    9  C   UNL     1     -12.974  15.390  70.031  1.00  0.00     0.037 C  
BRANCH   9  10
HETATM   10  C   UNL     1     -12.394  14.040  69.718  1.00  0.00    -0.344 A  
HETATM   11  C   UNL     1     -12.008  13.706  68.424  1.00  0.00    -0.391 A  
HETATM   12  C   UNL     1     -11.493  12.441  68.180  1.00  0.00    -0.370 A  
HETATM   13  C   UNL     1     -11.377  11.523  69.226  1.00  0.00    -0.288 A  
HETATM   14  N   UNL     1     -11.723  11.839  70.491  1.00  0.00    -0.187 NA 
HETATM   15  C   UNL     1     -12.229  13.075  70.706  1.00  0.00    -0.272 A  
BRANCH  13  16
HETATM   16  N   UNL     1     -10.822  10.267  69.010  1.00  0.00    -0.218 NA 
HETATM   17  H   UNL     1     -10.141  10.188  68.254  1.00  0.00     0.000 HD 
BRANCH  16  18
HETATM   18  C   UNL     1     -11.103   9.111  69.720  1.00  0.00    -0.125 A  
HETATM   19  N   UNL     1     -11.952   9.218  70.753  1.00  0.00    -0.251 NA 
HETATM   20  C   UNL     1     -12.157   8.109  71.488  1.00  0.00    -0.298 A  
HETATM   21  C   UNL     1     -11.615   6.885  71.178  1.00  0.00    -0.319 A  
HETATM   22  F   UNL     1     -11.878   5.820  71.947  1.00  0.00    -0.313 F  
HETATM   23  C   UNL     1     -10.808   6.830  70.061  1.00  0.00    -0.266 A  
HETATM   24  N   UNL     1     -10.520   7.951  69.360  1.00  0.00    -0.221 NA 
BRANCH  23  25
HETATM   25  C   UNL     1     -10.238   5.580  69.506  1.00  0.00    -0.331 A  
HETATM   26  C   UNL     1      -9.862   4.526  70.359  1.00  0.00    -0.302 A  
HETATM   27  C   UNL     1      -9.359   3.326  69.860  1.00  0.00    -0.164 A  
HETATM   28  C   UNL     1      -9.216   3.142  68.480  1.00  0.00    -0.171 A  
HETATM   29  F   UNL     1      -9.018   2.358  70.725  1.00  0.00    -0.105 F  
HETATM   30  N   UNL     1      -8.745   2.070  67.782  1.00  0.00    -0.090 NA 
HETATM   31  C   UNL     1      -8.799   2.397  66.510  1.00  0.00    -0.127 A  
HETATM   32  N   UNL     1      -9.312   3.673  66.345  1.00  0.00    -0.179 NA 
HETATM   33  C   UNL     1      -8.338   1.478  65.437  1.00  0.00    -0.082 C  
HETATM   34  C   UNL     1     -10.107   5.391  68.104  1.00  0.00    -0.220 A  
HETATM   35  C   UNL     1      -9.589   4.170  67.615  1.00  0.00    -0.163 A  
BRANCH  32  36
HETATM   36  C   UNL     1      -9.474   4.444  65.110  1.00  0.00    -0.170 C  
HETATM   37  C   UNL     1      -8.888   5.861  65.117  1.00  0.00     0.017 C  
HETATM   38  C   UNL     1     -10.939   4.484  64.671  1.00  0.00     0.115 C  
ENDBRANCH  32  36
ENDBRANCH  23  25
ENDBRANCH  16  18
ENDBRANCH  13  16
ENDBRANCH   9  10
ENDBRANCH   6   9
ENDBRANCH   2   3
TORSDOF 7
ENDMDL
MODEL      197
REMARK 921   NORMALIZED FREE ENERGY PREDICTED BY IDOCK:    0.46 KCAL/MOL
REMARK 922        TOTAL FREE ENERGY PREDICTED BY IDOCK:   -0.23 KCAL/MOL
REMARK 923 INTER-LIGAND FREE ENERGY PREDICTED BY IDOCK:   -4.00 KCAL/MOL
REMARK 924 INTRA-LIGAND FREE ENERGY PREDICTED BY IDOCK:    3.76 KCAL/MOL
REMARK 927      BINDING AFFINITY PREDICTED BY RF-SCORE:    0.00 PKD
ROOT
HETATM    1  C   UNL     1     -11.560  17.751  65.243  1.00  0.00     2.127 C  
HETATM    2  C   UNL     1     -10.104  17.475  65.599  1.00  0.00     0.010 C  
ENDROOT
BRANCH   2   3
HETATM    3  N   UNL     1      -9.864  16.143  66.177  1.00  0.00    -0.310 NA 
HETATM    4  C   UNL     1      -9.080  16.265  67.429  1.00  0.00    -0.195 C  
HETATM    5  C   UNL     1      -9.899  16.727  68.660  1.00  0.00    -0.261 C  
HETATM    6  N   UNL     1     -11.118  15.928  68.924  1.00  0.00    -0.294 NA 
HETATM    7  C   UNL     1     -11.101  15.381  66.444  1.00  0.00    -0.230 C  
HETATM    8  C   UNL     1     -11.906  15.867  67.672  1.00  0.00     0.315 C  
BRANCH   6   9
HETATM    9  C   UNL     1     -10.806  14.562  69.392  1.00  0.00    -0.226 C  
BRANCH   9  10
HETATM   10  C   UNL     1     -10.683  13.563  68.276  1.00  0.00    -0.271 A  
HETATM   11  C   UNL     1      -9.441  13.218  67.754  1.00  0.00    -0.208 A  
HETATM   12  C   UNL     1      -9.379  12.303  66.713  1.00  0.00    -0.218 A  
HETATM   13  C   UNL     1     -10.555  11.749  66.202  1.00  0.00    -0.260 A  
HETATM   14  N   UNL     1     -11.765  12.053  66.713  1.00  0.00    -0.580 NA 
HETATM   15  C   UNL     1     -11.804  12.952  67.723  1.00  0.00    -0.339 A  
BRANCH  13  16
HETATM   16  N   UNL     1     -10.509  10.796  65.190  1.00  0.00    -0.265 NA 
HETATM   17  H   UNL     1     -11.113  10.955  64.383  1.00  0.00     0.000 HD 
BRANCH  16  18
HETATM   18  C   UNL     1      -9.725   9.654  65.171  1.00  0.00    -0.217 A  
HETATM   19  N   UNL     1      -8.865   9.519  64.151  1.00  0.00    -0.219 NA 
HETATM   20  C   UNL     1      -8.166   8.370  64.095  1.00  0.00    -0.119 A  
HETATM   21  C   UNL     1      -8.233   7.395  65.061  1.00  0.00    -0.098 A  
HETATM   22  F   UNL     1      -7.493   6.285  64.947  1.00  0.00    -0.067 F  
HETATM   23  C   UNL     1      -9.085   7.631  66.121  1.00  0.00    -0.144 A  
HETATM   24  N   UNL     1      -9.860   8.740  66.151  1.00  0.00    -0.261 NA 
BRANCH  23  25
HETATM   25  C   UNL     1      -9.195   6.756  67.311  1.00  0.00    -0.140 A  
HETATM   26  C   UNL     1      -9.805   7.225  68.489  1.00  0.00    -0.159 A  
HETATM   27  C   UNL     1      -9.954   6.410  69.609  1.00  0.00    -0.164 A  
HETATM   28  C   UNL     1      -9.495   5.088  69.584  1.00  0.00    -0.143 A  
HETATM   29  F   UNL     1     -10.545   6.916  70.703  1.00  0.00    -0.221 F  
HETATM   30  N   UNL     1      -9.529   4.129  70.553  1.00  0.00    -0.156 NA 
HETATM   31  C   UNL     1      -8.958   3.060  70.043  1.00  0.00    -0.104 A  
HETATM   32  N   UNL     1      -8.552   3.287  68.738  1.00  0.00    -0.079 NA 
HETATM   33  C   UNL     1      -8.787   1.807  70.823  1.00  0.00    -0.116 C  
HETATM   34  C   UNL     1      -8.740   5.410  67.278  1.00  0.00    -0.107 A  
HETATM   35  C   UNL     1      -8.894   4.599  68.425  1.00  0.00    -0.105 A  
BRANCH  32  36
HETATM   36  C   UNL     1      -7.819   2.394  67.838  1.00  0.00    -0.059 C  
HETATM   37  C   UNL     1      -6.298   2.341  68.030  1.00  0.00    -0.028 C  
HETATM   38  C   UNL     1      -8.153   2.688  66.374  1.00  0.00    -0.083 C  
ENDBRANCH  32  36
ENDBRANCH  23  25
ENDBRANCH  16  18
ENDBRANCH  13  16
ENDBRANCH   9  10
ENDBRANCH   6   9
ENDBRANCH   2   3
TORSDOF 7
ENDMDL
MODEL      198
REMARK 921   NORMALIZED FREE ENERGY PREDICTED BY IDOCK:    0.71 KCAL/MOL
REMARK 922        TOTAL FREE ENERGY PREDICTED BY IDOCK:    0.13 KCAL/MOL
REMARK 923 INTER-LIGAND FREE ENERGY PREDICTED BY IDOCK:   -3.80 KCAL/MOL
REMARK 924 INTRA-LIGAND FREE ENERGY PREDICTED BY IDOCK:    3.93 KCAL/MOL
REMARK 927      BINDING AFFINITY PREDICTED BY RF-SCORE:    0.00 PKD
ROOT
HETATM    1  C   UNL     1      -7.762   9.819  63.171  1.00  0.00    -0.132 C  
HETATM    2  C   UNL     1      -7.763  11.049  64.072  1.00  0.00     0.638 C  
ENDROOT
BRANCH   2   3
HETATM    3  N   UNL     1      -8.412  10.841  65.377  1.00  0.00    -0.161 NA 
HETATM    4  C   UNL     1      -8.685  12.147  66.023  1.00  0.00     0.181 C  
HETATM    5  C   UNL     1      -9.912  12.904  65.455  1.00  0.00    -0.213 C  
HETATM    6  N   UNL     1     -11.162  12.108  65.417  1.00  0.00    -0.324 NA 
HETATM    7  C   UNL     1      -9.663  10.060  65.300  1.00  0.00    -0.306 C  
HETATM    8  C   UNL     1     -10.873  10.834  64.721  1.00  0.00     0.025 C  
BRANCH   6   9
HETATM    9  C   UNL     1     -11.698  11.837  66.766  1.00  0.00    -0.116 C  
BRANCH   9  10
HETATM   10  C   UNL     1     -10.678  11.268  67.711  1.00  0.00    -0.265 A  
HETATM   11  C   UNL     1     -10.601   9.899  67.946  1.00  0.00    -0.303 A  
HETATM   12  C   UNL     1      -9.653   9.422  68.841  1.00  0.00    -0.155 A  
HETATM   13  C   UNL     1      -8.800  10.314  69.493  1.00  0.00    -0.148 A  
HETATM   14  N   UNL     1      -8.845  11.642  69.258  1.00  0.00     0.374 NA 
HETATM   15  C   UNL     1      -9.780  12.087  68.388  1.00  0.00    -0.199 A  
BRANCH  13  16
HETATM   16  N   UNL     1      -7.815   9.851  70.358  1.00  0.00    -0.329 NA 
HETATM   17  H   UNL     1      -6.994  10.444  70.479  1.00  0.00     0.000 HD 
BRANCH  16  18
HETATM   18  C   UNL     1      -7.839   8.664  71.071  1.00  0.00    -0.111 A  
HETATM   19  N   UNL     1      -7.707   8.746  72.403  1.00  0.00    -0.360 NA 
HETATM   20  C   UNL     1      -7.649   7.584  73.081  1.00  0.00    -0.096 A  
HETATM   21  C   UNL     1      -7.805   6.355  72.488  1.00  0.00    -0.101 A  
HETATM   22  F   UNL     1      -7.754   5.241  73.230  1.00  0.00    -0.094 F  
HETATM   23  C   UNL     1      -8.010   6.345  71.124  1.00  0.00    -0.116 A  
HETATM   24  N   UNL     1      -7.983   7.497  70.413  1.00  0.00    -0.100 NA 
BRANCH  23  25
HETATM   25  C   UNL     1      -8.319   5.129  70.336  1.00  0.00    -0.105 A  
HETATM   26  C   UNL     1      -8.656   3.926  70.983  1.00  0.00    -0.109 A  
HETATM   27  C   UNL     1      -8.985   2.778  70.265  1.00  0.00    -0.098 A  
HETATM   28  C   UNL     1      -8.989   2.799  68.866  1.00  0.00    -0.124 A  
HETATM   29  F   UNL     1      -9.298   1.660  70.940  1.00  0.00    -0.132 F  
HETATM   30  N   UNL     1      -9.269   1.807  67.973  1.00  0.00    -0.164 NA 
HETATM   31  C   UNL     1      -9.118   2.326  66.775  1.00  0.00    -0.080 A  
HETATM   32  N   UNL     1      -8.752   3.660  66.852  1.00  0.00    -0.110 NA 
HETATM   33  C   UNL     1      -9.314   1.527  65.538  1.00  0.00     0.052 C  
HETATM   34  C   UNL     1      -8.335   5.158  68.916  1.00  0.00    -0.087 A  
HETATM   35  C   UNL     1      -8.666   3.983  68.203  1.00  0.00    -0.101 A  
BRANCH  32  36
HETATM   36  C   UNL     1      -8.419   4.584  65.766  1.00  0.00    -0.115 C  
HETATM   37  C   UNL     1      -6.963   4.564  65.286  1.00  0.00    -0.062 C  
HETATM   38  C   UNL     1      -8.840   6.014  66.107  1.00  0.00    -0.152 C  
ENDBRANCH  32  36
ENDBRANCH  23  25
ENDBRANCH  16  18
ENDBRANCH  13  16
ENDBRANCH   9  10
ENDBRANCH   6   9
ENDBRANCH   2   3
TORSDOF 7
ENDMDL
MODEL      199
REMARK 921   NORMALIZED FREE ENERGY PREDICTED BY IDOCK:    1.01 KCAL/MOL
REMARK 922        TOTAL FREE ENERGY PREDICTED BY IDOCK:    0.55 KCAL/MOL
REMARK 923 INTER-LIGAND FREE ENERGY PREDICTED BY IDOCK:   -3.11 KCAL/MOL
REMARK 924 INTRA-LIGAND FREE ENERGY PREDICTED BY IDOCK:    3.66 KCAL/MOL
REMARK 927      BINDING AFFINITY PREDICTED BY RF-SCORE:    0.00 PKD
ROOT
HETATM    1  C   UNL     1      -6.253   5.366  68.951  1.00  0.00    -0.033 C  
HETATM    2  C   UNL     1      -6.916   5.331  67.580  1.00  0.00    -0.065 C  
ENDROOT
BRANCH   2   3
HETATM    3  N   UNL     1      -6.785   6.580  66.812  1.00  0.00    -0.058 NA 
HETATM    4  C   UNL     1      -6.808   6.289  65.359  1.00  0.00    -0.048 C  
HETATM    5  C   UNL     1      -8.217   6.001  64.781  1.00  0.00    -0.123 C  
HETATM    6  N   UNL     1      -9.231   7.036  65.087  1.00  0.00     0.545 NA 
HETATM    7  C   UNL     1      -7.823   7.582  67.129  1.00  0.00    -0.117 C  
HETATM    8  C   UNL     1      -9.223   7.268  66.549  1.00  0.00    -0.157 C  
BRANCH   6   9
HETATM    9  C   UNL     1      -8.977   8.303  64.373  1.00  0.00     0.553 C  
BRANCH   9  10
HETATM   10  C   UNL     1      -8.067   9.237  65.120  1.00  0.00    -0.124 A  
HETATM   11  C   UNL     1      -6.777   9.496  64.670  1.00  0.00    -0.094 A  
HETATM   12  C   UNL     1      -5.968  10.352  65.402  1.00  0.00    -0.131 A  
HETATM   13  C   UNL     1      -6.452  10.934  66.576  1.00  0.00    -0.128 A  
HETATM   14  N   UNL     1      -7.709  10.714  67.012  1.00  0.00    -0.113 NA 
HETATM   15  C   UNL     1      -8.479   9.870  66.287  1.00  0.00    -0.128 A  
BRANCH  13  16
HETATM   16  N   UNL     1      -5.672  11.830  67.299  1.00  0.00    -0.102 NA 
HETATM   17  H   UNL     1      -4.710  11.550  67.492  1.00  0.00     0.000 HD 
BRANCH  16  18
HETATM   18  C   UNL     1      -6.074  13.065  67.783  1.00  0.00    -0.151 A  
HETATM   19  N   UNL     1      -5.143  14.027  67.854  1.00  0.00    -0.234 NA 
HETATM   20  C   UNL     1      -5.520  15.198  68.400  1.00  0.00    -0.107 A  
HETATM   21  C   UNL     1      -6.808  15.468  68.797  1.00  0.00    -0.116 A  
HETATM   22  F   UNL     1      -7.113  16.664  69.316  1.00  0.00    -0.202 F  
HETATM   23  C   UNL     1      -7.732  14.458  68.629  1.00  0.00    -0.138 A  
HETATM   24  N   UNL     1      -7.354  13.245  68.162  1.00  0.00    -0.106 NA 
BRANCH  23  25
HETATM   25  C   UNL     1      -9.184  14.607  68.883  1.00  0.00    -0.151 A  
HETATM   26  C   UNL     1     -10.115  14.406  67.847  1.00  0.00    -0.228 A  
HETATM   27  C   UNL     1     -11.487  14.505  68.069  1.00  0.00    -0.321 A  
HETATM   28  C   UNL     1     -11.974  14.809  69.345  1.00  0.00    -0.303 A  
HETATM   29  F   UNL     1     -12.325  14.302  67.040  1.00  0.00    -0.442 F  
HETATM   30  N   UNL     1     -13.257  14.960  69.783  1.00  0.00     0.413 NA 
HETATM   31  C   UNL     1     -13.186  15.256  71.061  1.00  0.00    -0.484 A  
HETATM   32  N   UNL     1     -11.869  15.294  71.491  1.00  0.00    -0.344 NA 
HETATM   33  C   UNL     1     -14.397  15.521  71.880  1.00  0.00    -0.580 C  
HETATM   34  C   UNL     1      -9.676  14.902  70.183  1.00  0.00     0.377 A  
HETATM   35  C   UNL     1     -11.070  15.004  70.389  1.00  0.00    -0.229 A  
BRANCH  32  36
HETATM   36  C   UNL     1     -11.345  15.651  72.811  1.00  0.00     0.010 C  
HETATM   37  C   UNL     1     -11.918  14.868  73.999  1.00  0.00    -0.348 C  
HETATM   38  C   UNL     1     -11.465  17.154  73.067  1.00  0.00     0.897 C  
ENDBRANCH  32  36
ENDBRANCH  23  25
ENDBRANCH  16  18
ENDBRANCH  13  16
ENDBRANCH   9  10
ENDBRANCH   6   9
ENDBRANCH   2   3
TORSDOF 7
ENDMDL
MODEL      200
REMARK 921   NORMALIZED FREE ENERGY PREDICTED BY IDOCK:    2.07 KCAL/MOL
REMARK 922        TOTAL FREE ENERGY PREDICTED BY IDOCK:    2.05 KCAL/MOL
REMARK 923 INTER-LIGAND FREE ENERGY PREDICTED BY IDOCK:   -1.87 KCAL/MOL
REMARK 924 INTRA-LIGAND FREE ENERGY PREDICTED BY IDOCK:    3.91 KCAL/MOL
REMARK 927      BINDING AFFINITY PREDICTED BY RF-SCORE:    0.00 PKD
ROOT
HETATM    1  C   UNL     1      -7.201   4.845  71.542  1.00  0.00    -0.068 C  
HETATM    2  C   UNL     1      -8.001   4.546  70.279  1.00  0.00    -0.063 C  
ENDROOT
BRANCH   2   3
HETATM    3  N   UNL     1      -8.076   5.670  69.331  1.00  0.00    -0.098 NA 
HETATM    4  C   UNL     1      -8.343   5.164  67.963  1.00  0.00    -0.097 C  
HETATM    5  C   UNL     1      -9.815   4.756  67.703  1.00  0.00    -0.152 C  
HETATM    6  N   UNL     1     -10.812   5.799  68.041  1.00  0.00    -0.218 NA 
HETATM    7  C   UNL     1      -9.091   6.681  69.688  1.00  0.00    -0.142 C  
HETATM    8  C   UNL     1     -10.554   6.247  69.428  1.00  0.00    -0.271 C  
BRANCH   6   9
HETATM    9  C   UNL     1     -10.757   6.951  67.119  1.00  0.00    -0.366 C  
BRANCH   9  10
HETATM   10  C   UNL     1      -9.570   7.843  67.349  1.00  0.00    -0.195 A  
HETATM   11  C   UNL     1      -8.482   7.829  66.484  1.00  0.00    -0.132 A  
HETATM   12  C   UNL     1      -7.402   8.659  66.747  1.00  0.00    -0.079 A  
HETATM   13  C   UNL     1      -7.417   9.487  67.872  1.00  0.00    -0.083 A  
HETATM   14  N   UNL     1      -8.475   9.532  68.707  1.00  0.00    -0.120 NA 
HETATM   15  C   UNL     1      -9.515   8.710  68.436  1.00  0.00    -0.138 A  
BRANCH  13  16
HETATM   16  N   UNL     1      -6.365  10.359  68.127  1.00  0.00    -0.052 NA 
HETATM   17  H   UNL     1      -5.441   9.942  68.244  1.00  0.00     0.000 HD 
BRANCH  16  18
HETATM   18  C   UNL     1      -6.447  11.737  68.239  1.00  0.00    -0.051 A  
HETATM   19  N   UNL     1      -5.305  12.430  68.125  1.00  0.00    -0.059 NA 
HETATM   20  C   UNL     1      -5.381  13.761  68.316  1.00  0.00    -0.109 A  
HETATM   21  C   UNL     1      -6.562  14.429  68.529  1.00  0.00    -0.094 A  
HETATM   22  F   UNL     1      -6.562  15.758  68.693  1.00  0.00    -0.108 F  
HETATM   23  C   UNL     1      -7.709  13.663  68.563  1.00  0.00    -0.129 A  
HETATM   24  N   UNL     1      -7.644  12.315  68.461  1.00  0.00    -0.120 NA 
BRANCH  23  25
HETATM   25  C   UNL     1      -9.079  14.219  68.660  1.00  0.00    -0.160 A  
HETATM   26  C   UNL     1      -9.770  14.622  67.502  1.00  0.00    -0.210 A  
HETATM   27  C   UNL     1     -11.073  15.113  67.563  1.00  0.00    -0.319 A  
HETATM   28  C   UNL     1     -11.730  15.217  68.794  1.00  0.00    -0.342 A  
HETATM   29  F   UNL     1     -11.679  15.481  66.423  1.00  0.00    -0.121 F  
HETATM   30  N   UNL     1     -12.983  15.670  69.085  1.00  0.00     0.702 NA 
HETATM   31  C   UNL     1     -13.122  15.579  70.389  1.00  0.00    -0.113 A  
HETATM   32  N   UNL     1     -11.980  15.058  70.976  1.00  0.00    -0.298 NA 
HETATM   33  C   UNL     1     -14.362  16.010  71.083  1.00  0.00     1.388 C  
HETATM   34  C   UNL     1      -9.749  14.310  69.910  1.00  0.00     0.868 A  
HETATM   35  C   UNL     1     -11.067  14.816  69.954  1.00  0.00    -0.233 A  
BRANCH  32  36
HETATM   36  C   UNL     1     -11.690  14.858  72.398  1.00  0.00    -0.223 C  
HETATM   37  C   UNL     1     -12.711  14.029  73.186  1.00  0.00    -0.081 C  
HETATM   38  C   UNL     1     -11.439  16.191  73.104  1.00  0.00     0.218 C  
ENDBRANCH  32  36
ENDBRANCH  23  25
ENDBRANCH  16  18
ENDBRANCH  13  16
ENDBRANCH   9  10
ENDBRANCH   6   9
ENDBRANCH   2   3
TORSDOF 7
ENDMDL
MODEL      201
REMARK 921   NORMALIZED FREE ENERGY PREDICTED BY IDOCK:    3.17 KCAL/MOL
REMARK 922        TOTAL FREE ENERGY PREDICTED BY IDOCK:    3.59 KCAL/MOL
REMARK 923 INTER-LIGAND FREE ENERGY PREDICTED BY IDOCK:   -4.84 KCAL/MOL
REMARK 924 INTRA-LIGAND FREE ENERGY PREDICTED BY IDOCK:    8.42 KCAL/MOL
REMARK 927      BINDING AFFINITY PREDICTED BY RF-SCORE:    0.00 PKD
ROOT
HETATM    1  C   UNL     1      -5.793  10.464  66.266  1.00  0.00    -0.078 C  
HETATM    2  C   UNL     1      -7.053   9.695  65.883  1.00  0.00    -0.098 C  
ENDROOT
BRANCH   2   3
HETATM    3  N   UNL     1      -7.182   8.383  66.537  1.00  0.00    -0.076 NA 
HETATM    4  C   UNL     1      -8.066   7.501  65.737  1.00  0.00    -0.127 C  
HETATM    5  C   UNL     1      -7.398   6.887  64.482  1.00  0.00    -0.091 C  
HETATM    6  N   UNL     1      -6.119   6.186  64.745  1.00  0.00    -0.029 NA 
HETATM    7  C   UNL     1      -5.890   7.705  66.768  1.00  0.00    -0.039 C  
HETATM    8  C   UNL     1      -5.238   7.108  65.497  1.00  0.00    -0.027 C  
BRANCH   6   9
HETATM    9  C   UNL     1      -6.309   4.934  65.505  1.00  0.00    -0.035 C  
BRANCH   9  10
HETATM   10  C   UNL     1      -7.295   5.063  66.631  1.00  0.00    -0.086 A  
HETATM   11  C   UNL     1      -7.294   6.177  67.464  1.00  0.00    -0.077 A  
HETATM   12  C   UNL     1      -8.213   6.243  68.501  1.00  0.00    -0.112 A  
HETATM   13  C   UNL     1      -9.116   5.196  68.699  1.00  0.00    -0.111 A  
HETATM   14  N   UNL     1      -9.147   4.121  67.886  1.00  0.00    -0.126 NA 
HETATM   15  C   UNL     1      -8.238   4.073  66.885  1.00  0.00    -0.100 A  
BRANCH  13  16
HETATM   16  N   UNL     1     -10.074   5.265  69.704  1.00  0.00    -0.234 NA 
HETATM   17  H   UNL     1     -10.540   4.393  69.956  1.00  0.00     0.000 HD 
BRANCH  16  18
HETATM   18  C   UNL     1     -10.458   6.402  70.397  1.00  0.00    -0.218 A  
HETATM   19  N   UNL     1     -10.831   6.243  71.676  1.00  0.00    -0.242 NA 
HETATM   20  C   UNL     1     -11.280   7.338  72.318  1.00  0.00    -0.267 A  
HETATM   21  C   UNL     1     -11.288   8.593  71.758  1.00  0.00    -0.323 A  
HETATM   22  F   UNL     1     -11.732   9.640  72.465  1.00  0.00    -0.083 F  
HETATM   23  C   UNL     1     -10.822   8.697  70.463  1.00  0.00    -0.228 A  
HETATM   24  N   UNL     1     -10.449   7.595  69.772  1.00  0.00    -0.227 NA 
BRANCH  23  25
HETATM   25  C   UNL     1     -10.642   9.980  69.744  1.00  0.00    -0.301 A  
HETATM   26  C   UNL     1     -10.081  10.002  68.454  1.00  0.00    -0.186 A  
HETATM   27  C   UNL     1      -9.935  11.191  67.742  1.00  0.00    -0.175 A  
HETATM   28  C   UNL     1     -10.351  12.404  68.303  1.00  0.00    -0.227 A  
HETATM   29  F   UNL     1      -9.392  11.148  66.515  1.00  0.00    -0.171 F  
HETATM   30  N   UNL     1     -10.298  13.669  67.797  1.00  0.00    -0.238 NA 
HETATM   31  C   UNL     1     -10.800  14.463  68.717  1.00  0.00    -0.251 A  
HETATM   32  N   UNL     1     -11.201  13.743  69.831  1.00  0.00    -0.074 NA 
HETATM   33  C   UNL     1     -10.883  15.934  68.531  1.00  0.00    -0.298 C  
HETATM   34  C   UNL     1     -11.078  11.208  70.311  1.00  0.00     0.009 A  
HETATM   35  C   UNL     1     -10.917  12.404  69.577  1.00  0.00     0.077 A  
BRANCH  32  36
HETATM   36  C   UNL     1     -11.742  14.240  71.098  1.00  0.00    -0.086 C  
HETATM   37  C   UNL     1     -13.086  14.974  71.017  1.00  0.00    -0.482 C  
HETATM   38  C   UNL     1     -10.717  15.102  71.838  1.00  0.00     0.602 C  
ENDBRANCH  32  36
ENDBRANCH  23  25
ENDBRANCH  16  18
ENDBRANCH  13  16
ENDBRANCH   9  10
ENDBRANCH   6   9
ENDBRANCH   2   3
TORSDOF 7
ENDMDL
MODEL      202
REMARK 921   NORMALIZED FREE ENERGY PREDICTED BY IDOCK:    3.31 KCAL/MOL
REMARK 922        TOTAL FREE ENERGY PREDICTED BY IDOCK:    3.80 KCAL/MOL
REMARK 923 INTER-LIGAND FREE ENERGY PREDICTED BY IDOCK:    1.71 KCAL/MOL
REMARK 924 INTRA-LIGAND FREE ENERGY PREDICTED BY IDOCK:    2.08 KCAL/MOL
REMARK 927      BINDING AFFINITY PREDICTED BY RF-SCORE:    0.00 PKD
ROOT
HETATM    1  C   UNL     1      -6.893   1.913  67.023  1.00  0.00    -0.039 C  
HETATM    2  C   UNL     1      -6.851   2.627  68.369  1.00  0.00    -0.047 C  
ENDROOT
BRANCH   2   3
HETATM    3  N   UNL     1      -8.171   2.822  68.991  1.00  0.00    -0.054 NA 
HETATM    4  C   UNL     1      -8.384   1.815  70.058  1.00  0.00    -0.045 C  
HETATM    5  C   UNL     1      -7.638   2.112  71.384  1.00  0.00    -0.040 C  
HETATM    6  N   UNL     1      -7.879   3.466  71.935  1.00  0.00    -0.057 NA 
HETATM    7  C   UNL     1      -8.370   4.176  69.547  1.00  0.00    -0.057 C  
HETATM    8  C   UNL     1      -7.608   4.452  70.865  1.00  0.00    -0.052 C  
BRANCH   6   9
HETATM    9  C   UNL     1      -9.257   3.633  72.439  1.00  0.00    -0.115 C  
BRANCH   9  10
HETATM   10  C   UNL     1      -9.749   5.051  72.376  1.00  0.00    -0.190 A  
HETATM   11  C   UNL     1     -10.266   5.683  73.502  1.00  0.00    -0.227 A  
HETATM   12  C   UNL     1     -10.723   6.988  73.391  1.00  0.00    -0.379 A  
HETATM   13  C   UNL     1     -10.665   7.644  72.159  1.00  0.00    -0.241 A  
HETATM   14  N   UNL     1     -10.143   7.055  71.064  1.00  0.00    -0.196 NA 
HETATM   15  C   UNL     1      -9.709   5.780  71.192  1.00  0.00    -0.169 A  
BRANCH  13  16
HETATM   16  N   UNL     1     -11.076   8.967  72.039  1.00  0.00    -0.371 NA 
HETATM   17  H   UNL     1     -11.260   9.472  72.906  1.00  0.00     0.000 HD 
BRANCH  16  18
HETATM   18  C   UNL     1     -11.260   9.666  70.857  1.00  0.00    -0.352 A  
HETATM   19  N   UNL     1     -12.217   9.224  70.028  1.00  0.00     0.392 NA 
HETATM   20  C   UNL     1     -12.336   9.858  68.846  1.00  0.00     1.590 A  
HETATM   21  C   UNL     1     -11.596  10.963  68.502  1.00  0.00    -0.290 A  
HETATM   22  F   UNL     1     -11.782  11.553  67.314  1.00  0.00    -0.364 F  
HETATM   23  C   UNL     1     -10.679  11.409  69.432  1.00  0.00    -0.104 A  
HETATM   24  N   UNL     1     -10.484  10.733  70.589  1.00  0.00     0.715 NA 
BRANCH  23  25
HETATM   25  C   UNL     1      -9.883  12.650  69.288  1.00  0.00     0.642 A  
HETATM   26  C   UNL     1     -10.447  13.900  69.603  1.00  0.00     0.314 A  
HETATM   27  C   UNL     1      -9.708  15.078  69.511  1.00  0.00    -0.103 A  
HETATM   28  C   UNL     1      -8.372  15.041  69.100  1.00  0.00    -0.187 A  
HETATM   29  F   UNL     1     -10.303  16.241  69.824  1.00  0.00    -0.250 F  
HETATM   30  N   UNL     1      -7.475  16.056  68.934  1.00  0.00    -0.174 NA 
HETATM   31  C   UNL     1      -6.356  15.505  68.519  1.00  0.00    -0.100 A  
HETATM   32  N   UNL     1      -6.487  14.129  68.416  1.00  0.00    -0.093 NA 
HETATM   33  C   UNL     1      -5.149  16.310  68.204  1.00  0.00    -0.105 C  
HETATM   34  C   UNL     1      -8.522  12.608  68.884  1.00  0.00     0.294 A  
HETATM   35  C   UNL     1      -7.789  13.812  68.791  1.00  0.00    -0.059 A  
BRANCH  32  36
HETATM   36  C   UNL     1      -5.513  13.149  67.928  1.00  0.00    -0.117 C  
HETATM   37  C   UNL     1      -5.356  13.054  66.406  1.00  0.00     2.394 C  
HETATM   38  C   UNL     1      -5.781  11.763  68.516  1.00  0.00    -0.048 C  
ENDBRANCH  32  36
ENDBRANCH  23  25
ENDBRANCH  16  18
ENDBRANCH  13  16
ENDBRANCH   9  10
ENDBRANCH   6   9
ENDBRANCH   2   3
TORSDOF 7
ENDMDL
MODEL      203
REMARK 921   NORMALIZED FREE ENERGY PREDICTED BY IDOCK:    3.45 KCAL/MOL
REMARK 922        TOTAL FREE ENERGY PREDICTED BY IDOCK:    3.98 KCAL/MOL
REMARK 923 INTER-LIGAND FREE ENERGY PREDICTED BY IDOCK:   -1.76 KCAL/MOL
REMARK 924 INTRA-LIGAND FREE ENERGY PREDICTED BY IDOCK:    5.75 KCAL/MOL
REMARK 927      BINDING AFFINITY PREDICTED BY RF-SCORE:    0.00 PKD
ROOT
HETATM    1  C   UNL     1      -9.696  17.645  64.835  1.00  0.00     2.731 C  
HETATM    2  C   UNL     1      -8.758  16.875  65.758  1.00  0.00     0.182 C  
ENDROOT
BRANCH   2   3
HETATM    3  N   UNL     1      -9.433  16.195  66.876  1.00  0.00    -0.223 NA 
HETATM    4  C   UNL     1      -8.563  16.206  68.077  1.00  0.00    -0.171 C  
HETATM    5  C   UNL     1      -8.523  17.559  68.831  1.00  0.00    -0.139 C  
HETATM    6  N   UNL     1      -9.853  18.105  69.188  1.00  0.00    -0.225 NA 
HETATM    7  C   UNL     1     -10.747  16.776  67.217  1.00  0.00    -0.213 C  
HETATM    8  C   UNL     1     -10.682  18.131  67.961  1.00  0.00    -0.277 C  
BRANCH   6   9
HETATM    9  C   UNL     1     -10.526  17.310  70.235  1.00  0.00     0.769 C  
BRANCH   9  10
HETATM   10  C   UNL     1     -10.731  15.871  69.853  1.00  0.00    -0.334 A  
HETATM   11  C   UNL     1      -9.653  15.046  69.555  1.00  0.00    -0.094 A  
HETATM   12  C   UNL     1      -9.893  13.729  69.191  1.00  0.00     0.216 A  
HETATM   13  C   UNL     1     -11.204  13.253  69.123  1.00  0.00    -0.251 A  
HETATM   14  N   UNL     1     -12.260  14.033  69.434  1.00  0.00    -0.333 NA 
HETATM   15  C   UNL     1     -12.004  15.315  69.779  1.00  0.00    -0.347 A  
BRANCH  13  16
HETATM   16  N   UNL     1     -11.463  11.925  68.805  1.00  0.00    -0.263 NA 
HETATM   17  H   UNL     1     -12.443  11.644  68.762  1.00  0.00     0.000 HD 
BRANCH  16  18
HETATM   18  C   UNL     1     -10.519  10.945  68.540  1.00  0.00    -0.188 A  
HETATM   19  N   UNL     1     -10.024  10.893  67.295  1.00  0.00    -0.182 NA 
HETATM   20  C   UNL     1      -9.170   9.888  67.023  1.00  0.00    -0.142 A  
HETATM   21  C   UNL     1      -8.731   8.992  67.968  1.00  0.00    -0.129 A  
HETATM   22  F   UNL     1      -7.865   8.028  67.627  1.00  0.00    -0.111 F  
HETATM   23  C   UNL     1      -9.225   9.148  69.246  1.00  0.00    -0.146 A  
HETATM   24  N   UNL     1     -10.151  10.096  69.519  1.00  0.00    -0.224 NA 
BRANCH  23  25
HETATM   25  C   UNL     1      -8.774   8.357  70.415  1.00  0.00    -0.142 A  
HETATM   26  C   UNL     1      -7.748   8.838  71.250  1.00  0.00    -0.149 A  
HETATM   27  C   UNL     1      -7.331   8.131  72.376  1.00  0.00    -0.106 A  
HETATM   28  C   UNL     1      -7.933   6.912  72.705  1.00  0.00    -0.104 A  
HETATM   29  F   UNL     1      -6.347   8.643  73.133  1.00  0.00    -0.102 F  
HETATM   30  N   UNL     1      -7.683   6.060  73.741  1.00  0.00    -0.095 NA 
HETATM   31  C   UNL     1      -8.506   5.046  73.600  1.00  0.00    -0.105 A  
HETATM   32  N   UNL     1      -9.316   5.212  72.488  1.00  0.00    -0.135 NA 
HETATM   33  C   UNL     1      -8.507   3.893  74.537  1.00  0.00    -0.092 C  
HETATM   34  C   UNL     1      -9.396   7.126  70.755  1.00  0.00    -0.160 A  
HETATM   35  C   UNL     1      -8.957   6.420  71.897  1.00  0.00    -0.138 A  
BRANCH  32  36
HETATM   36  C   UNL     1     -10.313   4.293  71.934  1.00  0.00    -0.070 C  
HETATM   37  C   UNL     1     -11.011   3.368  72.939  1.00  0.00    -0.064 C  
HETATM   38  C   UNL     1      -9.730   3.472  70.782  1.00  0.00    -0.207 C  
ENDBRANCH  32  36
ENDBRANCH  23  25
ENDBRANCH  16  18
ENDBRANCH  13  16
ENDBRANCH   9  10
ENDBRANCH   6   9
ENDBRANCH   2   3
TORSDOF 7
ENDMDL
MODEL      204
REMARK 921   NORMALIZED FREE ENERGY PREDICTED BY IDOCK:    3.80 KCAL/MOL
REMARK 922        TOTAL FREE ENERGY PREDICTED BY IDOCK:    4.48 KCAL/MOL
REMARK 923 INTER-LIGAND FREE ENERGY PREDICTED BY IDOCK:   -3.85 KCAL/MOL
REMARK 924 INTRA-LIGAND FREE ENERGY PREDICTED BY IDOCK:    8.33 KCAL/MOL
REMARK 927      BINDING AFFINITY PREDICTED BY RF-SCORE:    0.00 PKD
ROOT
HETATM    1  C   UNL     1     -10.018  18.213  70.175  1.00  0.00     1.317 C  
HETATM    2  C   UNL     1     -10.616  17.239  69.166  1.00  0.00    -0.209 C  
ENDROOT
BRANCH   2   3
HETATM    3  N   UNL     1      -9.809  16.029  68.941  1.00  0.00    -0.220 NA 
HETATM    4  C   UNL     1      -9.682  15.765  67.488  1.00  0.00    -0.226 C  
HETATM    5  C   UNL     1      -8.657  16.668  66.756  1.00  0.00    -0.236 C  
HETATM    6  N   UNL     1      -7.308  16.689  67.368  1.00  0.00    -0.150 NA 
HETATM    7  C   UNL     1      -8.464  16.091  69.549  1.00  0.00    -0.024 C  
HETATM    8  C   UNL     1      -7.461  17.006  68.806  1.00  0.00    -0.242 C  
BRANCH   6   9
HETATM    9  C   UNL     1      -6.596  15.406  67.207  1.00  0.00    -0.013 C  
BRANCH   9  10
HETATM   10  C   UNL     1      -7.514  14.218  67.143  1.00  0.00     0.062 A  
HETATM   11  C   UNL     1      -7.034  12.927  67.342  1.00  0.00    -0.129 A  
HETATM   12  C   UNL     1      -7.917  11.860  67.256  1.00  0.00    -0.171 A  
HETATM   13  C   UNL     1      -9.263  12.092  66.967  1.00  0.00    -0.202 A  
HETATM   14  N   UNL     1      -9.750  13.339  66.797  1.00  0.00    -0.251 NA 
HETATM   15  C   UNL     1      -8.871  14.364  66.878  1.00  0.00    -0.223 A  
BRANCH  13  16
HETATM   16  N   UNL     1     -10.171  11.040  66.922  1.00  0.00    -0.213 NA 
HETATM   17  H   UNL     1     -10.638  10.874  66.030  1.00  0.00     0.000 HD 
BRANCH  16  18
HETATM   18  C   UNL     1     -10.504  10.196  67.969  1.00  0.00    -0.209 A  
HETATM   19  N   UNL     1     -11.345  10.674  68.897  1.00  0.00    -0.265 NA 
HETATM   20  C   UNL     1     -11.599   9.879  69.954  1.00  0.00    -0.127 A  
HETATM   21  C   UNL     1     -11.114   8.598  70.070  1.00  0.00    -0.157 A  
HETATM   22  F   UNL     1     -11.425   7.858  71.142  1.00  0.00    -0.256 F  
HETATM   23  C   UNL     1     -10.314   8.143  69.043  1.00  0.00    -0.218 A  
HETATM   24  N   UNL     1      -9.976   8.958  68.017  1.00  0.00    -0.169 NA 
BRANCH  23  25
HETATM   25  C   UNL     1      -9.804   6.756  68.937  1.00  0.00    -0.146 A  
HETATM   26  C   UNL     1      -9.885   6.056  67.719  1.00  0.00    -0.129 A  
HETATM   27  C   UNL     1      -9.380   4.765  67.584  1.00  0.00    -0.138 A  
HETATM   28  C   UNL     1      -8.772   4.128  68.671  1.00  0.00    -0.097 A  
HETATM   29  F   UNL     1      -9.487   4.149  66.395  1.00  0.00    -0.140 F  
HETATM   30  N   UNL     1      -8.223   2.883  68.766  1.00  0.00    -0.059 NA 
HETATM   31  C   UNL     1      -7.797   2.754  70.003  1.00  0.00    -0.042 A  
HETATM   32  N   UNL     1      -8.043   3.903  70.737  1.00  0.00    -0.061 NA 
HETATM   33  C   UNL     1      -7.158   1.505  70.492  1.00  0.00    -0.033 C  
HETATM   34  C   UNL     1      -9.175   6.118  70.040  1.00  0.00    -0.158 A  
HETATM   35  C   UNL     1      -8.674   4.806  69.887  1.00  0.00    -0.085 A  
BRANCH  32  36
HETATM   36  C   UNL     1      -7.793   4.153  72.159  1.00  0.00    -0.081 C  
HETATM   37  C   UNL     1      -8.804   5.060  72.872  1.00  0.00    -0.117 C  
HETATM   38  C   UNL     1      -6.372   4.669  72.389  1.00  0.00    -0.026 C  
ENDBRANCH  32  36
ENDBRANCH  23  25
ENDBRANCH  16  18
ENDBRANCH  13  16
ENDBRANCH   9  10
ENDBRANCH   6   9
ENDBRANCH   2   3
TORSDOF 7
ENDMDL
MODEL      205
REMARK 921   NORMALIZED FREE ENERGY PREDICTED BY IDOCK:    4.36 KCAL/MOL
REMARK 922        TOTAL FREE ENERGY PREDICTED BY IDOCK:    5.27 KCAL/MOL
REMARK 923 INTER-LIGAND FREE ENERGY PREDICTED BY IDOCK:    2.15 KCAL/MOL
REMARK 924 INTRA-LIGAND FREE ENERGY PREDICTED BY IDOCK:    3.11 KCAL/MOL
REMARK 927      BINDING AFFINITY PREDICTED BY RF-SCORE:    0.00 PKD
ROOT
HETATM    1  C   UNL     1      -8.854   9.804  66.046  1.00  0.00    -0.170 C  
HETATM    2  C   UNL     1      -9.381  10.781  67.090  1.00  0.00    -0.155 C  
ENDROOT
BRANCH   2   3
HETATM    3  N   UNL     1      -8.373  11.227  68.065  1.00  0.00    -0.130 NA 
HETATM    4  C   UNL     1      -7.012  11.061  67.501  1.00  0.00    -0.086 C  
HETATM    5  C   UNL     1      -6.601  12.149  66.476  1.00  0.00     0.511 C  
HETATM    6  N   UNL     1      -6.764  13.540  66.958  1.00  0.00     0.095 NA 
HETATM    7  C   UNL     1      -8.554  12.624  68.509  1.00  0.00    -0.051 C  
HETATM    8  C   UNL     1      -8.146  13.692  67.466  1.00  0.00    -0.184 C  
BRANCH   6   9
HETATM    9  C   UNL     1      -5.795  13.887  68.017  1.00  0.00    -0.136 C  
BRANCH   9  10
HETATM   10  C   UNL     1      -5.800  12.922  69.170  1.00  0.00    -0.081 A  
HETATM   11  C   UNL     1      -6.425  13.241  70.371  1.00  0.00     0.270 A  
HETATM   12  C   UNL     1      -6.388  12.325  71.412  1.00  0.00     2.126 A  
HETATM   13  C   UNL     1      -5.725  11.107  71.245  1.00  0.00     0.188 A  
HETATM   14  N   UNL     1      -5.137  10.772  70.079  1.00  0.00    -0.042 NA 
HETATM   15  C   UNL     1      -5.177  11.682  69.079  1.00  0.00    -0.046 A  
BRANCH  13  16
HETATM   16  N   UNL     1      -5.717  10.158  72.261  1.00  0.00    -0.273 NA 
HETATM   17  H   UNL     1      -5.289  10.434  73.145  1.00  0.00     0.000 HD 
BRANCH  16  18
HETATM   18  C   UNL     1      -6.233   8.874  72.191  1.00  0.00    -0.048 A  
HETATM   19  N   UNL     1      -5.804   7.991  73.105  1.00  0.00    -0.055 NA 
HETATM   20  C   UNL     1      -6.247   6.725  72.981  1.00  0.00    -0.058 A  
HETATM   21  C   UNL     1      -7.164   6.334  72.035  1.00  0.00    -0.091 A  
HETATM   22  F   UNL     1      -7.573   5.060  71.983  1.00  0.00    -0.084 F  
HETATM   23  C   UNL     1      -7.619   7.310  71.172  1.00  0.00    -0.080 A  
HETATM   24  N   UNL     1      -7.120   8.567  71.225  1.00  0.00    -0.070 NA 
BRANCH  23  25
HETATM   25  C   UNL     1      -8.693   7.103  70.172  1.00  0.00    -0.141 A  
HETATM   26  C   UNL     1      -9.924   7.772  70.298  1.00  0.00    -0.189 A  
HETATM   27  C   UNL     1     -10.937   7.622  69.353  1.00  0.00    -0.057 A  
HETATM   28  C   UNL     1     -10.746   6.793  68.242  1.00  0.00    -0.235 A  
HETATM   29  F   UNL     1     -12.089   8.288  69.528  1.00  0.00     0.619 F  
HETATM   30  N   UNL     1     -11.590   6.497  67.212  1.00  0.00     0.246 NA 
HETATM   31  C   UNL     1     -10.948   5.658  66.430  1.00  0.00    -0.006 A  
HETATM   32  N   UNL     1      -9.678   5.395  66.917  1.00  0.00    -0.140 NA 
HETATM   33  C   UNL     1     -11.567   5.088  65.206  1.00  0.00     1.221 C  
HETATM   34  C   UNL     1      -8.491   6.270  69.039  1.00  0.00    -0.120 A  
HETATM   35  C   UNL     1      -9.531   6.125  68.093  1.00  0.00    -0.113 A  
BRANCH  32  36
HETATM   36  C   UNL     1      -8.669   4.470  66.396  1.00  0.00    -0.112 C  
HETATM   37  C   UNL     1      -8.188   3.380  67.362  1.00  0.00    -0.086 C  
HETATM   38  C   UNL     1      -7.471   5.225  65.819  1.00  0.00    -0.082 C  
ENDBRANCH  32  36
ENDBRANCH  23  25
ENDBRANCH  16  18
ENDBRANCH  13  16
ENDBRANCH   9  10
ENDBRANCH   6   9
ENDBRANCH   2   3
TORSDOF 7
ENDMDL
MODEL      206
REMARK 921   NORMALIZED FREE ENERGY PREDICTED BY IDOCK:    4.51 KCAL/MOL
REMARK 922        TOTAL FREE ENERGY PREDICTED BY IDOCK:    5.48 KCAL/MOL
REMARK 923 INTER-LIGAND FREE ENERGY PREDICTED BY IDOCK:    5.49 KCAL/MOL
REMARK 924 INTRA-LIGAND FREE ENERGY PREDICTED BY IDOCK:   -0.01 KCAL/MOL
REMARK 927      BINDING AFFINITY PREDICTED BY RF-SCORE:    0.00 PKD
ROOT
HETATM    1  C   UNL     1      -9.553   5.115  71.244  1.00  0.00    -0.218 C  
HETATM    2  C   UNL     1      -8.433   5.108  70.209  1.00  0.00    -0.101 C  
ENDROOT
BRANCH   2   3
HETATM    3  N   UNL     1      -7.280   5.952  70.560  1.00  0.00    -0.080 NA 
HETATM    4  C   UNL     1      -6.158   5.695  69.626  1.00  0.00    -0.025 C  
HETATM    5  C   UNL     1      -6.310   6.362  68.236  1.00  0.00    -0.040 C  
HETATM    6  N   UNL     1      -6.586   7.817  68.278  1.00  0.00    -0.056 NA 
HETATM    7  C   UNL     1      -7.585   7.397  70.575  1.00  0.00    -0.087 C  
HETATM    8  C   UNL     1      -7.742   8.039  69.175  1.00  0.00    -0.099 C  
BRANCH   6   9
HETATM    9  C   UNL     1      -5.424   8.597  68.749  1.00  0.00    -0.036 C  
BRANCH   9  10
HETATM   10  C   UNL     1      -5.770  10.006  69.142  1.00  0.00    -0.034 A  
HETATM   11  C   UNL     1      -6.019  10.979  68.181  1.00  0.00    -0.049 A  
HETATM   12  C   UNL     1      -6.319  12.270  68.592  1.00  0.00    -0.071 A  
HETATM   13  C   UNL     1      -6.359  12.575  69.954  1.00  0.00    -0.039 A  
HETATM   14  N   UNL     1      -6.145  11.637  70.899  1.00  0.00    -0.281 NA 
HETATM   15  C   UNL     1      -5.848  10.387  70.477  1.00  0.00    -0.100 A  
BRANCH  13  16
HETATM   16  N   UNL     1      -6.701  13.851  70.386  1.00  0.00    -0.389 NA 
HETATM   17  H   UNL     1      -5.957  14.412  70.801  1.00  0.00     0.000 HD 
BRANCH  16  18
HETATM   18  C   UNL     1      -7.955  14.437  70.308  1.00  0.00     1.231 A  
HETATM   19  N   UNL     1      -8.478  14.918  71.446  1.00  0.00     3.338 NA 
HETATM   20  C   UNL     1      -9.728  15.412  71.378  1.00  0.00     2.424 A  
HETATM   21  C   UNL     1     -10.437  15.519  70.205  1.00  0.00    -0.263 A  
HETATM   22  F   UNL     1     -11.672  16.038  70.212  1.00  0.00    -0.309 F  
HETATM   23  C   UNL     1      -9.811  15.071  69.060  1.00  0.00    -0.236 A  
HETATM   24  N   UNL     1      -8.590  14.492  69.121  1.00  0.00    -0.037 NA 
BRANCH  23  25
HETATM   25  C   UNL     1     -10.368  15.218  67.695  1.00  0.00    -0.250 A  
HETATM   26  C   UNL     1     -10.387  16.475  67.063  1.00  0.00    -0.301 A  
HETATM   27  C   UNL     1     -10.872  16.633  65.766  1.00  0.00    -0.104 A  
HETATM   28  C   UNL     1     -11.356  15.529  65.056  1.00  0.00    -0.299 A  
HETATM   29  F   UNL     1     -10.864  17.858  65.217  1.00  0.00    -0.417 F  
HETATM   30  N   UNL     1     -11.876  15.453  63.797  1.00  0.00    -0.200 NA 
HETATM   31  C   UNL     1     -12.198  14.195  63.598  1.00  0.00    -0.005 A  
HETATM   32  N   UNL     1     -11.889  13.420  64.705  1.00  0.00    -0.374 NA 
HETATM   33  C   UNL     1     -12.824  13.730  62.334  1.00  0.00     3.275 C  
HETATM   34  C   UNL     1     -10.846  14.092  66.971  1.00  0.00    -0.295 A  
HETATM   35  C   UNL     1     -11.339  14.272  65.659  1.00  0.00    -0.317 A  
BRANCH  32  36
HETATM   36  C   UNL     1     -12.145  11.996  64.928  1.00  0.00    -0.174 C  
HETATM   37  C   UNL     1     -11.864  11.472  66.342  1.00  0.00     0.322 C  
HETATM   38  C   UNL     1     -11.417  11.134  63.895  1.00  0.00     0.189 C  
ENDBRANCH  32  36
ENDBRANCH  23  25
ENDBRANCH  16  18
ENDBRANCH  13  16
ENDBRANCH   9  10
ENDBRANCH   6   9
ENDBRANCH   2   3
TORSDOF 7
ENDMDL
MODEL      207
REMARK 921   NORMALIZED FREE ENERGY PREDICTED BY IDOCK:    5.06 KCAL/MOL
REMARK 922        TOTAL FREE ENERGY PREDICTED BY IDOCK:    6.26 KCAL/MOL
REMARK 923 INTER-LIGAND FREE ENERGY PREDICTED BY IDOCK:    6.61 KCAL/MOL
REMARK 924 INTRA-LIGAND FREE ENERGY PREDICTED BY IDOCK:   -0.34 KCAL/MOL
REMARK 927      BINDING AFFINITY PREDICTED BY RF-SCORE:    0.00 PKD
ROOT
HETATM    1  C   UNL     1     -12.155  21.169  65.451  1.00  0.00     6.023 C  
HETATM    2  C   UNL     1     -11.335  20.247  66.346  1.00  0.00     1.241 C  
ENDROOT
BRANCH   2   3
HETATM    3  N   UNL     1     -10.070  19.791  65.747  1.00  0.00    -0.422 NA 
HETATM    4  C   UNL     1      -8.921  20.299  66.535  1.00  0.00    -0.223 C  
HETATM    5  C   UNL     1      -8.654  19.530  67.854  1.00  0.00    -0.316 C  
HETATM    6  N   UNL     1      -8.527  18.062  67.695  1.00  0.00    -0.237 NA 
HETATM    7  C   UNL     1      -9.969  18.323  65.621  1.00  0.00     0.283 C  
HETATM    8  C   UNL     1      -9.711  17.577  66.952  1.00  0.00    -0.291 C  
BRANCH   6   9
HETATM    9  C   UNL     1      -7.291  17.677  66.984  1.00  0.00    -0.191 C  
BRANCH   9  10
HETATM   10  C   UNL     1      -6.757  16.335  67.398  1.00  0.00    -0.210 A  
HETATM   11  C   UNL     1      -7.285  15.160  66.875  1.00  0.00     0.275 A  
HETATM   12  C   UNL     1      -6.771  13.943  67.300  1.00  0.00     0.214 A  
HETATM   13  C   UNL     1      -5.743  13.914  68.245  1.00  0.00    -0.111 A  
HETATM   14  N   UNL     1      -5.203  15.044  68.744  1.00  0.00    -0.086 NA 
HETATM   15  C   UNL     1      -5.723  16.219  68.321  1.00  0.00    -0.107 A  
BRANCH  13  16
HETATM   16  N   UNL     1      -5.184  12.706  68.649  1.00  0.00    -0.055 NA 
HETATM   17  H   UNL     1      -4.498  12.284  68.023  1.00  0.00     0.000 HD 
BRANCH  16  18
HETATM   18  C   UNL     1      -5.468  12.020  69.819  1.00  0.00    -0.089 A  
HETATM   19  N   UNL     1      -5.423  12.717  70.964  1.00  0.00    -0.249 NA 
HETATM   20  C   UNL     1      -5.619  12.027  72.103  1.00  0.00     0.924 A  
HETATM   21  C   UNL     1      -5.942  10.692  72.132  1.00  0.00     1.112 A  
HETATM   22  F   UNL     1      -6.141  10.075  73.305  1.00  0.00     0.418 F  
HETATM   23  C   UNL     1      -6.043  10.052  70.914  1.00  0.00    -0.069 A  
HETATM   24  N   UNL     1      -5.763  10.707  69.764  1.00  0.00    -0.045 NA 
BRANCH  23  25
HETATM   25  C   UNL     1      -6.499   8.652  70.744  1.00  0.00    -0.043 A  
HETATM   26  C   UNL     1      -6.592   7.792  71.854  1.00  0.00    -0.047 A  
HETATM   27  C   UNL     1      -7.053   6.483  71.727  1.00  0.00    -0.084 A  
HETATM   28  C   UNL     1      -7.438   5.991  70.475  1.00  0.00    -0.090 A  
HETATM   29  F   UNL     1      -7.120   5.711  72.823  1.00  0.00    -0.079 F  
HETATM   30  N   UNL     1      -7.905   4.759  70.121  1.00  0.00    -0.057 NA 
HETATM   31  C   UNL     1      -8.109   4.793  68.823  1.00  0.00    -0.083 A  
HETATM   32  N   UNL     1      -7.797   6.038  68.302  1.00  0.00    -0.105 NA 
HETATM   33  C   UNL     1      -8.598   3.610  68.069  1.00  0.00    -0.116 C  
HETATM   34  C   UNL     1      -6.902   8.160  69.474  1.00  0.00    -0.042 A  
HETATM   35  C   UNL     1      -7.361   6.828  69.362  1.00  0.00    -0.092 A  
BRANCH  32  36
HETATM   36  C   UNL     1      -7.813   6.478  66.905  1.00  0.00    -0.107 C  
HETATM   37  C   UNL     1      -6.613   7.316  66.447  1.00  0.00    -0.053 C  
HETATM   38  C   UNL     1      -9.118   7.202  66.568  1.00  0.00    -0.182 C  
ENDBRANCH  32  36
ENDBRANCH  23  25
ENDBRANCH  16  18
ENDBRANCH  13  16
ENDBRANCH   9  10
ENDBRANCH   6   9
ENDBRANCH   2   3
TORSDOF 7
ENDMDL
MODEL      208
REMARK 921   NORMALIZED FREE ENERGY PREDICTED BY IDOCK:    6.21 KCAL/MOL
REMARK 922        TOTAL FREE ENERGY PREDICTED BY IDOCK:    7.88 KCAL/MOL
REMARK 923 INTER-LIGAND FREE ENERGY PREDICTED BY IDOCK:    1.14 KCAL/MOL
REMARK 924 INTRA-LIGAND FREE ENERGY PREDICTED BY IDOCK:    6.74 KCAL/MOL
REMARK 927      BINDING AFFINITY PREDICTED BY RF-SCORE:    0.00 PKD
ROOT
HETATM    1  C   UNL     1     -13.567  13.722  73.357  1.00  0.00     1.447 C  
HETATM    2  C   UNL     1     -12.147  13.837  72.814  1.00  0.00     0.905 C  
ENDROOT
BRANCH   2   3
HETATM    3  N   UNL     1     -12.030  13.581  71.369  1.00  0.00     0.141 NA 
HETATM    4  C   UNL     1     -13.063  14.347  70.631  1.00  0.00    -0.223 C  
HETATM    5  C   UNL     1     -12.747  15.855  70.460  1.00  0.00    -0.040 C  
HETATM    6  N   UNL     1     -11.417  16.142  69.875  1.00  0.00    -0.315 NA 
HETATM    7  C   UNL     1     -10.697  13.895  70.816  1.00  0.00     1.814 C  
HETATM    8  C   UNL     1     -10.401  15.407  70.663  1.00  0.00     0.105 C  
BRANCH   6   9
HETATM    9  C   UNL     1     -11.330  15.755  68.453  1.00  0.00    -0.372 C  
BRANCH   9  10
HETATM   10  C   UNL     1     -11.378  14.270  68.234  1.00  0.00    -0.314 A  
HETATM   11  C   UNL     1     -10.295  13.588  67.690  1.00  0.00    -0.239 A  
HETATM   12  C   UNL     1     -10.392  12.218  67.491  1.00  0.00    -0.214 A  
HETATM   13  C   UNL     1     -11.569  11.547  67.830  1.00  0.00    -0.282 A  
HETATM   14  N   UNL     1     -12.620  12.189  68.382  1.00  0.00     0.417 NA 
HETATM   15  C   UNL     1     -12.507  13.525  68.561  1.00  0.00     0.342 A  
BRANCH  13  16
HETATM   16  N   UNL     1     -11.670  10.169  67.681  1.00  0.00    -0.341 NA 
HETATM   17  H   UNL     1     -12.607   9.787  67.556  1.00  0.00     0.000 HD 
BRANCH  16  18
HETATM   18  C   UNL     1     -10.621   9.263  67.684  1.00  0.00    -0.261 A  
HETATM   19  N   UNL     1      -9.647   9.451  66.780  1.00  0.00    -0.167 NA 
HETATM   20  C   UNL     1      -8.674   8.522  66.735  1.00  0.00    -0.122 A  
HETATM   21  C   UNL     1      -8.594   7.467  67.611  1.00  0.00    -0.119 A  
HETATM   22  F   UNL     1      -7.585   6.591  67.517  1.00  0.00    -0.094 F  
HETATM   23  C   UNL     1      -9.589   7.374  68.562  1.00  0.00    -0.146 A  
HETATM   24  N   UNL     1     -10.623   8.248  68.568  1.00  0.00    -0.151 NA 
BRANCH  23  25
HETATM   25  C   UNL     1      -9.601   6.380  69.661  1.00  0.00    -0.157 A  
HETATM   26  C   UNL     1     -10.808   6.032  70.296  1.00  0.00    -0.398 A  
HETATM   27  C   UNL     1     -10.851   5.074  71.307  1.00  0.00     0.081 A  
HETATM   28  C   UNL     1      -9.679   4.427  71.715  1.00  0.00    -0.170 A  
HETATM   29  F   UNL     1     -12.033   4.786  71.875  1.00  0.00     0.550 F  
HETATM   30  N   UNL     1      -9.489   3.476  72.674  1.00  0.00    -0.116 NA 
HETATM   31  C   UNL     1      -8.204   3.203  72.683  1.00  0.00    -0.075 A  
HETATM   32  N   UNL     1      -7.529   3.951  71.732  1.00  0.00    -0.055 NA 
HETATM   33  C   UNL     1      -7.611   2.222  73.627  1.00  0.00    -0.042 C  
HETATM   34  C   UNL     1      -8.412   5.715  70.063  1.00  0.00    -0.122 A  
HETATM   35  C   UNL     1      -8.473   4.750  71.093  1.00  0.00    -0.106 A  
BRANCH  32  36
HETATM   36  C   UNL     1      -6.091   4.006  71.459  1.00  0.00    -0.014 C  
HETATM   37  C   UNL     1      -5.173   3.479  72.569  1.00  0.00     0.000 C  
HETATM   38  C   UNL     1      -5.659   5.414  71.046  1.00  0.00    -0.009 C  
ENDBRANCH  32  36
ENDBRANCH  23  25
ENDBRANCH  16  18
ENDBRANCH  13  16
ENDBRANCH   9  10
ENDBRANCH   6   9
ENDBRANCH   2   3
TORSDOF 7
ENDMDL
MODEL      209
REMARK 921   NORMALIZED FREE ENERGY PREDICTED BY IDOCK:    6.30 KCAL/MOL
REMARK 922        TOTAL FREE ENERGY PREDICTED BY IDOCK:    8.01 KCAL/MOL
REMARK 923 INTER-LIGAND FREE ENERGY PREDICTED BY IDOCK:    1.84 KCAL/MOL
REMARK 924 INTRA-LIGAND FREE ENERGY PREDICTED BY IDOCK:    6.18 KCAL/MOL
REMARK 927      BINDING AFFINITY PREDICTED BY RF-SCORE:    0.00 PKD
ROOT
HETATM    1  C   UNL     1     -13.362  15.927  66.792  1.00  0.00     5.220 C  
HETATM    2  C   UNL     1     -12.090  15.779  67.618  1.00  0.00     0.649 C  
ENDROOT
BRANCH   2   3
HETATM    3  N   UNL     1     -11.293  14.585  67.293  1.00  0.00    -0.336 NA 
HETATM    4  C   UNL     1     -12.069  13.358  67.597  1.00  0.00    -0.269 C  
HETATM    5  C   UNL     1     -13.154  13.005  66.549  1.00  0.00     1.951 C  
HETATM    6  N   UNL     1     -12.663  12.938  65.153  1.00  0.00    -0.722 NA 
HETATM    7  C   UNL     1     -10.836  14.541  65.889  1.00  0.00    -0.308 C  
HETATM    8  C   UNL     1     -11.939  14.196  64.860  1.00  0.00    -0.417 C  
BRANCH   6   9
HETATM    9  C   UNL     1     -11.776  11.779  64.923  1.00  0.00    -0.118 C  
BRANCH   9  10
HETATM   10  C   UNL     1     -10.767  11.573  66.016  1.00  0.00    -0.332 A  
HETATM   11  C   UNL     1      -9.402  11.629  65.754  1.00  0.00    -0.220 A  
HETATM   12  C   UNL     1      -8.508  11.416  66.793  1.00  0.00    -0.165 A  
HETATM   13  C   UNL     1      -8.984  11.144  68.077  1.00  0.00    -0.149 A  
HETATM   14  N   UNL     1     -10.304  11.111  68.354  1.00  0.00    -0.178 NA 
HETATM   15  C   UNL     1     -11.159  11.315  67.326  1.00  0.00    -0.305 A  
BRANCH  13  16
HETATM   16  N   UNL     1      -8.104  10.972  69.140  1.00  0.00    -0.319 NA 
HETATM   17  H   UNL     1      -7.841  11.810  69.659  1.00  0.00     0.000 HD 
BRANCH  16  18
HETATM   18  C   UNL     1      -7.549   9.775  69.563  1.00  0.00    -0.114 A  
HETATM   19  N   UNL     1      -6.694   9.827  70.594  1.00  0.00    -0.169 NA 
HETATM   20  C   UNL     1      -6.097   8.673  70.946  1.00  0.00    -0.037 A  
HETATM   21  C   UNL     1      -6.387   7.462  70.364  1.00  0.00    -0.038 A  
HETATM   22  F   UNL     1      -5.766   6.351  70.780  1.00  0.00    -0.020 F  
HETATM   23  C   UNL     1      -7.331   7.469  69.357  1.00  0.00    -0.085 A  
HETATM   24  N   UNL     1      -7.877   8.631  68.930  1.00  0.00    -0.103 NA 
BRANCH  23  25
HETATM   25  C   UNL     1      -7.858   6.250  68.702  1.00  0.00    -0.102 A  
HETATM   26  C   UNL     1      -8.555   5.282  69.449  1.00  0.00    -0.102 A  
HETATM   27  C   UNL     1      -9.092   4.144  68.850  1.00  0.00    -0.129 A  
HETATM   28  C   UNL     1      -8.949   3.939  67.473  1.00  0.00    -0.134 A  
HETATM   29  F   UNL     1      -9.746   3.257  69.616  1.00  0.00    -0.240 F  
HETATM   30  N   UNL     1      -9.381   2.910  66.689  1.00  0.00    -0.109 NA 
HETATM   31  C   UNL     1      -8.983   3.178  65.465  1.00  0.00    -0.144 A  
HETATM   32  N   UNL     1      -8.298   4.381  65.416  1.00  0.00    -0.110 NA 
HETATM   33  C   UNL     1      -9.250   2.259  64.329  1.00  0.00    -0.124 C  
HETATM   34  C   UNL     1      -7.723   6.051  67.302  1.00  0.00    -0.097 A  
HETATM   35  C   UNL     1      -8.269   4.889  66.712  1.00  0.00    -0.107 A  
BRANCH  32  36
HETATM   36  C   UNL     1      -7.632   5.011  64.274  1.00  0.00    -0.074 C  
HETATM   37  C   UNL     1      -8.054   6.451  63.957  1.00  0.00    -0.043 C  
HETATM   38  C   UNL     1      -7.744   4.143  63.020  1.00  0.00    -0.065 C  
ENDBRANCH  32  36
ENDBRANCH  23  25
ENDBRANCH  16  18
ENDBRANCH  13  16
ENDBRANCH   9  10
ENDBRANCH   6   9
ENDBRANCH   2   3
TORSDOF 7
ENDMDL
MODEL      210
REMARK 921   NORMALIZED FREE ENERGY PREDICTED BY IDOCK:    6.67 KCAL/MOL
REMARK 922        TOTAL FREE ENERGY PREDICTED BY IDOCK:    8.53 KCAL/MOL
REMARK 923 INTER-LIGAND FREE ENERGY PREDICTED BY IDOCK:    1.64 KCAL/MOL
REMARK 924 INTRA-LIGAND FREE ENERGY PREDICTED BY IDOCK:    6.88 KCAL/MOL
REMARK 927      BINDING AFFINITY PREDICTED BY RF-SCORE:    0.00 PKD
ROOT
HETATM    1  C   UNL     1     -10.599   9.496  63.274  1.00  0.00     4.094 C  
HETATM    2  C   UNL     1      -9.594   8.352  63.342  1.00  0.00     2.825 C  
ENDROOT
BRANCH   2   3
HETATM    3  N   UNL     1      -8.767   8.345  64.559  1.00  0.00     0.012 NA 
HETATM    4  C   UNL     1      -8.312   6.965  64.857  1.00  0.00    -0.017 C  
HETATM    5  C   UNL     1      -7.140   6.468  63.974  1.00  0.00    -0.054 C  
HETATM    6  N   UNL     1      -5.967   7.372  63.943  1.00  0.00    -0.044 NA 
HETATM    7  C   UNL     1      -7.597   9.243  64.487  1.00  0.00    -0.107 C  
HETATM    8  C   UNL     1      -6.443   8.730  63.592  1.00  0.00    -0.088 C  
BRANCH   6   9
HETATM    9  C   UNL     1      -5.247   7.407  65.232  1.00  0.00    -0.028 C  
BRANCH   9  10
HETATM   10  C   UNL     1      -6.022   6.795  66.365  1.00  0.00    -0.029 A  
HETATM   11  C   UNL     1      -7.347   6.405  66.201  1.00  0.00    -0.080 A  
HETATM   12  C   UNL     1      -8.027   5.860  67.281  1.00  0.00    -0.102 A  
HETATM   13  C   UNL     1      -7.380   5.718  68.511  1.00  0.00    -0.084 A  
HETATM   14  N   UNL     1      -6.089   6.068  68.680  1.00  0.00    -0.023 NA 
HETATM   15  C   UNL     1      -5.447   6.603  67.617  1.00  0.00    -0.008 A  
BRANCH  13  16
HETATM   16  N   UNL     1      -8.031   5.133  69.592  1.00  0.00    -0.078 NA 
HETATM   17  H   UNL     1      -8.052   4.113  69.619  1.00  0.00     0.000 HD 
BRANCH  16  18
HETATM   18  C   UNL     1      -8.653   5.799  70.635  1.00  0.00    -0.132 A  
HETATM   19  N   UNL     1      -8.570   5.243  71.853  1.00  0.00    -0.129 NA 
HETATM   20  C   UNL     1      -9.245   5.852  72.845  1.00  0.00    -0.138 A  
HETATM   21  C   UNL     1      -9.925   7.036  72.683  1.00  0.00    -0.173 A  
HETATM   22  F   UNL     1     -10.559   7.593  73.723  1.00  0.00    -0.386 F  
HETATM   23  C   UNL     1      -9.909   7.591  71.421  1.00  0.00    -0.177 A  
HETATM   24  N   UNL     1      -9.310   6.949  70.390  1.00  0.00    -0.159 NA 
BRANCH  23  25
HETATM   25  C   UNL     1     -10.480   8.917  71.087  1.00  0.00    -0.336 A  
HETATM   26  C   UNL     1     -11.556   9.439  71.830  1.00  0.00    -0.433 A  
HETATM   27  C   UNL     1     -12.086  10.699  71.559  1.00  0.00    -0.163 A  
HETATM   28  C   UNL     1     -11.551  11.482  70.531  1.00  0.00     0.004 A  
HETATM   29  F   UNL     1     -13.112  11.141  72.303  1.00  0.00    -0.581 F  
HETATM   30  N   UNL     1     -11.912  12.723  70.094  1.00  0.00    -0.337 NA 
HETATM   31  C   UNL     1     -11.112  13.016  69.093  1.00  0.00    -0.192 A  
HETATM   32  N   UNL     1     -10.208  11.992  68.861  1.00  0.00    -0.122 NA 
HETATM   33  C   UNL     1     -11.224  14.292  68.340  1.00  0.00    -0.291 C  
HETATM   34  C   UNL     1      -9.926   9.716  70.051  1.00  0.00    -0.288 A  
HETATM   35  C   UNL     1     -10.480  10.989  69.787  1.00  0.00     0.075 A  
BRANCH  32  36
HETATM   36  C   UNL     1      -9.198  11.882  67.806  1.00  0.00    -0.184 C  
HETATM   37  C   UNL     1      -8.088  12.940  67.821  1.00  0.00    -0.166 C  
HETATM   38  C   UNL     1      -9.847  11.820  66.423  1.00  0.00    -0.237 C  
ENDBRANCH  32  36
ENDBRANCH  23  25
ENDBRANCH  16  18
ENDBRANCH  13  16
ENDBRANCH   9  10
ENDBRANCH   6   9
ENDBRANCH   2   3
TORSDOF 7
ENDMDL
MODEL      211
REMARK 921   NORMALIZED FREE ENERGY PREDICTED BY IDOCK:    7.99 KCAL/MOL
REMARK 922        TOTAL FREE ENERGY PREDICTED BY IDOCK:   10.38 KCAL/MOL
REMARK 923 INTER-LIGAND FREE ENERGY PREDICTED BY IDOCK:    0.85 KCAL/MOL
REMARK 924 INTRA-LIGAND FREE ENERGY PREDICTED BY IDOCK:    9.54 KCAL/MOL
REMARK 927      BINDING AFFINITY PREDICTED BY RF-SCORE:    0.00 PKD
ROOT
HETATM    1  C   UNL     1      -9.186  19.267  69.792  1.00  0.00     0.531 C  
HETATM    2  C   UNL     1      -9.304  18.256  68.657  1.00  0.00    -0.303 C  
ENDROOT
BRANCH   2   3
HETATM    3  N   UNL     1      -8.559  17.006  68.881  1.00  0.00    -0.236 NA 
HETATM    4  C   UNL     1      -7.343  16.980  68.033  1.00  0.00    -0.180 C  
HETATM    5  C   UNL     1      -6.174  17.852  68.555  1.00  0.00    -0.189 C  
HETATM    6  N   UNL     1      -5.792  17.591  69.962  1.00  0.00    -0.253 NA 
HETATM    7  C   UNL     1      -8.179  16.787  70.291  1.00  0.00     2.508 C  
HETATM    8  C   UNL     1      -7.015  17.675  70.792  1.00  0.00     2.839 C  
BRANCH   6   9
HETATM    9  C   UNL     1      -5.153  16.271  70.137  1.00  0.00    -0.152 C  
BRANCH   9  10
HETATM   10  C   UNL     1      -5.665  15.228  69.184  1.00  0.00    -0.099 A  
HETATM   11  C   UNL     1      -5.369  13.882  69.366  1.00  0.00    -0.083 A  
HETATM   12  C   UNL     1      -5.851  12.957  68.450  1.00  0.00    -0.071 A  
HETATM   13  C   UNL     1      -6.615  13.387  67.363  1.00  0.00    -0.023 A  
HETATM   14  N   UNL     1      -6.933  14.685  67.187  1.00  0.00    -0.151 NA 
HETATM   15  C   UNL     1      -6.448  15.571  68.087  1.00  0.00    -0.125 A  
BRANCH  13  16
HETATM   16  N   UNL     1      -7.144  12.471  66.461  1.00  0.00    -0.108 NA 
HETATM   17  H   UNL     1      -6.730  12.452  65.529  1.00  0.00     0.000 HD 
BRANCH  16  18
HETATM   18  C   UNL     1      -8.179  11.582  66.704  1.00  0.00    -0.156 A  
HETATM   19  N   UNL     1      -9.430  12.045  66.564  1.00  0.00    -0.222 NA 
HETATM   20  C   UNL     1     -10.429  11.200  66.880  1.00  0.00    -0.246 A  
HETATM   21  C   UNL     1     -10.225   9.891  67.246  1.00  0.00    -0.222 A  
HETATM   22  F   UNL     1     -11.271   9.103  67.529  1.00  0.00    -0.236 F  
HETATM   23  C   UNL     1      -8.916   9.459  67.300  1.00  0.00    -0.130 A  
HETATM   24  N   UNL     1      -7.895  10.317  67.071  1.00  0.00    -0.106 NA 
BRANCH  23  25
HETATM   25  C   UNL     1      -8.512   8.056  67.554  1.00  0.00    -0.127 A  
HETATM   26  C   UNL     1      -7.493   7.457  66.790  1.00  0.00    -0.096 A  
HETATM   27  C   UNL     1      -7.070   6.152  67.034  1.00  0.00    -0.073 A  
HETATM   28  C   UNL     1      -7.656   5.401  68.058  1.00  0.00    -0.081 A  
HETATM   29  F   UNL     1      -6.093   5.636  66.271  1.00  0.00    -0.027 F  
HETATM   30  N   UNL     1      -7.408   4.122  68.463  1.00  0.00    -0.055 NA 
HETATM   31  C   UNL     1      -8.233   3.875  69.455  1.00  0.00    -0.053 A  
HETATM   32  N   UNL     1      -9.026   4.977  69.731  1.00  0.00    -0.104 NA 
HETATM   33  C   UNL     1      -8.272   2.557  70.141  1.00  0.00    -0.064 C  
HETATM   34  C   UNL     1      -9.100   7.301  68.604  1.00  0.00    -0.133 A  
HETATM   35  C   UNL     1      -8.662   5.977  68.833  1.00  0.00    -0.122 A  
BRANCH  32  36
HETATM   36  C   UNL     1     -10.114   5.104  70.703  1.00  0.00    -0.239 C  
HETATM   37  C   UNL     1     -11.273   6.026  70.302  1.00  0.00    -0.392 C  
HETATM   38  C   UNL     1      -9.582   5.498  72.081  1.00  0.00    -0.173 C  
ENDBRANCH  32  36
ENDBRANCH  23  25
ENDBRANCH  16  18
ENDBRANCH  13  16
ENDBRANCH   9  10
ENDBRANCH   6   9
ENDBRANCH   2   3
TORSDOF 7
ENDMDL
MODEL      212
REMARK 921   NORMALIZED FREE ENERGY PREDICTED BY IDOCK:    8.67 KCAL/MOL
REMARK 922        TOTAL FREE ENERGY PREDICTED BY IDOCK:   11.34 KCAL/MOL
REMARK 923 INTER-LIGAND FREE ENERGY PREDICTED BY IDOCK:    9.50 KCAL/MOL
REMARK 924 INTRA-LIGAND FREE ENERGY PREDICTED BY IDOCK:    1.84 KCAL/MOL
REMARK 927      BINDING AFFINITY PREDICTED BY RF-SCORE:    0.00 PKD
ROOT
HETATM    1  C   UNL     1      -8.223  15.634  72.184  1.00  0.00     8.083 C  
HETATM    2  C   UNL     1      -9.331  16.085  71.239  1.00  0.00     3.951 C  
ENDROOT
BRANCH   2   3
HETATM    3  N   UNL     1      -9.143  15.661  69.842  1.00  0.00    -0.046 NA 
HETATM    4  C   UNL     1      -8.120  16.510  69.185  1.00  0.00    -0.170 C  
HETATM    5  C   UNL     1      -6.657  16.162  69.560  1.00  0.00    -0.200 C  
HETATM    6  N   UNL     1      -6.298  14.737  69.378  1.00  0.00    -0.115 NA 
HETATM    7  C   UNL     1      -8.768  14.240  69.698  1.00  0.00     0.723 C  
HETATM    8  C   UNL     1      -7.306  13.916  70.087  1.00  0.00     0.823 C  
BRANCH   6   9
HETATM    9  C   UNL     1      -6.239  14.347  67.955  1.00  0.00    -0.156 C  
BRANCH   9  10
HETATM   10  C   UNL     1      -5.959  12.886  67.746  1.00  0.00    -0.141 A  
HETATM   11  C   UNL     1      -5.573  12.398  66.502  1.00  0.00     0.865 A  
HETATM   12  C   UNL     1      -5.342  11.038  66.355  1.00  0.00    -0.114 A  
HETATM   13  C   UNL     1      -5.504  10.182  67.446  1.00  0.00    -0.041 A  
HETATM   14  N   UNL     1      -5.853  10.641  68.664  1.00  0.00    -0.040 NA 
HETATM   15  C   UNL     1      -6.081  11.969  68.785  1.00  0.00    -0.059 A  
BRANCH  13  16
HETATM   16  N   UNL     1      -5.233   8.823  67.328  1.00  0.00    -0.033 NA 
HETATM   17  H   UNL     1      -4.542   8.551  66.630  1.00  0.00     0.000 HD 
BRANCH  16  18
HETATM   18  C   UNL     1      -5.811   7.803  68.067  1.00  0.00    -0.040 A  
HETATM   19  N   UNL     1      -5.151   6.637  68.121  1.00  0.00    -0.007 NA 
HETATM   20  C   UNL     1      -5.757   5.626  68.772  1.00  0.00    -0.015 A  
HETATM   21  C   UNL     1      -6.951   5.764  69.439  1.00  0.00    -0.063 A  
HETATM   22  F   UNL     1      -7.485   4.716  70.081  1.00  0.00    -0.050 F  
HETATM   23  C   UNL     1      -7.541   7.010  69.403  1.00  0.00    -0.099 A  
HETATM   24  N   UNL     1      -6.991   8.015  68.682  1.00  0.00    -0.069 NA 
BRANCH  23  25
HETATM   25  C   UNL     1      -8.759   7.377  70.162  1.00  0.00    -0.143 A  
HETATM   26  C   UNL     1      -9.301   6.493  71.114  1.00  0.00    -0.167 A  
HETATM   27  C   UNL     1     -10.424   6.829  71.867  1.00  0.00    -0.199 A  
HETATM   28  C   UNL     1     -11.045   8.070  71.689  1.00  0.00    -0.252 A  
HETATM   29  F   UNL     1     -10.893   5.944  72.760  1.00  0.00    -0.225 F  
HETATM   30  N   UNL     1     -12.144   8.599  72.302  1.00  0.00    -0.377 NA 
HETATM   31  C   UNL     1     -12.333   9.788  71.774  1.00  0.00    -0.386 A  
HETATM   32  N   UNL     1     -11.366  10.070  70.822  1.00  0.00    -0.336 NA 
HETATM   33  C   UNL     1     -13.464  10.661  72.179  1.00  0.00    -0.237 C  
HETATM   34  C   UNL     1      -9.380   8.643  69.989  1.00  0.00    -0.165 A  
HETATM   35  C   UNL     1     -10.522   8.965  70.756  1.00  0.00    -0.227 A  
BRANCH  32  36
HETATM   36  C   UNL     1     -11.249  11.244  69.954  1.00  0.00    -0.187 C  
HETATM   37  C   UNL     1     -11.913  12.529  70.464  1.00  0.00    -0.277 C  
HETATM   38  C   UNL     1     -11.726  10.933  68.535  1.00  0.00    -0.307 C  
ENDBRANCH  32  36
ENDBRANCH  23  25
ENDBRANCH  16  18
ENDBRANCH  13  16
ENDBRANCH   9  10
ENDBRANCH   6   9
ENDBRANCH   2   3
TORSDOF 7
ENDMDL
MODEL      213
REMARK 921   NORMALIZED FREE ENERGY PREDICTED BY IDOCK:    9.17 KCAL/MOL
REMARK 922        TOTAL FREE ENERGY PREDICTED BY IDOCK:   12.05 KCAL/MOL
REMARK 923 INTER-LIGAND FREE ENERGY PREDICTED BY IDOCK:    8.40 KCAL/MOL
REMARK 924 INTRA-LIGAND FREE ENERGY PREDICTED BY IDOCK:    3.66 KCAL/MOL
REMARK 927      BINDING AFFINITY PREDICTED BY RF-SCORE:    0.00 PKD
ROOT
HETATM    1  C   UNL     1      -6.181  20.849  66.135  1.00  0.00    -0.302 C  
HETATM    2  C   UNL     1      -7.082  19.791  65.508  1.00  0.00    -0.288 C  
ENDROOT
BRANCH   2   3
HETATM    3  N   UNL     1      -7.956  19.096  66.468  1.00  0.00    -0.272 NA 
HETATM    4  C   UNL     1      -9.361  19.532  66.284  1.00  0.00    -0.372 C  
HETATM    5  C   UNL     1     -10.078  18.899  65.065  1.00  0.00     2.015 C  
HETATM    6  N   UNL     1     -10.016  17.420  65.015  1.00  0.00     0.491 NA 
HETATM    7  C   UNL     1      -7.883  17.624  66.377  1.00  0.00    -0.283 C  
HETATM    8  C   UNL     1      -8.598  17.015  65.147  1.00  0.00     2.618 C  
BRANCH   6   9
HETATM    9  C   UNL     1     -10.824  16.785  66.076  1.00  0.00    -0.026 C  
BRANCH   9  10
HETATM   10  C   UNL     1     -10.008  16.312  67.246  1.00  0.00    -0.250 A  
HETATM   11  C   UNL     1      -9.551  15.001  67.320  1.00  0.00    -0.208 A  
HETATM   12  C   UNL     1      -8.816  14.606  68.428  1.00  0.00    -0.181 A  
HETATM   13  C   UNL     1      -8.550  15.521  69.449  1.00  0.00    -0.259 A  
HETATM   14  N   UNL     1      -8.963  16.803  69.381  1.00  0.00     0.013 NA 
HETATM   15  C   UNL     1      -9.685  17.165  68.296  1.00  0.00    -0.280 A  
BRANCH  13  16
HETATM   16  N   UNL     1      -7.776  15.156  70.545  1.00  0.00     0.244 NA 
HETATM   17  H   UNL     1      -7.630  15.868  71.262  1.00  0.00     0.000 HD 
BRANCH  16  18
HETATM   18  C   UNL     1      -7.184  13.922  70.759  1.00  0.00     1.718 A  
HETATM   19  N   UNL     1      -6.083  13.896  71.525  1.00  0.00    -0.225 NA 
HETATM   20  C   UNL     1      -5.466  12.706  71.661  1.00  0.00     0.122 A  
HETATM   21  C   UNL     1      -5.957  11.536  71.134  1.00  0.00     0.460 A  
HETATM   22  F   UNL     1      -5.298  10.385  71.327  1.00  0.00    -0.073 F  
HETATM   23  C   UNL     1      -7.133  11.623  70.419  1.00  0.00     1.473 A  
HETATM   24  N   UNL     1      -7.720  12.822  70.197  1.00  0.00     1.954 NA 
BRANCH  23  25
HETATM   25  C   UNL     1      -7.871  10.454  69.885  1.00  0.00    -0.050 A  
HETATM   26  C   UNL     1      -7.440   9.814  68.708  1.00  0.00    -0.075 A  
HETATM   27  C   UNL     1      -8.095   8.692  68.205  1.00  0.00    -0.118 A  
HETATM   28  C   UNL     1      -9.210   8.170  68.871  1.00  0.00    -0.147 A  
HETATM   29  F   UNL     1      -7.636   8.125  67.078  1.00  0.00    -0.089 F  
HETATM   30  N   UNL     1      -9.997   7.100  68.560  1.00  0.00    -0.154 NA 
HETATM   31  C   UNL     1     -10.922   7.032  69.491  1.00  0.00    -0.220 A  
HETATM   32  N   UNL     1     -10.759   8.037  70.431  1.00  0.00    -0.229 NA 
HETATM   33  C   UNL     1     -11.988   5.997  69.471  1.00  0.00     1.192 C  
HETATM   34  C   UNL     1      -8.994   9.919  70.570  1.00  0.00     0.118 A  
HETATM   35  C   UNL     1      -9.650   8.783  70.043  1.00  0.00    -0.169 A  
BRANCH  32  36
HETATM   36  C   UNL     1     -11.604   8.362  71.582  1.00  0.00    -0.289 C  
HETATM   37  C   UNL     1     -12.910   9.104  71.273  1.00  0.00    -0.323 C  
HETATM   38  C   UNL     1     -10.813   9.114  72.654  1.00  0.00     0.862 C  
ENDBRANCH  32  36
ENDBRANCH  23  25
ENDBRANCH  16  18
ENDBRANCH  13  16
ENDBRANCH   9  10
ENDBRANCH   6   9
ENDBRANCH   2   3
TORSDOF 7
ENDMDL
MODEL      214
REMARK 921   NORMALIZED FREE ENERGY PREDICTED BY IDOCK:   10.17 KCAL/MOL
REMARK 922        TOTAL FREE ENERGY PREDICTED BY IDOCK:   13.46 KCAL/MOL
REMARK 923 INTER-LIGAND FREE ENERGY PREDICTED BY IDOCK:   10.97 KCAL/MOL
REMARK 924 INTRA-LIGAND FREE ENERGY PREDICTED BY IDOCK:    2.50 KCAL/MOL
REMARK 927      BINDING AFFINITY PREDICTED BY RF-SCORE:    0.00 PKD
ROOT
HETATM    1  C   UNL     1     -11.648  17.732  66.006  1.00  0.00     2.065 C  
HETATM    2  C   UNL     1     -10.332  18.158  66.647  1.00  0.00    -0.376 C  
ENDROOT
BRANCH   2   3
HETATM    3  N   UNL     1      -9.862  17.261  67.715  1.00  0.00    -0.272 NA 
HETATM    4  C   UNL     1      -9.636  18.030  68.963  1.00  0.00    -0.144 C  
HETATM    5  C   UNL     1     -10.927  18.391  69.740  1.00  0.00     2.095 C  
HETATM    6  N   UNL     1     -11.813  17.240  70.030  1.00  0.00     1.982 NA 
HETATM    7  C   UNL     1     -10.778  16.135  67.991  1.00  0.00    -0.321 C  
HETATM    8  C   UNL     1     -12.064  16.523  68.760  1.00  0.00     0.672 C  
BRANCH   6   9
HETATM    9  C   UNL     1     -11.231  16.318  71.025  1.00  0.00    -0.184 C  
BRANCH   9  10
HETATM   10  C   UNL     1     -11.651  14.888  70.832  1.00  0.00    -0.344 A  
HETATM   11  C   UNL     1     -11.154  13.877  71.647  1.00  0.00     2.509 A  
HETATM   12  C   UNL     1     -11.559  12.569  71.419  1.00  0.00     2.030 A  
HETATM   13  C   UNL     1     -12.447  12.286  70.379  1.00  0.00    -0.141 A  
HETATM   14  N   UNL     1     -12.958  13.258  69.596  1.00  0.00     0.681 NA 
HETATM   15  C   UNL     1     -12.546  14.525  69.830  1.00  0.00    -0.180 A  
BRANCH  13  16
HETATM   16  N   UNL     1     -12.899  10.989  70.164  1.00  0.00    -0.139 NA 
HETATM   17  H   UNL     1     -13.903  10.867  70.033  1.00  0.00     0.000 HD 
BRANCH  16  18
HETATM   18  C   UNL     1     -12.118   9.845  70.110  1.00  0.00    -0.025 A  
HETATM   19  N   UNL     1     -12.449   8.839  70.932  1.00  0.00    -0.108 NA 
HETATM   20  C   UNL     1     -11.638   7.764  70.933  1.00  0.00    -0.274 A  
HETATM   21  C   UNL     1     -10.566   7.625  70.085  1.00  0.00    -0.236 A  
HETATM   22  F   UNL     1      -9.814   6.517  70.130  1.00  0.00    -0.166 F  
HETATM   23  C   UNL     1     -10.325   8.667  69.215  1.00  0.00    -0.221 A  
HETATM   24  N   UNL     1     -11.075   9.793  69.259  1.00  0.00    -0.192 NA 
BRANCH  23  25
HETATM   25  C   UNL     1      -9.294   8.642  68.151  1.00  0.00    -0.145 A  
HETATM   26  C   UNL     1      -8.045   8.034  68.380  1.00  0.00    -0.122 A  
HETATM   27  C   UNL     1      -7.073   7.965  67.384  1.00  0.00    -0.083 A  
HETATM   28  C   UNL     1      -7.322   8.506  66.118  1.00  0.00    -0.081 A  
HETATM   29  F   UNL     1      -5.902   7.372  67.664  1.00  0.00    -0.028 F  
HETATM   30  N   UNL     1      -6.524   8.557  65.013  1.00  0.00    -0.060 NA 
HETATM   31  C   UNL     1      -7.211   9.181  64.082  1.00  0.00    -0.096 A  
HETATM   32  N   UNL     1      -8.467   9.539  64.546  1.00  0.00    -0.168 NA 
HETATM   33  C   UNL     1      -6.651   9.450  62.733  1.00  0.00    -0.097 C  
HETATM   34  C   UNL     1      -9.554   9.180  66.862  1.00  0.00    -0.233 A  
HETATM   35  C   UNL     1      -8.555   9.106  65.866  1.00  0.00    -0.151 A  
BRANCH  32  36
HETATM   36  C   UNL     1      -9.513  10.304  63.863  1.00  0.00    -0.302 C  
HETATM   37  C   UNL     1     -10.614   9.482  63.181  1.00  0.00     4.068 C  
HETATM   38  C   UNL     1      -8.912  11.301  62.872  1.00  0.00    -0.246 C  
ENDBRANCH  32  36
ENDBRANCH  23  25
ENDBRANCH  16  18
ENDBRANCH  13  16
ENDBRANCH   9  10
ENDBRANCH   6   9
ENDBRANCH   2   3
TORSDOF 7
ENDMDL
MODEL      215
REMARK 921   NORMALIZED FREE ENERGY PREDICTED BY IDOCK:   11.94 KCAL/MOL
REMARK 922        TOTAL FREE ENERGY PREDICTED BY IDOCK:   15.95 KCAL/MOL
REMARK 923 INTER-LIGAND FREE ENERGY PREDICTED BY IDOCK:   12.64 KCAL/MOL
REMARK 924 INTRA-LIGAND FREE ENERGY PREDICTED BY IDOCK:    3.30 KCAL/MOL
REMARK 927      BINDING AFFINITY PREDICTED BY RF-SCORE:    0.00 PKD
ROOT
HETATM    1  C   UNL     1      -6.131  20.273  65.977  1.00  0.00    -0.217 C  
HETATM    2  C   UNL     1      -7.098  19.271  65.356  1.00  0.00    -0.096 C  
ENDROOT
BRANCH   2   3
HETATM    3  N   UNL     1      -8.099  18.736  66.293  1.00  0.00    -0.359 NA 
HETATM    4  C   UNL     1      -9.438  19.288  65.976  1.00  0.00    -0.168 C  
HETATM    5  C   UNL     1     -10.132  18.635  64.754  1.00  0.00     3.345 C  
HETATM    6  N   UNL     1     -10.214  17.157  64.810  1.00  0.00     0.401 NA 
HETATM    7  C   UNL     1      -8.167  17.261  66.311  1.00  0.00    -0.267 C  
HETATM    8  C   UNL     1      -8.856  16.631  65.076  1.00  0.00     2.853 C  
BRANCH   6   9
HETATM    9  C   UNL     1     -11.151  16.684  65.850  1.00  0.00     0.210 C  
BRANCH   9  10
HETATM   10  C   UNL     1     -10.468  16.247  67.115  1.00  0.00    -0.297 A  
HETATM   11  C   UNL     1     -10.078  14.925  67.301  1.00  0.00    -0.235 A  
HETATM   12  C   UNL     1      -9.466  14.565  68.493  1.00  0.00    -0.211 A  
HETATM   13  C   UNL     1      -9.256  15.525  69.486  1.00  0.00    -0.265 A  
HETATM   14  N   UNL     1      -9.605  16.816  69.311  1.00  0.00    -0.174 NA 
HETATM   15  C   UNL     1     -10.206  17.144  68.145  1.00  0.00    -0.332 A  
BRANCH  13  16
HETATM   16  N   UNL     1      -8.604  15.194  70.668  1.00  0.00     0.750 NA 
HETATM   17  H   UNL     1      -8.768  15.803  71.470  1.00  0.00     0.000 HD 
BRANCH  16  18
HETATM   18  C   UNL     1      -7.752  14.118  70.863  1.00  0.00     2.836 A  
HETATM   19  N   UNL     1      -6.819  14.241  71.818  1.00  0.00     1.196 NA 
HETATM   20  C   UNL     1      -5.945  13.225  71.947  1.00  0.00     0.854 A  
HETATM   21  C   UNL     1      -6.023  12.063  71.219  1.00  0.00     0.769 A  
HETATM   22  F   UNL     1      -5.127  11.087  71.415  1.00  0.00    -0.094 F  
HETATM   23  C   UNL     1      -7.051  11.973  70.303  1.00  0.00     1.414 A  
HETATM   24  N   UNL     1      -7.887  13.018  70.098  1.00  0.00     2.144 NA 
BRANCH  23  25
HETATM   25  C   UNL     1      -7.365  10.755  69.520  1.00  0.00    -0.125 A  
HETATM   26  C   UNL     1      -8.075   9.691  70.108  1.00  0.00    -0.205 A  
HETATM   27  C   UNL     1      -8.414   8.551  69.383  1.00  0.00    -0.127 A  
HETATM   28  C   UNL     1      -8.051   8.439  68.036  1.00  0.00    -0.123 A  
HETATM   29  F   UNL     1      -9.092   7.570  69.999  1.00  0.00    -0.145 F  
HETATM   30  N   UNL     1      -8.269   7.426  67.149  1.00  0.00    -0.117 NA 
HETATM   31  C   UNL     1      -7.720   7.796  66.013  1.00  0.00    -0.093 A  
HETATM   32  N   UNL     1      -7.146   9.053  66.124  1.00  0.00    -0.085 NA 
HETATM   33  C   UNL     1      -7.733   6.927  64.809  1.00  0.00    -0.115 C  
HETATM   34  C   UNL     1      -7.008  10.650  68.149  1.00  0.00    -0.073 A  
HETATM   35  C   UNL     1      -7.354   9.484  67.431  1.00  0.00    -0.087 A  
BRANCH  32  36
HETATM   36  C   UNL     1      -6.378   9.801  65.126  1.00  0.00    -0.094 C  
HETATM   37  C   UNL     1      -5.363  10.811  65.674  1.00  0.00    -0.138 C  
HETATM   38  C   UNL     1      -7.300  10.480  64.113  1.00  0.00     0.113 C  
ENDBRANCH  32  36
ENDBRANCH  23  25
ENDBRANCH  16  18
ENDBRANCH  13  16
ENDBRANCH   9  10
ENDBRANCH   6   9
ENDBRANCH   2   3
TORSDOF 7
ENDMDL
MODEL      216
REMARK 921   NORMALIZED FREE ENERGY PREDICTED BY IDOCK:   12.78 KCAL/MOL
REMARK 922        TOTAL FREE ENERGY PREDICTED BY IDOCK:   17.13 KCAL/MOL
REMARK 923 INTER-LIGAND FREE ENERGY PREDICTED BY IDOCK:    6.60 KCAL/MOL
REMARK 924 INTRA-LIGAND FREE ENERGY PREDICTED BY IDOCK:   10.53 KCAL/MOL
REMARK 927      BINDING AFFINITY PREDICTED BY RF-SCORE:    0.00 PKD
ROOT
HETATM    1  C   UNL     1      -9.221  19.274  69.873  1.00  0.00     0.726 C  
HETATM    2  C   UNL     1      -9.394  18.278  68.732  1.00  0.00    -0.255 C  
ENDROOT
BRANCH   2   3
HETATM    3  N   UNL     1      -8.904  16.922  69.034  1.00  0.00    -0.212 NA 
HETATM    4  C   UNL     1      -7.641  16.664  68.303  1.00  0.00    -0.181 C  
HETATM    5  C   UNL     1      -6.388  17.331  68.925  1.00  0.00    -0.199 C  
HETATM    6  N   UNL     1      -6.187  17.040  70.364  1.00  0.00     0.214 NA 
HETATM    7  C   UNL     1      -8.698  16.674  70.475  1.00  0.00     3.286 C  
HETATM    8  C   UNL     1      -7.446  17.357  71.076  1.00  0.00     5.239 C  
BRANCH   6   9
HETATM    9  C   UNL     1      -5.808  15.634  70.608  1.00  0.00     0.026 C  
BRANCH   9  10
HETATM   10  C   UNL     1      -6.415  14.673  69.625  1.00  0.00    -0.149 A  
HETATM   11  C   UNL     1      -5.766  13.493  69.279  1.00  0.00    -0.081 A  
HETATM   12  C   UNL     1      -6.358  12.645  68.353  1.00  0.00    -0.069 A  
HETATM   13  C   UNL     1      -7.585  12.987  67.781  1.00  0.00    -0.152 A  
HETATM   14  N   UNL     1      -8.240  14.115  68.124  1.00  0.00    -0.139 NA 
HETATM   15  C   UNL     1      -7.642  14.931  69.022  1.00  0.00    -0.151 A  
BRANCH  13  16
HETATM   16  N   UNL     1      -8.215  12.130  66.886  1.00  0.00    -0.285 NA 
HETATM   17  H   UNL     1      -8.178  12.386  65.899  1.00  0.00     0.000 HD 
BRANCH  16  18
HETATM   18  C   UNL     1      -8.889  10.961  67.204  1.00  0.00    -0.135 A  
HETATM   19  N   UNL     1      -9.769  11.017  68.214  1.00  0.00    -0.170 NA 
HETATM   20  C   UNL     1     -10.359   9.860  68.570  1.00  0.00    -0.196 A  
HETATM   21  C   UNL     1     -10.165   8.675  67.901  1.00  0.00    -0.219 A  
HETATM   22  F   UNL     1     -10.801   7.567  68.302  1.00  0.00    -0.224 F  
HETATM   23  C   UNL     1      -9.301   8.704  66.826  1.00  0.00    -0.179 A  
HETATM   24  N   UNL     1      -8.632   9.837  66.507  1.00  0.00    -0.127 NA 
BRANCH  23  25
HETATM   25  C   UNL     1      -9.065   7.559  65.916  1.00  0.00    -0.086 A  
HETATM   26  C   UNL     1      -8.940   7.763  64.529  1.00  0.00     0.731 A  
HETATM   27  C   UNL     1      -8.681   6.707  63.657  1.00  0.00     0.659 A  
HETATM   28  C   UNL     1      -8.538   5.406  64.149  1.00  0.00    -0.034 A  
HETATM   29  F   UNL     1      -8.572   6.966  62.344  1.00  0.00    -0.090 F  
HETATM   30  N   UNL     1      -8.293   4.238  63.487  1.00  0.00    -0.095 NA 
HETATM   31  C   UNL     1      -8.262   3.290  64.396  1.00  0.00    -0.086 A  
HETATM   32  N   UNL     1      -8.472   3.809  65.664  1.00  0.00    -0.109 NA 
HETATM   33  C   UNL     1      -8.043   1.864  64.043  1.00  0.00    -0.073 C  
HETATM   34  C   UNL     1      -8.907   6.240  66.420  1.00  0.00    -0.147 A  
HETATM   35  C   UNL     1      -8.651   5.181  65.520  1.00  0.00    -0.143 A  
BRANCH  32  36
HETATM   36  C   UNL     1      -8.584   3.096  66.939  1.00  0.00    -0.114 C  
HETATM   37  C   UNL     1      -8.766   3.970  68.187  1.00  0.00    -0.120 C  
HETATM   38  C   UNL     1      -7.414   2.132  67.139  1.00  0.00    -0.060 C  
ENDBRANCH  32  36
ENDBRANCH  23  25
ENDBRANCH  16  18
ENDBRANCH  13  16
ENDBRANCH   9  10
ENDBRANCH   6   9
ENDBRANCH   2   3
TORSDOF 7
ENDMDL
MODEL      217
REMARK 921   NORMALIZED FREE ENERGY PREDICTED BY IDOCK:   12.85 KCAL/MOL
REMARK 922        TOTAL FREE ENERGY PREDICTED BY IDOCK:   17.23 KCAL/MOL
REMARK 923 INTER-LIGAND FREE ENERGY PREDICTED BY IDOCK:   13.65 KCAL/MOL
REMARK 924 INTRA-LIGAND FREE ENERGY PREDICTED BY IDOCK:    3.58 KCAL/MOL
REMARK 927      BINDING AFFINITY PREDICTED BY RF-SCORE:    0.00 PKD
ROOT
HETATM    1  C   UNL     1      -6.132  20.273  65.978  1.00  0.00    -0.217 C  
HETATM    2  C   UNL     1      -7.101  19.272  65.358  1.00  0.00    -0.096 C  
ENDROOT
BRANCH   2   3
HETATM    3  N   UNL     1      -8.108  18.746  66.295  1.00  0.00    -0.359 NA 
HETATM    4  C   UNL     1      -9.444  19.299  65.968  1.00  0.00    -0.168 C  
HETATM    5  C   UNL     1     -10.134  18.640  64.747  1.00  0.00     3.345 C  
HETATM    6  N   UNL     1     -10.221  17.163  64.813  1.00  0.00     0.401 NA 
HETATM    7  C   UNL     1      -8.180  17.271  66.321  1.00  0.00    -0.267 C  
HETATM    8  C   UNL     1      -8.865  16.636  65.088  1.00  0.00     2.204 C  
BRANCH   6   9
HETATM    9  C   UNL     1     -11.163  16.699  65.852  1.00  0.00     0.387 C  
BRANCH   9  10
HETATM   10  C   UNL     1     -10.487  16.273  67.124  1.00  0.00    -0.297 A  
HETATM   11  C   UNL     1     -10.102  14.952  67.325  1.00  0.00    -0.235 A  
HETATM   12  C   UNL     1      -9.496  14.602  68.524  1.00  0.00    -0.216 A  
HETATM   13  C   UNL     1      -9.287  15.571  69.507  1.00  0.00    -0.276 A  
HETATM   14  N   UNL     1      -9.631  16.862  69.318  1.00  0.00    -0.148 NA 
HETATM   15  C   UNL     1     -10.227  17.180  68.146  1.00  0.00    -0.332 A  
BRANCH  13  16
HETATM   16  N   UNL     1      -8.641  15.250  70.695  1.00  0.00     0.772 NA 
HETATM   17  H   UNL     1      -8.804  15.869  71.490  1.00  0.00     0.000 HD 
BRANCH  16  18
HETATM   18  C   UNL     1      -7.797  14.171  70.906  1.00  0.00     3.124 A  
HETATM   19  N   UNL     1      -6.867  14.300  71.863  1.00  0.00     1.298 NA 
HETATM   20  C   UNL     1      -5.998  13.281  72.007  1.00  0.00     0.963 A  
HETATM   21  C   UNL     1      -6.081  12.111  71.292  1.00  0.00     1.098 A  
HETATM   22  F   UNL     1      -5.191  11.132  71.502  1.00  0.00    -0.104 F  
HETATM   23  C   UNL     1      -7.106  12.016  70.374  1.00  0.00     1.771 A  
HETATM   24  N   UNL     1      -7.935  13.063  70.153  1.00  0.00     2.389 NA 
BRANCH  23  25
HETATM   25  C   UNL     1      -7.424  10.791  69.604  1.00  0.00    -0.082 A  
HETATM   26  C   UNL     1      -7.765  10.873  68.241  1.00  0.00    -0.111 A  
HETATM   27  C   UNL     1      -8.032   9.733  67.485  1.00  0.00    -0.106 A  
HETATM   28  C   UNL     1      -7.965   8.466  68.075  1.00  0.00    -0.119 A  
HETATM   29  F   UNL     1      -8.352   9.876  66.189  1.00  0.00    -0.116 F  
HETATM   30  N   UNL     1      -8.190   7.233  67.536  1.00  0.00    -0.113 NA 
HETATM   31  C   UNL     1      -8.012   6.361  68.503  1.00  0.00    -0.106 A  
HETATM   32  N   UNL     1      -7.658   6.994  69.684  1.00  0.00    -0.102 NA 
HETATM   33  C   UNL     1      -8.199   4.902  68.296  1.00  0.00    -0.085 C  
HETATM   34  C   UNL     1      -7.341   9.505  70.201  1.00  0.00    -0.124 A  
HETATM   35  C   UNL     1      -7.621   8.360  69.422  1.00  0.00    -0.091 A  
BRANCH  32  36
HETATM   36  C   UNL     1      -7.437   6.407  71.008  1.00  0.00    -0.085 C  
HETATM   37  C   UNL     1      -5.986   6.061  71.360  1.00  0.00    -0.031 C  
HETATM   38  C   UNL     1      -8.336   5.190  71.230  1.00  0.00    -0.118 C  
ENDBRANCH  32  36
ENDBRANCH  23  25
ENDBRANCH  16  18
ENDBRANCH  13  16
ENDBRANCH   9  10
ENDBRANCH   6   9
ENDBRANCH   2   3
TORSDOF 7
ENDMDL
MODEL      218
REMARK 921   NORMALIZED FREE ENERGY PREDICTED BY IDOCK:   12.89 KCAL/MOL
REMARK 922        TOTAL FREE ENERGY PREDICTED BY IDOCK:   17.29 KCAL/MOL
REMARK 923 INTER-LIGAND FREE ENERGY PREDICTED BY IDOCK:   13.87 KCAL/MOL
REMARK 924 INTRA-LIGAND FREE ENERGY PREDICTED BY IDOCK:    3.42 KCAL/MOL
REMARK 927      BINDING AFFINITY PREDICTED BY RF-SCORE:    0.00 PKD
ROOT
HETATM    1  C   UNL     1     -12.306  16.227  74.296  1.00  0.00    -0.628 C  
HETATM    2  C   UNL     1     -11.215  15.215  73.966  1.00  0.00     1.583 C  
ENDROOT
BRANCH   2   3
HETATM    3  N   UNL     1     -11.430  14.484  72.706  1.00  0.00     0.504 NA 
HETATM    4  C   UNL     1     -12.675  14.952  72.052  1.00  0.00    -0.324 C  
HETATM    5  C   UNL     1     -12.547  16.313  71.321  1.00  0.00     0.410 C  
HETATM    6  N   UNL     1     -11.429  16.388  70.352  1.00  0.00    -0.241 NA 
HETATM    7  C   UNL     1     -10.304  14.595  71.756  1.00  0.00     2.592 C  
HETATM    8  C   UNL     1     -10.192  15.966  71.046  1.00  0.00     1.041 C  
BRANCH   6   9
HETATM    9  C   UNL     1     -11.656  15.541  69.163  1.00  0.00    -0.362 C  
BRANCH   9  10
HETATM   10  C   UNL     1     -10.394  14.950  68.602  1.00  0.00    -0.237 A  
HETATM   11  C   UNL     1      -9.380  14.494  69.438  1.00  0.00     0.183 A  
HETATM   12  C   UNL     1      -8.226  13.971  68.873  1.00  0.00     0.022 A  
HETATM   13  C   UNL     1      -8.094  13.915  67.484  1.00  0.00    -0.182 A  
HETATM   14  N   UNL     1      -9.078  14.329  66.659  1.00  0.00    -0.251 NA 
HETATM   15  C   UNL     1     -10.192  14.842  67.230  1.00  0.00    -0.241 A  
BRANCH  13  16
HETATM   16  N   UNL     1      -6.965  13.353  66.900  1.00  0.00    -0.303 NA 
HETATM   17  H   UNL     1      -6.167  13.972  66.752  1.00  0.00     0.000 HD 
BRANCH  16  18
HETATM   18  C   UNL     1      -6.816  12.035  66.499  1.00  0.00     0.320 A  
HETATM   19  N   UNL     1      -6.051  11.806  65.422  1.00  0.00     1.084 NA 
HETATM   20  C   UNL     1      -5.977  10.533  64.990  1.00  0.00    -0.101 A  
HETATM   21  C   UNL     1      -6.567   9.477  65.642  1.00  0.00    -0.072 A  
HETATM   22  F   UNL     1      -6.435   8.233  65.163  1.00  0.00    -0.050 F  
HETATM   23  C   UNL     1      -7.281   9.775  66.785  1.00  0.00    -0.090 A  
HETATM   24  N   UNL     1      -7.439  11.058  67.186  1.00  0.00    -0.110 NA 
BRANCH  23  25
HETATM   25  C   UNL     1      -7.879   8.759  67.682  1.00  0.00    -0.102 A  
HETATM   26  C   UNL     1      -7.392   8.586  68.991  1.00  0.00    -0.081 A  
HETATM   27  C   UNL     1      -7.962   7.663  69.866  1.00  0.00    -0.115 A  
HETATM   28  C   UNL     1      -9.045   6.879  69.455  1.00  0.00    -0.142 A  
HETATM   29  F   UNL     1      -7.452   7.545  71.102  1.00  0.00    -0.074 F  
HETATM   30  N   UNL     1      -9.744   5.923  70.132  1.00  0.00    -0.164 NA 
HETATM   31  C   UNL     1     -10.659   5.470  69.304  1.00  0.00    -0.255 A  
HETATM   32  N   UNL     1     -10.591   6.119  68.082  1.00  0.00    -0.234 NA 
HETATM   33  C   UNL     1     -11.602   4.388  69.685  1.00  0.00     6.572 C  
HETATM   34  C   UNL     1      -8.988   7.974  67.266  1.00  0.00    -0.148 A  
HETATM   35  C   UNL     1      -9.550   7.039  68.165  1.00  0.00    -0.129 A  
BRANCH  32  36
HETATM   36  C   UNL     1     -11.373   5.874  66.868  1.00  0.00     0.342 C  
HETATM   37  C   UNL     1     -11.016   4.608  66.080  1.00  0.00     0.264 C  
HETATM   38  C   UNL     1     -11.356   7.092  65.943  1.00  0.00     3.586 C  
ENDBRANCH  32  36
ENDBRANCH  23  25
ENDBRANCH  16  18
ENDBRANCH  13  16
ENDBRANCH   9  10
ENDBRANCH   6   9
ENDBRANCH   2   3
TORSDOF 7
ENDMDL
MODEL      219
REMARK 921   NORMALIZED FREE ENERGY PREDICTED BY IDOCK:   15.99 KCAL/MOL
REMARK 922        TOTAL FREE ENERGY PREDICTED BY IDOCK:   21.66 KCAL/MOL
REMARK 923 INTER-LIGAND FREE ENERGY PREDICTED BY IDOCK:    1.79 KCAL/MOL
REMARK 924 INTRA-LIGAND FREE ENERGY PREDICTED BY IDOCK:   19.87 KCAL/MOL
REMARK 927      BINDING AFFINITY PREDICTED BY RF-SCORE:    0.00 PKD
ROOT
HETATM    1  C   UNL     1     -12.495  11.690  64.503  1.00  0.00     0.245 C  
HETATM    2  C   UNL     1     -11.937  12.159  65.841  1.00  0.00    -0.177 C  
ENDROOT
BRANCH   2   3
HETATM    3  N   UNL     1     -10.570  11.691  66.124  1.00  0.00    -0.253 NA 
HETATM    4  C   UNL     1     -10.343  11.641  67.588  1.00  0.00    -0.189 C  
HETATM    5  C   UNL     1     -10.982  10.421  68.298  1.00  0.00    -0.270 C  
HETATM    6  N   UNL     1     -10.631   9.110  67.705  1.00  0.00    -0.260 NA 
HETATM    7  C   UNL     1     -10.260  10.373  65.533  1.00  0.00    -0.246 C  
HETATM    8  C   UNL     1     -10.917   9.172  66.254  1.00  0.00     1.001 C  
BRANCH   6   9
HETATM    9  C   UNL     1      -9.215   8.752  67.926  1.00  0.00    -0.139 C  
BRANCH   9  10
HETATM   10  C   UNL     1      -8.396   9.878  68.491  1.00  0.00    -0.108 A  
HETATM   11  C   UNL     1      -9.002  10.981  69.082  1.00  0.00    -0.000 A  
HETATM   12  C   UNL     1      -8.204  12.004  69.575  1.00  0.00     1.064 A  
HETATM   13  C   UNL     1      -6.815  11.917  69.466  1.00  0.00    -0.004 A  
HETATM   14  N   UNL     1      -6.210  10.843  68.919  1.00  0.00    -0.041 NA 
HETATM   15  C   UNL     1      -7.006   9.860  68.438  1.00  0.00    -0.068 A  
BRANCH  13  16
HETATM   16  N   UNL     1      -5.998  12.910  69.994  1.00  0.00    -0.164 NA 
HETATM   17  H   UNL     1      -5.244  12.606  70.612  1.00  0.00     0.000 HD 
BRANCH  16  18
HETATM   18  C   UNL     1      -6.106  14.272  69.764  1.00  0.00    -0.132 A  
HETATM   19  N   UNL     1      -5.189  15.065  70.339  1.00  0.00    -0.113 NA 
HETATM   20  C   UNL     1      -5.349  16.392  70.178  1.00  0.00    -0.182 A  
HETATM   21  C   UNL     1      -6.334  16.947  69.398  1.00  0.00    -0.231 A  
HETATM   22  F   UNL     1      -6.420  18.277  69.270  1.00  0.00    -0.232 F  
HETATM   23  C   UNL     1      -7.200  16.070  68.777  1.00  0.00    -0.157 A  
HETATM   24  N   UNL     1      -7.110  14.738  68.997  1.00  0.00    -0.118 NA 
BRANCH  23  25
HETATM   25  C   UNL     1      -8.243  16.477  67.806  1.00  0.00    -0.173 A  
HETATM   26  C   UNL     1      -8.665  17.817  67.732  1.00  0.00    -0.241 A  
HETATM   27  C   UNL     1      -9.618  18.232  66.803  1.00  0.00    -0.299 A  
HETATM   28  C   UNL     1     -10.179  17.312  65.911  1.00  0.00    -0.261 A  
HETATM   29  F   UNL     1      -9.980  19.525  66.781  1.00  0.00    -0.365 F  
HETATM   30  N   UNL     1     -11.118  17.492  64.938  1.00  0.00    -0.773 NA 
HETATM   31  C   UNL     1     -11.319  16.316  64.388  1.00  0.00    -0.129 A  
HETATM   32  N   UNL     1     -10.517  15.349  64.971  1.00  0.00    -0.408 NA 
HETATM   33  C   UNL     1     -12.306  16.113  63.295  1.00  0.00     3.723 C  
HETATM   34  C   UNL     1      -8.801  15.543  66.893  1.00  0.00    -0.284 A  
HETATM   35  C   UNL     1      -9.770  15.980  65.961  1.00  0.00    -0.344 A  
BRANCH  32  36
HETATM   36  C   UNL     1     -10.477  13.909  64.707  1.00  0.00    -0.429 C  
HETATM   37  C   UNL     1     -10.258  13.496  63.247  1.00  0.00     2.922 C  
HETATM   38  C   UNL     1     -11.715  13.208  65.270  1.00  0.00    -0.375 C  
ENDBRANCH  32  36
ENDBRANCH  23  25
ENDBRANCH  16  18
ENDBRANCH  13  16
ENDBRANCH   9  10
ENDBRANCH   6   9
ENDBRANCH   2   3
TORSDOF 7
ENDMDL
MODEL      220
REMARK 921   NORMALIZED FREE ENERGY PREDICTED BY IDOCK:   18.93 KCAL/MOL
REMARK 922        TOTAL FREE ENERGY PREDICTED BY IDOCK:   25.81 KCAL/MOL
REMARK 923 INTER-LIGAND FREE ENERGY PREDICTED BY IDOCK:   24.72 KCAL/MOL
REMARK 924 INTRA-LIGAND FREE ENERGY PREDICTED BY IDOCK:    1.09 KCAL/MOL
REMARK 927      BINDING AFFINITY PREDICTED BY RF-SCORE:    0.00 PKD
ROOT
HETATM    1  C   UNL     1      -7.922   8.965  67.545  1.00  0.00    -0.101 C  
HETATM    2  C   UNL     1      -9.000   7.890  67.625  1.00  0.00    -0.131 C  
ENDROOT
BRANCH   2   3
HETATM    3  N   UNL     1     -10.368   8.414  67.763  1.00  0.00    -0.230 NA 
HETATM    4  C   UNL     1     -11.260   7.368  68.319  1.00  0.00     0.343 C  
HETATM    5  C   UNL     1     -11.118   7.144  69.845  1.00  0.00    -0.235 C  
HETATM    6  N   UNL     1     -11.240   8.374  70.662  1.00  0.00    -0.258 NA 
HETATM    7  C   UNL     1     -10.456   9.629  68.598  1.00  0.00    -0.210 C  
HETATM    8  C   UNL     1     -10.302   9.381  70.118  1.00  0.00    -0.233 C  
BRANCH   6   9
HETATM    9  C   UNL     1     -12.615   8.913  70.665  1.00  0.00     0.257 C  
BRANCH   9  10
HETATM   10  C   UNL     1     -12.728  10.254  71.334  1.00  0.00    -0.547 A  
HETATM   11  C   UNL     1     -13.432  10.406  72.524  1.00  0.00     0.202 A  
HETATM   12  C   UNL     1     -13.523  11.667  73.096  1.00  0.00     3.468 A  
HETATM   13  C   UNL     1     -12.919  12.760  72.471  1.00  0.00     0.131 A  
HETATM   14  N   UNL     1     -12.212  12.626  71.331  1.00  0.00     0.069 NA 
HETATM   15  C   UNL     1     -12.141  11.390  70.787  1.00  0.00    -0.332 A  
BRANCH  13  16
HETATM   16  N   UNL     1     -12.961  14.023  73.052  1.00  0.00    -0.388 NA 
HETATM   17  H   UNL     1     -13.231  14.068  74.035  1.00  0.00     0.000 HD 
BRANCH  16  18
HETATM   18  C   UNL     1     -12.674  15.225  72.427  1.00  0.00    -0.363 A  
HETATM   19  N   UNL     1     -13.048  16.348  73.057  1.00  0.00    -0.199 NA 
HETATM   20  C   UNL     1     -12.839  17.508  72.406  1.00  0.00     5.913 A  
HETATM   21  C   UNL     1     -12.195  17.591  71.195  1.00  0.00     5.759 A  
HETATM   22  F   UNL     1     -12.007  18.783  70.615  1.00  0.00     6.046 F  
HETATM   23  C   UNL     1     -11.772  16.403  70.636  1.00  0.00    -0.006 A  
HETATM   24  N   UNL     1     -12.051  15.220  71.232  1.00  0.00    -0.315 NA 
BRANCH  23  25
HETATM   25  C   UNL     1     -10.958  16.306  69.402  1.00  0.00    -0.337 A  
HETATM   26  C   UNL     1     -11.494  16.698  68.161  1.00  0.00     0.042 A  
HETATM   27  C   UNL     1     -10.738  16.652  66.991  1.00  0.00    -0.174 A  
HETATM   28  C   UNL     1      -9.411  16.210  67.028  1.00  0.00    -0.218 A  
HETATM   29  F   UNL     1     -11.305  17.038  65.838  1.00  0.00     0.130 F  
HETATM   30  N   UNL     1      -8.501  16.078  66.020  1.00  0.00    -0.220 NA 
HETATM   31  C   UNL     1      -7.400  15.610  66.567  1.00  0.00     0.491 A  
HETATM   32  N   UNL     1      -7.557  15.438  67.933  1.00  0.00    -0.127 NA 
HETATM   33  C   UNL     1      -6.186  15.311  65.766  1.00  0.00     6.943 C  
HETATM   34  C   UNL     1      -9.607  15.871  69.444  1.00  0.00    -0.265 A  
HETATM   35  C   UNL     1      -8.856  15.825  68.248  1.00  0.00    -0.180 A  
BRANCH  32  36
HETATM   36  C   UNL     1      -6.610  14.879  68.901  1.00  0.00    -0.090 C  
HETATM   37  C   UNL     1      -5.168  14.701  68.410  1.00  0.00    -0.105 C  
HETATM   38  C   UNL     1      -7.131  13.566  69.488  1.00  0.00     0.193 C  
ENDBRANCH  32  36
ENDBRANCH  23  25
ENDBRANCH  16  18
ENDBRANCH  13  16
ENDBRANCH   9  10
ENDBRANCH   6   9
ENDBRANCH   2   3
TORSDOF 7
ENDMDL
MODEL      221
REMARK 921   NORMALIZED FREE ENERGY PREDICTED BY IDOCK:   20.15 KCAL/MOL
REMARK 922        TOTAL FREE ENERGY PREDICTED BY IDOCK:   27.52 KCAL/MOL
REMARK 923 INTER-LIGAND FREE ENERGY PREDICTED BY IDOCK:   25.22 KCAL/MOL
REMARK 924 INTRA-LIGAND FREE ENERGY PREDICTED BY IDOCK:    2.30 KCAL/MOL
REMARK 927      BINDING AFFINITY PREDICTED BY RF-SCORE:    0.00 PKD
ROOT
HETATM    1  C   UNL     1     -12.282   6.839  72.758  1.00  0.00     0.371 C  
HETATM    2  C   UNL     1     -13.708   7.085  72.279  1.00  0.00     0.215 C  
ENDROOT
BRANCH   2   3
HETATM    3  N   UNL     1     -13.818   7.395  70.844  1.00  0.00     0.004 NA 
HETATM    4  C   UNL     1     -13.173   8.697  70.553  1.00  0.00     0.895 C  
HETATM    5  C   UNL     1     -11.625   8.651  70.494  1.00  0.00    -0.139 C  
HETATM    6  N   UNL     1     -11.074   7.620  69.584  1.00  0.00    -0.131 NA 
HETATM    7  C   UNL     1     -13.243   6.355  69.967  1.00  0.00     3.677 C  
HETATM    8  C   UNL     1     -11.696   6.322  69.932  1.00  0.00    -0.138 C  
BRANCH   6   9
HETATM    9  C   UNL     1     -11.320   7.934  68.162  1.00  0.00     0.842 C  
BRANCH   9  10
HETATM   10  C   UNL     1     -10.516   9.100  67.660  1.00  0.00    -0.323 A  
HETATM   11  C   UNL     1     -10.618  10.353  68.255  1.00  0.00    -0.245 A  
HETATM   12  C   UNL     1      -9.868  11.403  67.745  1.00  0.00    -0.186 A  
HETATM   13  C   UNL     1      -9.031  11.192  66.647  1.00  0.00    -0.170 A  
HETATM   14  N   UNL     1      -8.901   9.978  66.075  1.00  0.00    -0.142 NA 
HETATM   15  C   UNL     1      -9.646   8.970  66.583  1.00  0.00    -0.213 A  
BRANCH  13  16
HETATM   16  N   UNL     1      -8.238  12.221  66.151  1.00  0.00    -0.243 NA 
HETATM   17  H   UNL     1      -7.530  11.964  65.463  1.00  0.00     0.000 HD 
BRANCH  16  18
HETATM   18  C   UNL     1      -8.314  13.559  66.501  1.00  0.00     0.456 A  
HETATM   19  N   UNL     1      -7.394  14.382  65.978  1.00  0.00     2.951 NA 
HETATM   20  C   UNL     1      -7.424  15.665  66.386  1.00  0.00     0.646 A  
HETATM   21  C   UNL     1      -8.388  16.169  67.225  1.00  0.00    -0.180 A  
HETATM   22  F   UNL     1      -8.365  17.462  67.574  1.00  0.00    -0.198 F  
HETATM   23  C   UNL     1      -9.348  15.283  67.669  1.00  0.00    -0.199 A  
HETATM   24  N   UNL     1      -9.284  13.972  67.340  1.00  0.00    -0.207 NA 
BRANCH  23  25
HETATM   25  C   UNL     1     -10.529  15.670  68.476  1.00  0.00    -0.236 A  
HETATM   26  C   UNL     1     -11.548  16.462  67.916  1.00  0.00     0.132 A  
HETATM   27  C   UNL     1     -12.686  16.809  68.643  1.00  0.00     3.093 A  
HETATM   28  C   UNL     1     -12.840  16.370  69.962  1.00  0.00     2.038 A  
HETATM   29  F   UNL     1     -13.624  17.567  68.053  1.00  0.00     4.474 F  
HETATM   30  N   UNL     1     -13.852  16.592  70.849  1.00  0.00     3.102 NA 
HETATM   31  C   UNL     1     -13.518  15.976  71.962  1.00  0.00    -0.005 A  
HETATM   32  N   UNL     1     -12.298  15.333  71.829  1.00  0.00    -0.328 NA 
HETATM   33  C   UNL     1     -14.375  16.017  73.175  1.00  0.00     0.598 C  
HETATM   34  C   UNL     1     -10.689  15.211  69.811  1.00  0.00    -0.288 A  
HETATM   35  C   UNL     1     -11.846  15.577  70.535  1.00  0.00    -0.356 A  
BRANCH  32  36
HETATM   36  C   UNL     1     -11.535  14.596  72.839  1.00  0.00     0.523 C  
HETATM   37  C   UNL     1     -11.835  14.948  74.301  1.00  0.00     0.059 C  
HETATM   38  C   UNL     1     -10.032  14.691  72.573  1.00  0.00     5.071 C  
ENDBRANCH  32  36
ENDBRANCH  23  25
ENDBRANCH  16  18
ENDBRANCH  13  16
ENDBRANCH   9  10
ENDBRANCH   6   9
ENDBRANCH   2   3
TORSDOF 7
ENDMDL
MODEL      222
REMARK 921   NORMALIZED FREE ENERGY PREDICTED BY IDOCK:   21.65 KCAL/MOL
REMARK 922        TOTAL FREE ENERGY PREDICTED BY IDOCK:   29.64 KCAL/MOL
REMARK 923 INTER-LIGAND FREE ENERGY PREDICTED BY IDOCK:   20.40 KCAL/MOL
REMARK 924 INTRA-LIGAND FREE ENERGY PREDICTED BY IDOCK:    9.24 KCAL/MOL
REMARK 927      BINDING AFFINITY PREDICTED BY RF-SCORE:    0.00 PKD
ROOT
HETATM    1  C   UNL     1     -10.957   8.785  62.415  1.00  0.00     8.556 C  
HETATM    2  C   UNL     1     -10.153   7.491  62.452  1.00  0.00     5.049 C  
ENDROOT
BRANCH   2   3
HETATM    3  N   UNL     1      -9.207   7.399  63.576  1.00  0.00     1.768 NA 
HETATM    4  C   UNL     1      -9.058   5.987  64.002  1.00  0.00     0.858 C  
HETATM    5  C   UNL     1      -8.155   5.128  63.082  1.00  0.00    -0.101 C  
HETATM    6  N   UNL     1      -6.814   5.703  62.823  1.00  0.00    -0.032 NA 
HETATM    7  C   UNL     1      -7.875   7.965  63.278  1.00  0.00    -0.141 C  
HETATM    8  C   UNL     1      -6.996   7.094  62.350  1.00  0.00    -0.068 C  
BRANCH   6   9
HETATM    9  C   UNL     1      -5.953   5.686  64.023  1.00  0.00    -0.025 C  
BRANCH   9  10
HETATM   10  C   UNL     1      -6.725   5.697  65.312  1.00  0.00    -0.041 A  
HETATM   11  C   UNL     1      -8.108   5.841  65.321  1.00  0.00    -0.130 A  
HETATM   12  C   UNL     1      -8.775   5.862  66.537  1.00  0.00    -0.126 A  
HETATM   13  C   UNL     1      -8.056   5.747  67.728  1.00  0.00    -0.102 A  
HETATM   14  N   UNL     1      -6.717   5.581  67.737  1.00  0.00    -0.053 NA 
HETATM   15  C   UNL     1      -6.085   5.570  66.541  1.00  0.00    -0.030 A  
BRANCH  13  16
HETATM   16  N   UNL     1      -8.711   5.721  68.954  1.00  0.00    -0.111 NA 
HETATM   17  H   UNL     1      -9.061   4.815  69.269  1.00  0.00     0.000 HD 
BRANCH  16  18
HETATM   18  C   UNL     1      -8.935   6.803  69.789  1.00  0.00    -0.144 A  
HETATM   19  N   UNL     1      -8.871   6.581  71.110  1.00  0.00    -0.138 NA 
HETATM   20  C   UNL     1      -9.170   7.618  71.915  1.00  0.00    -0.134 A  
HETATM   21  C   UNL     1      -9.445   8.881  71.451  1.00  0.00    -0.274 A  
HETATM   22  F   UNL     1      -9.716   9.869  72.314  1.00  0.00     1.141 F  
HETATM   23  C   UNL     1      -9.423   9.057  70.083  1.00  0.00    -0.195 A  
HETATM   24  N   UNL     1      -9.211   8.008  69.254  1.00  0.00    -0.152 NA 
BRANCH  23  25
HETATM   25  C   UNL     1      -9.573  10.368  69.409  1.00  0.00    -0.213 A  
HETATM   26  C   UNL     1      -9.066  11.539  70.003  1.00  0.00     2.290 A  
HETATM   27  C   UNL     1      -9.162  12.778  69.374  1.00  0.00     1.272 A  
HETATM   28  C   UNL     1      -9.772  12.885  68.119  1.00  0.00    -0.227 A  
HETATM   29  F   UNL     1      -8.658  13.858  69.991  1.00  0.00     0.930 F  
HETATM   30  N   UNL     1      -9.980  13.981  67.334  1.00  0.00    -0.241 NA 
HETATM   31  C   UNL     1     -10.608  13.560  66.259  1.00  0.00    -0.288 A  
HETATM   32  N   UNL     1     -10.814  12.191  66.307  1.00  0.00    -0.271 NA 
HETATM   33  C   UNL     1     -11.029  14.486  65.177  1.00  0.00    -0.387 C  
HETATM   34  C   UNL     1     -10.182  10.472  68.130  1.00  0.00    -0.187 A  
HETATM   35  C   UNL     1     -10.276  11.737  67.508  1.00  0.00    -0.195 A  
BRANCH  32  36
HETATM   36  C   UNL     1     -11.530  11.337  65.356  1.00  0.00     0.215 C  
HETATM   37  C   UNL     1     -10.963  11.289  63.932  1.00  0.00    -0.382 C  
HETATM   38  C   UNL     1     -13.020  11.681  65.317  1.00  0.00     2.710 C  
ENDBRANCH  32  36
ENDBRANCH  23  25
ENDBRANCH  16  18
ENDBRANCH  13  16
ENDBRANCH   9  10
ENDBRANCH   6   9
ENDBRANCH   2   3
TORSDOF 7
ENDMDL
MODEL      223
REMARK 921   NORMALIZED FREE ENERGY PREDICTED BY IDOCK:   29.27 KCAL/MOL
REMARK 922        TOTAL FREE ENERGY PREDICTED BY IDOCK:   40.38 KCAL/MOL
REMARK 923 INTER-LIGAND FREE ENERGY PREDICTED BY IDOCK:   40.25 KCAL/MOL
REMARK 924 INTRA-LIGAND FREE ENERGY PREDICTED BY IDOCK:    0.13 KCAL/MOL
REMARK 927      BINDING AFFINITY PREDICTED BY RF-SCORE:    0.00 PKD
ROOT
HETATM    1  C   UNL     1     -12.420   2.557  72.600  1.00  0.00     1.916 C  
HETATM    2  C   UNL     1     -11.262   3.485  72.948  1.00  0.00     0.177 C  
ENDROOT
BRANCH   2   3
HETATM    3  N   UNL     1     -11.674   4.837  73.360  1.00  0.00    -0.184 NA 
HETATM    4  C   UNL     1     -10.729   5.372  74.369  1.00  0.00     0.042 C  
HETATM    5  C   UNL     1      -9.387   5.883  73.788  1.00  0.00    -0.131 C  
HETATM    6  N   UNL     1      -9.527   6.862  72.685  1.00  0.00    -0.142 NA 
HETATM    7  C   UNL     1     -11.786   5.791  72.238  1.00  0.00    -0.153 C  
HETATM    8  C   UNL     1     -10.433   6.280  71.669  1.00  0.00    -0.217 C  
BRANCH   6   9
HETATM    9  C   UNL     1     -10.054   8.161  73.147  1.00  0.00    -0.132 C  
BRANCH   9  10
HETATM   10  C   UNL     1      -9.085   9.296  72.971  1.00  0.00     2.127 A  
HETATM   11  C   UNL     1      -8.217   9.664  73.993  1.00  0.00     3.547 A  
HETATM   12  C   UNL     1      -7.351  10.730  73.790  1.00  0.00     7.482 A  
HETATM   13  C   UNL     1      -7.366  11.417  72.574  1.00  0.00    10.504 A  
HETATM   14  N   UNL     1      -8.184  11.056  71.564  1.00  0.00     6.207 NA 
HETATM   15  C   UNL     1      -9.024  10.020  71.785  1.00  0.00     3.404 A  
BRANCH  13  16
HETATM   16  N   UNL     1      -6.475  12.457  72.335  1.00  0.00     2.971 NA 
HETATM   17  H   UNL     1      -5.673  12.529  72.961  1.00  0.00     0.000 HD 
BRANCH  16  18
HETATM   18  C   UNL     1      -6.571  13.406  71.330  1.00  0.00     1.726 A  
HETATM   19  N   UNL     1      -6.023  14.607  71.568  1.00  0.00     0.043 NA 
HETATM   20  C   UNL     1      -6.190  15.549  70.621  1.00  0.00     0.200 A  
HETATM   21  C   UNL     1      -6.807  15.309  69.416  1.00  0.00    -0.172 A  
HETATM   22  F   UNL     1      -6.920  16.292  68.513  1.00  0.00    -0.127 F  
HETATM   23  C   UNL     1      -7.283  14.032  69.207  1.00  0.00    -0.016 A  
HETATM   24  N   UNL     1      -7.203  13.096  70.181  1.00  0.00     0.964 NA 
BRANCH  23  25
HETATM   25  C   UNL     1      -7.863  13.558  67.929  1.00  0.00    -0.159 A  
HETATM   26  C   UNL     1      -8.444  14.469  67.027  1.00  0.00    -0.222 A  
HETATM   27  C   UNL     1      -8.963  14.054  65.802  1.00  0.00     0.697 A  
HETATM   28  C   UNL     1      -8.916  12.704  65.439  1.00  0.00     0.778 A  
HETATM   29  F   UNL     1      -9.504  14.971  64.984  1.00  0.00    -0.192 F  
HETATM   30  N   UNL     1      -9.364  12.082  64.310  1.00  0.00     0.168 NA 
HETATM   31  C   UNL     1      -9.098  10.803  64.455  1.00  0.00    -0.198 A  
HETATM   32  N   UNL     1      -8.465  10.559  65.664  1.00  0.00    -0.172 NA 
HETATM   33  C   UNL     1      -9.468   9.797  63.427  1.00  0.00     0.007 C  
HETATM   34  C   UNL     1      -7.802  12.188  67.556  1.00  0.00    -0.162 A  
HETATM   35  C   UNL     1      -8.339  11.784  66.313  1.00  0.00     0.024 A  
BRANCH  32  36
HETATM   36  C   UNL     1      -8.062   9.277  66.246  1.00  0.00    -0.107 C  
HETATM   37  C   UNL     1      -7.756   8.151  65.252  1.00  0.00    -0.101 C  
HETATM   38  C   UNL     1      -9.076   8.799  67.287  1.00  0.00    -0.151 C  
ENDBRANCH  32  36
ENDBRANCH  23  25
ENDBRANCH  16  18
ENDBRANCH  13  16
ENDBRANCH   9  10
ENDBRANCH   6   9
ENDBRANCH   2   3
TORSDOF 7
ENDMDL
MODEL      224
REMARK 921   NORMALIZED FREE ENERGY PREDICTED BY IDOCK:   32.62 KCAL/MOL
REMARK 922        TOTAL FREE ENERGY PREDICTED BY IDOCK:   45.09 KCAL/MOL
REMARK 923 INTER-LIGAND FREE ENERGY PREDICTED BY IDOCK:   40.78 KCAL/MOL
REMARK 924 INTRA-LIGAND FREE ENERGY PREDICTED BY IDOCK:    4.31 KCAL/MOL
REMARK 927      BINDING AFFINITY PREDICTED BY RF-SCORE:    0.00 PKD
ROOT
HETATM    1  C   UNL     1      -5.245  18.924  67.559  1.00  0.00    -0.161 C  
HETATM    2  C   UNL     1      -6.538  19.048  66.760  1.00  0.00    -0.189 C  
ENDROOT
BRANCH   2   3
HETATM    3  N   UNL     1      -7.757  19.086  67.584  1.00  0.00    -0.237 NA 
HETATM    4  C   UNL     1      -7.484  18.512  68.923  1.00  0.00    -0.250 C  
HETATM    5  C   UNL     1      -6.720  19.456  69.886  1.00  0.00    -0.110 C  
HETATM    6  N   UNL     1      -7.329  20.797  70.045  1.00  0.00     1.025 NA 
HETATM    7  C   UNL     1      -8.327  20.440  67.737  1.00  0.00    -0.164 C  
HETATM    8  C   UNL     1      -7.541  21.367  68.696  1.00  0.00     2.300 C  
BRANCH   6   9
HETATM    9  C   UNL     1      -8.608  20.751  70.782  1.00  0.00     2.769 C  
BRANCH   9  10
HETATM   10  C   UNL     1      -9.016  19.362  71.183  1.00  0.00     3.417 A  
HETATM   11  C   UNL     1      -9.225  19.031  72.517  1.00  0.00     7.205 A  
HETATM   12  C   UNL     1      -9.585  17.731  72.841  1.00  0.00    11.088 A  
HETATM   13  C   UNL     1      -9.726  16.776  71.831  1.00  0.00     7.201 A  
HETATM   14  N   UNL     1      -9.551  17.085  70.530  1.00  0.00     2.257 NA 
HETATM   15  C   UNL     1      -9.194  18.357  70.237  1.00  0.00     2.456 A  
BRANCH  13  16
HETATM   16  N   UNL     1     -10.129  15.480  72.131  1.00  0.00     1.939 NA 
HETATM   17  H   UNL     1      -9.608  14.992  72.860  1.00  0.00     0.000 HD 
BRANCH  16  18
HETATM   18  C   UNL     1     -11.170  14.785  71.537  1.00  0.00     0.115 A  
HETATM   19  N   UNL     1     -12.390  14.929  72.076  1.00  0.00    -0.331 NA 
HETATM   20  C   UNL     1     -13.380  14.188  71.545  1.00  0.00    -0.351 A  
HETATM   21  C   UNL     1     -13.214  13.380  70.446  1.00  0.00     0.477 A  
HETATM   22  F   UNL     1     -14.252  12.685  69.961  1.00  0.00     3.240 F  
HETATM   23  C   UNL     1     -11.950  13.333  69.896  1.00  0.00    -0.330 A  
HETATM   24  N   UNL     1     -10.922  14.002  70.469  1.00  0.00     0.428 NA 
BRANCH  23  25
HETATM   25  C   UNL     1     -11.612  12.617  68.644  1.00  0.00    -0.356 A  
HETATM   26  C   UNL     1     -12.112  13.066  67.407  1.00  0.00    -0.290 A  
HETATM   27  C   UNL     1     -11.779  12.431  66.212  1.00  0.00    -0.395 A  
HETATM   28  C   UNL     1     -10.929  11.320  66.217  1.00  0.00    -0.205 A  
HETATM   29  F   UNL     1     -12.287  12.907  65.064  1.00  0.00    -0.412 F  
HETATM   30  N   UNL     1     -10.483  10.551  65.183  1.00  0.00    -0.229 NA 
HETATM   31  C   UNL     1      -9.719   9.620  65.709  1.00  0.00    -0.280 A  
HETATM   32  N   UNL     1      -9.637   9.762  67.085  1.00  0.00    -0.164 NA 
HETATM   33  C   UNL     1      -9.069   8.570  64.883  1.00  0.00     0.181 C  
HETATM   34  C   UNL     1     -10.738  11.497  68.651  1.00  0.00    -0.242 A  
HETATM   35  C   UNL     1     -10.416  10.862  67.430  1.00  0.00    -0.224 A  
BRANCH  32  36
HETATM   36  C   UNL     1      -8.955   8.904  68.057  1.00  0.00    -0.140 C  
HETATM   37  C   UNL     1      -9.834   8.298  69.157  1.00  0.00    -0.179 C  
HETATM   38  C   UNL     1      -7.754   9.618  68.678  1.00  0.00    -0.080 C  
ENDBRANCH  32  36
ENDBRANCH  23  25
ENDBRANCH  16  18
ENDBRANCH  13  16
ENDBRANCH   9  10
ENDBRANCH   6   9
ENDBRANCH   2   3
TORSDOF 7
ENDMDL
MODEL      225
REMARK 921   NORMALIZED FREE ENERGY PREDICTED BY IDOCK:   33.08 KCAL/MOL
REMARK 922        TOTAL FREE ENERGY PREDICTED BY IDOCK:   45.74 KCAL/MOL
REMARK 923 INTER-LIGAND FREE ENERGY PREDICTED BY IDOCK:   41.19 KCAL/MOL
REMARK 924 INTRA-LIGAND FREE ENERGY PREDICTED BY IDOCK:    4.54 KCAL/MOL
REMARK 927      BINDING AFFINITY PREDICTED BY RF-SCORE:    0.00 PKD
ROOT
HETATM    1  C   UNL     1      -5.245  18.924  67.559  1.00  0.00    -0.161 C  
HETATM    2  C   UNL     1      -6.538  19.048  66.760  1.00  0.00    -0.189 C  
ENDROOT
BRANCH   2   3
HETATM    3  N   UNL     1      -7.757  19.086  67.584  1.00  0.00    -0.237 NA 
HETATM    4  C   UNL     1      -7.484  18.512  68.923  1.00  0.00    -0.250 C  
HETATM    5  C   UNL     1      -6.720  19.456  69.886  1.00  0.00    -0.110 C  
HETATM    6  N   UNL     1      -7.329  20.797  70.045  1.00  0.00     1.025 NA 
HETATM    7  C   UNL     1      -8.327  20.440  67.737  1.00  0.00    -0.164 C  
HETATM    8  C   UNL     1      -7.541  21.367  68.696  1.00  0.00     2.300 C  
BRANCH   6   9
HETATM    9  C   UNL     1      -8.608  20.751  70.782  1.00  0.00     2.769 C  
BRANCH   9  10
HETATM   10  C   UNL     1      -9.016  19.362  71.183  1.00  0.00     3.417 A  
HETATM   11  C   UNL     1      -9.225  19.031  72.517  1.00  0.00     7.205 A  
HETATM   12  C   UNL     1      -9.585  17.731  72.841  1.00  0.00    11.088 A  
HETATM   13  C   UNL     1      -9.726  16.776  71.831  1.00  0.00     7.201 A  
HETATM   14  N   UNL     1      -9.551  17.085  70.530  1.00  0.00     2.257 NA 
HETATM   15  C   UNL     1      -9.194  18.357  70.237  1.00  0.00     2.456 A  
BRANCH  13  16
HETATM   16  N   UNL     1     -10.129  15.480  72.131  1.00  0.00     1.939 NA 
HETATM   17  H   UNL     1      -9.608  14.992  72.860  1.00  0.00     0.000 HD 
BRANCH  16  18
HETATM   18  C   UNL     1     -11.170  14.785  71.537  1.00  0.00     0.115 A  
HETATM   19  N   UNL     1     -12.390  14.929  72.076  1.00  0.00    -0.331 NA 
HETATM   20  C   UNL     1     -13.380  14.188  71.545  1.00  0.00    -0.351 A  
HETATM   21  C   UNL     1     -13.214  13.380  70.446  1.00  0.00     0.477 A  
HETATM   22  F   UNL     1     -14.252  12.685  69.961  1.00  0.00     3.240 F  
HETATM   23  C   UNL     1     -11.950  13.333  69.896  1.00  0.00    -0.330 A  
HETATM   24  N   UNL     1     -10.922  14.002  70.469  1.00  0.00     0.428 NA 
BRANCH  23  25
HETATM   25  C   UNL     1     -11.612  12.617  68.644  1.00  0.00    -0.356 A  
HETATM   26  C   UNL     1     -11.294  11.246  68.669  1.00  0.00    -0.336 A  
HETATM   27  C   UNL     1     -11.009  10.541  67.502  1.00  0.00    -0.303 A  
HETATM   28  C   UNL     1     -11.035  11.191  66.263  1.00  0.00    -0.163 A  
HETATM   29  F   UNL     1     -10.713   9.235  67.591  1.00  0.00    -0.299 F  
HETATM   30  N   UNL     1     -10.785  10.707  65.012  1.00  0.00    -0.125 NA 
HETATM   31  C   UNL     1     -10.926  11.718  64.183  1.00  0.00    -0.374 A  
HETATM   32  N   UNL     1     -11.279  12.873  64.862  1.00  0.00    -0.292 NA 
HETATM   33  C   UNL     1     -10.705  11.577  62.721  1.00  0.00     0.246 C  
HETATM   34  C   UNL     1     -11.653  13.276  67.386  1.00  0.00    -0.396 A  
HETATM   35  C   UNL     1     -11.355  12.547  66.213  1.00  0.00    -0.338 A  
BRANCH  32  36
HETATM   36  C   UNL     1     -11.463  14.227  64.334  1.00  0.00    -0.310 C  
HETATM   37  C   UNL     1     -11.154  15.377  65.300  1.00  0.00    -0.367 C  
HETATM   38  C   UNL     1     -12.861  14.403  63.739  1.00  0.00     0.812 C  
ENDBRANCH  32  36
ENDBRANCH  23  25
ENDBRANCH  16  18
ENDBRANCH  13  16
ENDBRANCH   9  10
ENDBRANCH   6   9
ENDBRANCH   2   3
TORSDOF 7
ENDMDL
MODEL      226
REMARK 921   NORMALIZED FREE ENERGY PREDICTED BY IDOCK:   33.90 KCAL/MOL
REMARK 922        TOTAL FREE ENERGY PREDICTED BY IDOCK:   46.90 KCAL/MOL
REMARK 923 INTER-LIGAND FREE ENERGY PREDICTED BY IDOCK:   42.30 KCAL/MOL
REMARK 924 INTRA-LIGAND FREE ENERGY PREDICTED BY IDOCK:    4.61 KCAL/MOL
REMARK 927      BINDING AFFINITY PREDICTED BY RF-SCORE:    0.00 PKD
ROOT
HETATM    1  C   UNL     1     -12.673  14.559  72.907  1.00  0.00    -0.473 C  
HETATM    2  C   UNL     1     -11.315  14.475  73.594  1.00  0.00     1.235 C  
ENDROOT
BRANCH   2   3
HETATM    3  N   UNL     1     -10.175  14.374  72.668  1.00  0.00     4.391 NA 
HETATM    4  C   UNL     1     -10.579  14.818  71.313  1.00  0.00     0.915 C  
HETATM    5  C   UNL     1     -10.674  16.355  71.139  1.00  0.00     0.768 C  
HETATM    6  N   UNL     1      -9.460  17.097  71.554  1.00  0.00     6.775 NA 
HETATM    7  C   UNL     1      -8.989  15.140  73.103  1.00  0.00     9.625 C  
HETATM    8  C   UNL     1      -9.111  16.673  72.928  1.00  0.00    14.942 C  
BRANCH   6   9
HETATM    9  C   UNL     1      -8.319  16.862  70.647  1.00  0.00     4.321 C  
BRANCH   9  10
HETATM   10  C   UNL     1      -8.308  15.485  70.045  1.00  0.00     0.404 A  
HETATM   11  C   UNL     1      -7.208  14.647  70.189  1.00  0.00     0.178 A  
HETATM   12  C   UNL     1      -7.237  13.390  69.601  1.00  0.00     0.413 A  
HETATM   13  C   UNL     1      -8.359  12.989  68.873  1.00  0.00     0.266 A  
HETATM   14  N   UNL     1      -9.444  13.779  68.744  1.00  0.00    -0.083 NA 
HETATM   15  C   UNL     1      -9.392  15.003  69.319  1.00  0.00    -0.162 A  
BRANCH  13  16
HETATM   16  N   UNL     1      -8.425  11.717  68.315  1.00  0.00    -0.155 NA 
HETATM   17  H   UNL     1      -9.129  11.568  67.591  1.00  0.00     0.000 HD 
BRANCH  16  18
HETATM   18  C   UNL     1      -7.630  10.632  68.645  1.00  0.00    -0.103 A  
HETATM   19  N   UNL     1      -6.334  10.875  68.893  1.00  0.00    -0.044 NA 
HETATM   20  C   UNL     1      -5.551   9.807  69.133  1.00  0.00    -0.035 A  
HETATM   21  C   UNL     1      -6.029   8.522  69.219  1.00  0.00    -0.041 A  
HETATM   22  F   UNL     1      -5.192   7.510  69.480  1.00  0.00    -0.015 F  
HETATM   23  C   UNL     1      -7.385   8.351  69.026  1.00  0.00    -0.088 A  
HETATM   24  N   UNL     1      -8.174   9.401  68.697  1.00  0.00    -0.111 NA 
BRANCH  23  25
HETATM   25  C   UNL     1      -8.095   7.063  69.201  1.00  0.00    -0.121 A  
HETATM   26  C   UNL     1      -8.466   6.294  68.082  1.00  0.00    -0.114 A  
HETATM   27  C   UNL     1      -9.102   5.062  68.221  1.00  0.00    -0.115 A  
HETATM   28  C   UNL     1      -9.387   4.557  69.494  1.00  0.00    -0.152 A  
HETATM   29  F   UNL     1      -9.431   4.376  67.115  1.00  0.00    -0.135 F  
HETATM   30  N   UNL     1     -10.000   3.394  69.860  1.00  0.00     0.177 NA 
HETATM   31  C   UNL     1     -10.042   3.389  71.174  1.00  0.00     0.167 A  
HETATM   32  N   UNL     1      -9.454   4.530  71.695  1.00  0.00    -0.143 NA 
HETATM   33  C   UNL     1     -10.669   2.282  71.940  1.00  0.00     0.545 C  
HETATM   34  C   UNL     1      -8.371   6.546  70.495  1.00  0.00    -0.133 A  
HETATM   35  C   UNL     1      -9.022   5.297  70.617  1.00  0.00    -0.134 A  
BRANCH  32  36
HETATM   36  C   UNL     1      -9.351   4.952  73.094  1.00  0.00    -0.121 C  
HETATM   37  C   UNL     1     -10.188   6.173  73.494  1.00  0.00    -0.237 C  
HETATM   38  C   UNL     1      -7.893   5.157  73.505  1.00  0.00    -0.106 C  
ENDBRANCH  32  36
ENDBRANCH  23  25
ENDBRANCH  16  18
ENDBRANCH  13  16
ENDBRANCH   9  10
ENDBRANCH   6   9
ENDBRANCH   2   3
TORSDOF 7
ENDMDL
MODEL      227
REMARK 921   NORMALIZED FREE ENERGY PREDICTED BY IDOCK:   34.62 KCAL/MOL
REMARK 922        TOTAL FREE ENERGY PREDICTED BY IDOCK:   47.91 KCAL/MOL
REMARK 923 INTER-LIGAND FREE ENERGY PREDICTED BY IDOCK:   43.30 KCAL/MOL
REMARK 924 INTRA-LIGAND FREE ENERGY PREDICTED BY IDOCK:    4.61 KCAL/MOL
REMARK 927      BINDING AFFINITY PREDICTED BY RF-SCORE:    0.00 PKD
ROOT
HETATM    1  C   UNL     1     -12.673  14.559  72.907  1.00  0.00    -0.473 C  
HETATM    2  C   UNL     1     -11.315  14.475  73.594  1.00  0.00     1.235 C  
ENDROOT
BRANCH   2   3
HETATM    3  N   UNL     1     -10.175  14.374  72.668  1.00  0.00     4.391 NA 
HETATM    4  C   UNL     1     -10.579  14.818  71.313  1.00  0.00     0.915 C  
HETATM    5  C   UNL     1     -10.674  16.355  71.139  1.00  0.00     0.768 C  
HETATM    6  N   UNL     1      -9.460  17.097  71.554  1.00  0.00     6.775 NA 
HETATM    7  C   UNL     1      -8.989  15.140  73.103  1.00  0.00     9.625 C  
HETATM    8  C   UNL     1      -9.111  16.673  72.928  1.00  0.00    14.942 C  
BRANCH   6   9
HETATM    9  C   UNL     1      -8.319  16.862  70.647  1.00  0.00     4.321 C  
BRANCH   9  10
HETATM   10  C   UNL     1      -8.308  15.485  70.045  1.00  0.00     0.404 A  
HETATM   11  C   UNL     1      -7.208  14.647  70.189  1.00  0.00     0.178 A  
HETATM   12  C   UNL     1      -7.237  13.390  69.601  1.00  0.00     0.413 A  
HETATM   13  C   UNL     1      -8.359  12.989  68.873  1.00  0.00     0.266 A  
HETATM   14  N   UNL     1      -9.444  13.779  68.744  1.00  0.00    -0.083 NA 
HETATM   15  C   UNL     1      -9.392  15.003  69.319  1.00  0.00    -0.162 A  
BRANCH  13  16
HETATM   16  N   UNL     1      -8.425  11.717  68.315  1.00  0.00    -0.155 NA 
HETATM   17  H   UNL     1      -9.129  11.568  67.591  1.00  0.00     0.000 HD 
BRANCH  16  18
HETATM   18  C   UNL     1      -7.630  10.632  68.645  1.00  0.00    -0.103 A  
HETATM   19  N   UNL     1      -6.334  10.875  68.893  1.00  0.00    -0.044 NA 
HETATM   20  C   UNL     1      -5.551   9.807  69.133  1.00  0.00    -0.035 A  
HETATM   21  C   UNL     1      -6.029   8.522  69.219  1.00  0.00    -0.041 A  
HETATM   22  F   UNL     1      -5.192   7.510  69.480  1.00  0.00    -0.015 F  
HETATM   23  C   UNL     1      -7.385   8.351  69.026  1.00  0.00    -0.088 A  
HETATM   24  N   UNL     1      -8.174   9.401  68.697  1.00  0.00    -0.111 NA 
BRANCH  23  25
HETATM   25  C   UNL     1      -8.095   7.063  69.201  1.00  0.00    -0.121 A  
HETATM   26  C   UNL     1      -8.879   6.830  70.345  1.00  0.00    -0.152 A  
HETATM   27  C   UNL     1      -9.586   5.641  70.516  1.00  0.00    -0.174 A  
HETATM   28  C   UNL     1      -9.531   4.642  69.538  1.00  0.00    -0.166 A  
HETATM   29  F   UNL     1     -10.317   5.477  71.630  1.00  0.00    -0.234 F  
HETATM   30  N   UNL     1     -10.127   3.416  69.501  1.00  0.00     0.494 NA 
HETATM   31  C   UNL     1      -9.751   2.849  68.376  1.00  0.00     0.119 A  
HETATM   32  N   UNL     1      -8.917   3.686  67.651  1.00  0.00    -0.126 NA 
HETATM   33  C   UNL     1     -10.185   1.480  67.997  1.00  0.00     1.218 C  
HETATM   34  C   UNL     1      -8.048   6.056  68.200  1.00  0.00    -0.110 A  
HETATM   35  C   UNL     1      -8.766   4.854  68.392  1.00  0.00    -0.101 A  
BRANCH  32  36
HETATM   36  C   UNL     1      -8.224   3.420  66.388  1.00  0.00    -0.097 C  
HETATM   37  C   UNL     1      -6.698   3.296  66.469  1.00  0.00    -0.048 C  
HETATM   38  C   UNL     1      -8.612   4.442  65.319  1.00  0.00    -0.124 C  
ENDBRANCH  32  36
ENDBRANCH  23  25
ENDBRANCH  16  18
ENDBRANCH  13  16
ENDBRANCH   9  10
ENDBRANCH   6   9
ENDBRANCH   2   3
TORSDOF 7
ENDMDL
MODEL      228
REMARK 921   NORMALIZED FREE ENERGY PREDICTED BY IDOCK:   37.68 KCAL/MOL
REMARK 922        TOTAL FREE ENERGY PREDICTED BY IDOCK:   52.23 KCAL/MOL
REMARK 923 INTER-LIGAND FREE ENERGY PREDICTED BY IDOCK:   47.49 KCAL/MOL
REMARK 924 INTRA-LIGAND FREE ENERGY PREDICTED BY IDOCK:    4.73 KCAL/MOL
REMARK 927      BINDING AFFINITY PREDICTED BY RF-SCORE:    0.00 PKD
ROOT
HETATM    1  C   UNL     1      -5.240  18.923  67.562  1.00  0.00    -0.161 C  
HETATM    2  C   UNL     1      -6.548  19.049  66.790  1.00  0.00    -0.189 C  
ENDROOT
BRANCH   2   3
HETATM    3  N   UNL     1      -7.750  19.082  67.638  1.00  0.00    -0.237 NA 
HETATM    4  C   UNL     1      -7.453  18.490  68.964  1.00  0.00    -0.201 C  
HETATM    5  C   UNL     1      -6.667  19.419  69.923  1.00  0.00    -0.110 C  
HETATM    6  N   UNL     1      -7.268  20.761  70.111  1.00  0.00     0.889 NA 
HETATM    7  C   UNL     1      -8.312  20.436  67.818  1.00  0.00    -0.164 C  
HETATM    8  C   UNL     1      -7.505  21.348  68.773  1.00  0.00     2.487 C  
BRANCH   6   9
HETATM    9  C   UNL     1      -8.533  20.710  70.872  1.00  0.00     2.474 C  
BRANCH   9  10
HETATM   10  C   UNL     1      -8.939  19.317  71.263  1.00  0.00     4.156 A  
HETATM   11  C   UNL     1      -9.128  18.971  72.596  1.00  0.00     7.474 A  
HETATM   12  C   UNL     1      -9.487  17.668  72.910  1.00  0.00    12.293 A  
HETATM   13  C   UNL     1      -9.646  16.726  71.891  1.00  0.00     7.861 A  
HETATM   14  N   UNL     1      -9.492  17.051  70.592  1.00  0.00     2.905 NA 
HETATM   15  C   UNL     1      -9.136  18.325  70.308  1.00  0.00     2.680 A  
BRANCH  13  16
HETATM   16  N   UNL     1     -10.049  15.428  72.182  1.00  0.00     1.721 NA 
HETATM   17  H   UNL     1      -9.520  14.932  72.900  1.00  0.00     0.000 HD 
BRANCH  16  18
HETATM   18  C   UNL     1     -11.099  14.741  71.593  1.00  0.00     0.369 A  
HETATM   19  N   UNL     1     -12.299  15.340  71.594  1.00  0.00    -0.332 NA 
HETATM   20  C   UNL     1     -13.330  14.634  71.093  1.00  0.00    -0.373 A  
HETATM   21  C   UNL     1     -13.190  13.394  70.517  1.00  0.00     0.353 A  
HETATM   22  F   UNL     1     -14.260  12.758  70.023  1.00  0.00     3.082 F  
HETATM   23  C   UNL     1     -11.915  12.868  70.484  1.00  0.00    -0.198 A  
HETATM   24  N   UNL     1     -10.881  13.524  71.060  1.00  0.00     2.396 NA 
BRANCH  23  25
HETATM   25  C   UNL     1     -11.553  11.606  69.798  1.00  0.00    -0.389 A  
HETATM   26  C   UNL     1     -11.696  10.369  70.454  1.00  0.00    -0.419 A  
HETATM   27  C   UNL     1     -11.397   9.166  69.818  1.00  0.00     0.030 A  
HETATM   28  C   UNL     1     -10.944   9.162  68.494  1.00  0.00     0.052 A  
HETATM   29  F   UNL     1     -11.554   8.019  70.498  1.00  0.00    -0.276 F  
HETATM   30  N   UNL     1     -10.591   8.119  67.690  1.00  0.00    -0.219 NA 
HETATM   31  C   UNL     1     -10.221   8.639  66.541  1.00  0.00    -0.225 A  
HETATM   32  N   UNL     1     -10.333  10.020  66.560  1.00  0.00    -0.221 NA 
HETATM   33  C   UNL     1      -9.740   7.802  65.413  1.00  0.00     1.054 C  
HETATM   34  C   UNL     1     -11.106  11.604  68.449  1.00  0.00    -0.285 A  
HETATM   35  C   UNL     1     -10.803  10.375  67.821  1.00  0.00    -0.297 A  
BRANCH  32  36
HETATM   36  C   UNL     1      -9.962  10.985  65.522  1.00  0.00    -0.256 C  
HETATM   37  C   UNL     1     -10.017  10.476  64.077  1.00  0.00    -0.363 C  
HETATM   38  C   UNL     1      -8.594  11.607  65.809  1.00  0.00     0.131 C  
ENDBRANCH  32  36
ENDBRANCH  23  25
ENDBRANCH  16  18
ENDBRANCH  13  16
ENDBRANCH   9  10
ENDBRANCH   6   9
ENDBRANCH   2   3
TORSDOF 7
ENDMDL
MODEL      229
REMARK 921   NORMALIZED FREE ENERGY PREDICTED BY IDOCK:   40.68 KCAL/MOL
REMARK 922        TOTAL FREE ENERGY PREDICTED BY IDOCK:   56.45 KCAL/MOL
REMARK 923 INTER-LIGAND FREE ENERGY PREDICTED BY IDOCK:   47.90 KCAL/MOL
REMARK 924 INTRA-LIGAND FREE ENERGY PREDICTED BY IDOCK:    8.55 KCAL/MOL
REMARK 927      BINDING AFFINITY PREDICTED BY RF-SCORE:    0.00 PKD
ROOT
HETATM    1  C   UNL     1     -11.021   8.813  62.514  1.00  0.00     9.027 C  
HETATM    2  C   UNL     1     -10.055   7.700  62.900  1.00  0.00     6.384 C  
ENDROOT
BRANCH   2   3
HETATM    3  N   UNL     1      -9.197   8.016  64.054  1.00  0.00     1.286 NA 
HETATM    4  C   UNL     1      -8.833   6.772  64.774  1.00  0.00     0.480 C  
HETATM    5  C   UNL     1      -7.724   5.933  64.092  1.00  0.00    -0.106 C  
HETATM    6  N   UNL     1      -6.491   6.689  63.770  1.00  0.00    -0.037 NA 
HETATM    7  C   UNL     1      -7.968   8.753  63.696  1.00  0.00    -0.158 C  
HETATM    8  C   UNL     1      -6.879   7.897  63.007  1.00  0.00    -0.084 C  
BRANCH   6   9
HETATM    9  C   UNL     1      -5.736   7.076  64.979  1.00  0.00    -0.032 C  
BRANCH   9  10
HETATM   10  C   UNL     1      -6.576   7.107  66.224  1.00  0.00    -0.052 A  
HETATM   11  C   UNL     1      -7.957   6.953  66.162  1.00  0.00    -0.110 A  
HETATM   12  C   UNL     1      -8.694   7.006  67.337  1.00  0.00    -0.120 A  
HETATM   13  C   UNL     1      -8.046   7.218  68.556  1.00  0.00    -0.125 A  
HETATM   14  N   UNL     1      -6.705   7.344  68.636  1.00  0.00    -0.055 NA 
HETATM   15  C   UNL     1      -6.007   7.296  67.479  1.00  0.00    -0.034 A  
BRANCH  13  16
HETATM   16  N   UNL     1      -8.761   7.229  69.748  1.00  0.00    -0.141 NA 
HETATM   17  H   UNL     1      -9.561   6.599  69.810  1.00  0.00     0.000 HD 
BRANCH  16  18
HETATM   18  C   UNL     1      -8.495   8.013  70.859  1.00  0.00    -0.124 A  
HETATM   19  N   UNL     1      -8.466   7.397  72.050  1.00  0.00    -0.105 NA 
HETATM   20  C   UNL     1      -8.288   8.178  73.133  1.00  0.00    -0.204 A  
HETATM   21  C   UNL     1      -8.053   9.529  73.061  1.00  0.00     2.665 A  
HETATM   22  F   UNL     1      -7.867  10.239  74.181  1.00  0.00     3.076 F  
HETATM   23  C   UNL     1      -8.024  10.087  71.799  1.00  0.00     2.807 A  
HETATM   24  N   UNL     1      -8.288   9.335  70.705  1.00  0.00    -0.198 NA 
BRANCH  23  25
HETATM   25  C   UNL     1      -7.665  11.497  71.520  1.00  0.00     8.287 A  
HETATM   26  C   UNL     1      -6.634  12.128  72.240  1.00  0.00     5.417 A  
HETATM   27  C   UNL     1      -6.253  13.441  71.972  1.00  0.00     1.537 A  
HETATM   28  C   UNL     1      -6.897  14.169  70.965  1.00  0.00     0.992 A  
HETATM   29  F   UNL     1      -5.262  13.987  72.693  1.00  0.00    -0.158 F  
HETATM   30  N   UNL     1      -6.696  15.451  70.543  1.00  0.00     0.195 NA 
HETATM   31  C   UNL     1      -7.565  15.670  69.581  1.00  0.00    -0.119 A  
HETATM   32  N   UNL     1      -8.340  14.546  69.344  1.00  0.00     0.079 NA 
HETATM   33  C   UNL     1      -7.664  16.981  68.889  1.00  0.00    -0.231 C  
HETATM   34  C   UNL     1      -8.312  12.230  70.488  1.00  0.00     5.857 A  
HETATM   35  C   UNL     1      -7.917  13.562  70.234  1.00  0.00     2.726 A  
BRANCH  32  36
HETATM   36  C   UNL     1      -9.461  14.384  68.415  1.00  0.00    -0.207 C  
HETATM   37  C   UNL     1      -9.145  14.603  66.931  1.00  0.00    -0.272 C  
HETATM   38  C   UNL     1     -10.653  15.247  68.831  1.00  0.00    -0.242 C  
ENDBRANCH  32  36
ENDBRANCH  23  25
ENDBRANCH  16  18
ENDBRANCH  13  16
ENDBRANCH   9  10
ENDBRANCH   6   9
ENDBRANCH   2   3
TORSDOF 7
ENDMDL
MODEL      230
REMARK 921   NORMALIZED FREE ENERGY PREDICTED BY IDOCK:   42.05 KCAL/MOL
REMARK 922        TOTAL FREE ENERGY PREDICTED BY IDOCK:   58.38 KCAL/MOL
REMARK 923 INTER-LIGAND FREE ENERGY PREDICTED BY IDOCK:   48.26 KCAL/MOL
REMARK 924 INTRA-LIGAND FREE ENERGY PREDICTED BY IDOCK:   10.12 KCAL/MOL
REMARK 927      BINDING AFFINITY PREDICTED BY RF-SCORE:    0.00 PKD
ROOT
HETATM    1  C   UNL     1     -13.777  16.273  66.784  1.00  0.00     7.934 C  
HETATM    2  C   UNL     1     -12.919  16.468  68.029  1.00  0.00     3.797 C  
ENDROOT
BRANCH   2   3
HETATM    3  N   UNL     1     -11.718  15.617  68.074  1.00  0.00    -0.247 NA 
HETATM    4  C   UNL     1     -11.989  14.319  67.412  1.00  0.00    -0.391 C  
HETATM    5  C   UNL     1     -11.978  14.370  65.864  1.00  0.00    -0.359 C  
HETATM    6  N   UNL     1     -10.759  14.972  65.276  1.00  0.00    -0.359 NA 
HETATM    7  C   UNL     1     -10.526  16.241  67.464  1.00  0.00    -0.302 C  
HETATM    8  C   UNL     1     -10.543  16.289  65.918  1.00  0.00    -0.297 C  
BRANCH   6   9
HETATM    9  C   UNL     1      -9.566  14.121  65.457  1.00  0.00    -0.018 C  
BRANCH   9  10
HETATM   10  C   UNL     1      -9.389  13.633  66.868  1.00  0.00    -0.261 A  
HETATM   11  C   UNL     1      -8.124  13.379  67.387  1.00  0.00    -0.178 A  
HETATM   12  C   UNL     1      -8.012  12.914  68.689  1.00  0.00    -0.024 A  
HETATM   13  C   UNL     1      -9.161  12.702  69.454  1.00  0.00     1.296 A  
HETATM   14  N   UNL     1     -10.393  12.967  68.975  1.00  0.00    -0.027 NA 
HETATM   15  C   UNL     1     -10.481  13.413  67.701  1.00  0.00    -0.241 A  
BRANCH  13  16
HETATM   16  N   UNL     1      -9.066  12.280  70.775  1.00  0.00     6.561 NA 
HETATM   17  H   UNL     1      -8.838  12.991  71.470  1.00  0.00     0.000 HD 
BRANCH  16  18
HETATM   18  C   UNL     1      -9.251  10.988  71.241  1.00  0.00     6.937 A  
HETATM   19  N   UNL     1      -9.005  10.763  72.540  1.00  0.00    10.651 NA 
HETATM   20  C   UNL     1      -9.108   9.491  72.966  1.00  0.00     3.593 A  
HETATM   21  C   UNL     1      -9.529   8.456  72.165  1.00  0.00    -0.290 A  
HETATM   22  F   UNL     1      -9.625   7.217  72.665  1.00  0.00    -0.158 F  
HETATM   23  C   UNL     1      -9.836   8.770  70.857  1.00  0.00    -0.222 A  
HETATM   24  N   UNL     1      -9.654  10.026  70.387  1.00  0.00    -0.052 NA 
BRANCH  23  25
HETATM   25  C   UNL     1     -10.418   7.815  69.887  1.00  0.00    -0.232 A  
HETATM   26  C   UNL     1     -11.660   7.204  70.143  1.00  0.00    -0.211 A  
HETATM   27  C   UNL     1     -12.247   6.331  69.229  1.00  0.00     1.935 A  
HETATM   28  C   UNL     1     -11.605   6.040  68.021  1.00  0.00     1.113 A  
HETATM   29  F   UNL     1     -13.433   5.780  69.532  1.00  0.00     5.150 F  
HETATM   30  N   UNL     1     -11.986   5.221  66.999  1.00  0.00     3.812 NA 
HETATM   31  C   UNL     1     -11.032   5.278  66.096  1.00  0.00     0.042 A  
HETATM   32  N   UNL     1     -10.019   6.135  66.495  1.00  0.00    -0.153 NA 
HETATM   33  C   UNL     1     -11.085   4.487  64.840  1.00  0.00     0.108 C  
HETATM   34  C   UNL     1      -9.771   7.532  68.654  1.00  0.00    -0.154 A  
HETATM   35  C   UNL     1     -10.377   6.639  67.742  1.00  0.00    -0.196 A  
BRANCH  32  36
HETATM   36  C   UNL     1      -8.751   6.431  65.825  1.00  0.00    -0.127 C  
HETATM   37  C   UNL     1      -8.445   7.913  65.581  1.00  0.00    -0.160 C  
HETATM   38  C   UNL     1      -8.619   5.646  64.519  1.00  0.00    -0.008 C  
ENDBRANCH  32  36
ENDBRANCH  23  25
ENDBRANCH  16  18
ENDBRANCH  13  16
ENDBRANCH   9  10
ENDBRANCH   6   9
ENDBRANCH   2   3
TORSDOF 7
ENDMDL
MODEL      231
REMARK 921   NORMALIZED FREE ENERGY PREDICTED BY IDOCK:   59.18 KCAL/MOL
REMARK 922        TOTAL FREE ENERGY PREDICTED BY IDOCK:   82.52 KCAL/MOL
REMARK 923 INTER-LIGAND FREE ENERGY PREDICTED BY IDOCK:   82.90 KCAL/MOL
REMARK 924 INTRA-LIGAND FREE ENERGY PREDICTED BY IDOCK:   -0.38 KCAL/MOL
REMARK 927      BINDING AFFINITY PREDICTED BY RF-SCORE:    0.00 PKD
ROOT
HETATM    1  C   UNL     1      -9.082   4.966  71.604  1.00  0.00    -0.169 C  
HETATM    2  C   UNL     1      -8.020   5.539  72.537  1.00  0.00    -0.103 C  
ENDROOT
BRANCH   2   3
HETATM    3  N   UNL     1      -8.476   6.684  73.341  1.00  0.00    -0.118 NA 
HETATM    4  C   UNL     1      -7.310   7.406  73.905  1.00  0.00    -0.100 C  
HETATM    5  C   UNL     1      -6.568   8.320  72.898  1.00  0.00    -0.095 C  
HETATM    6  N   UNL     1      -7.439   9.283  72.184  1.00  0.00    -0.099 NA 
HETATM    7  C   UNL     1      -9.326   7.633  72.593  1.00  0.00    -0.172 C  
HETATM    8  C   UNL     1      -8.564   8.529  71.587  1.00  0.00    -0.187 C  
BRANCH   6   9
HETATM    9  C   UNL     1      -7.956  10.342  73.074  1.00  0.00     8.287 C  
BRANCH   9  10
HETATM   10  C   UNL     1      -8.661  11.447  72.339  1.00  0.00    17.356 A  
HETATM   11  C   UNL     1      -9.691  12.164  72.937  1.00  0.00    23.139 A  
HETATM   12  C   UNL     1     -10.324  13.165  72.213  1.00  0.00    11.492 A  
HETATM   13  C   UNL     1      -9.925  13.433  70.902  1.00  0.00     5.895 A  
HETATM   14  N   UNL     1      -8.911  12.765  70.316  1.00  0.00     4.252 NA 
HETATM   15  C   UNL     1      -8.313  11.789  71.036  1.00  0.00     8.410 A  
BRANCH  13  16
HETATM   16  N   UNL     1     -10.516  14.462  70.177  1.00  0.00    -0.269 NA 
HETATM   17  H   UNL     1     -10.392  15.409  70.536  1.00  0.00     0.000 HD 
BRANCH  16  18
HETATM   18  C   UNL     1     -11.257  14.327  69.013  1.00  0.00    -0.266 A  
HETATM   19  N   UNL     1     -12.398  15.027  68.929  1.00  0.00    -0.072 NA 
HETATM   20  C   UNL     1     -13.153  14.829  67.832  1.00  0.00     2.731 A  
HETATM   21  C   UNL     1     -12.768  14.027  66.785  1.00  0.00     0.192 A  
HETATM   22  F   UNL     1     -13.564  13.892  65.716  1.00  0.00    -0.275 F  
HETATM   23  C   UNL     1     -11.549  13.392  66.905  1.00  0.00    -0.365 A  
HETATM   24  N   UNL     1     -10.817  13.510  68.037  1.00  0.00    -0.244 NA 
BRANCH  23  25
HETATM   25  C   UNL     1     -10.918  12.591  65.830  1.00  0.00    -0.314 A  
HETATM   26  C   UNL     1     -10.610  13.178  64.589  1.00  0.00    -0.410 A  
HETATM   27  C   UNL     1      -9.984  12.455  63.575  1.00  0.00    -0.107 A  
HETATM   28  C   UNL     1      -9.643  11.113  63.774  1.00  0.00    -0.271 A  
HETATM   29  F   UNL     1      -9.716  13.071  62.413  1.00  0.00     2.666 F  
HETATM   30  N   UNL     1      -9.040  10.225  62.932  1.00  0.00    -0.248 NA 
HETATM   31  C   UNL     1      -8.954   9.087  63.584  1.00  0.00     0.150 A  
HETATM   32  N   UNL     1      -9.482   9.203  64.860  1.00  0.00    -0.009 NA 
HETATM   33  C   UNL     1      -8.371   7.867  62.969  1.00  0.00     0.026 C  
HETATM   34  C   UNL     1     -10.561  11.232  66.040  1.00  0.00    -0.314 A  
HETATM   35  C   UNL     1      -9.931  10.513  65.000  1.00  0.00    -0.322 A  
BRANCH  32  36
HETATM   36  C   UNL     1      -9.647   8.166  65.881  1.00  0.00     0.059 C  
HETATM   37  C   UNL     1     -10.762   7.144  65.632  1.00  0.00     3.036 C  
HETATM   38  C   UNL     1      -9.799   8.781  67.274  1.00  0.00    -0.260 C  
ENDBRANCH  32  36
ENDBRANCH  23  25
ENDBRANCH  16  18
ENDBRANCH  13  16
ENDBRANCH   9  10
ENDBRANCH   6   9
ENDBRANCH   2   3
TORSDOF 7
ENDMDL
MODEL      232
REMARK 921   NORMALIZED FREE ENERGY PREDICTED BY IDOCK:   61.91 KCAL/MOL
REMARK 922        TOTAL FREE ENERGY PREDICTED BY IDOCK:   86.38 KCAL/MOL
REMARK 923 INTER-LIGAND FREE ENERGY PREDICTED BY IDOCK:   85.59 KCAL/MOL
REMARK 924 INTRA-LIGAND FREE ENERGY PREDICTED BY IDOCK:    0.79 KCAL/MOL
REMARK 927      BINDING AFFINITY PREDICTED BY RF-SCORE:    0.00 PKD
ROOT
HETATM    1  C   UNL     1      -8.595   4.306  69.678  1.00  0.00    -0.103 C  
HETATM    2  C   UNL     1      -8.565   4.845  71.104  1.00  0.00    -0.122 C  
ENDROOT
BRANCH   2   3
HETATM    3  N   UNL     1      -7.744   6.055  71.275  1.00  0.00    -0.107 NA 
HETATM    4  C   UNL     1      -6.404   5.849  70.676  1.00  0.00    -0.032 C  
HETATM    5  C   UNL     1      -6.365   5.958  69.131  1.00  0.00    -0.041 C  
HETATM    6  N   UNL     1      -6.956   7.202  68.587  1.00  0.00    -0.079 NA 
HETATM    7  C   UNL     1      -8.355   7.272  70.705  1.00  0.00    -0.124 C  
HETATM    8  C   UNL     1      -8.312   7.354  69.161  1.00  0.00    -0.132 C  
BRANCH   6   9
HETATM    9  C   UNL     1      -6.141   8.395  68.893  1.00  0.00    -0.044 C  
BRANCH   9  10
HETATM   10  C   UNL     1      -6.324   9.512  67.906  1.00  0.00    -0.054 A  
HETATM   11  C   UNL     1      -5.682  10.734  68.077  1.00  0.00    -0.042 A  
HETATM   12  C   UNL     1      -5.895  11.742  67.147  1.00  0.00    -0.136 A  
HETATM   13  C   UNL     1      -6.748  11.522  66.064  1.00  0.00     0.376 A  
HETATM   14  N   UNL     1      -7.358  10.335  65.869  1.00  0.00    -0.125 NA 
HETATM   15  C   UNL     1      -7.143   9.368  66.791  1.00  0.00    -0.082 A  
BRANCH  13  16
HETATM   16  N   UNL     1      -6.938  12.504  65.098  1.00  0.00     4.086 NA 
HETATM   17  H   UNL     1      -6.884  12.207  64.124  1.00  0.00     0.000 HD 
BRANCH  16  18
HETATM   18  C   UNL     1      -7.193  13.846  65.330  1.00  0.00     9.201 A  
HETATM   19  N   UNL     1      -7.443  14.615  64.261  1.00  0.00    14.777 NA 
HETATM   20  C   UNL     1      -7.609  15.933  64.485  1.00  0.00    11.629 A  
HETATM   21  C   UNL     1      -7.620  16.490  65.741  1.00  0.00     0.975 A  
HETATM   22  F   UNL     1      -7.809  17.808  65.889  1.00  0.00    -0.282 F  
HETATM   23  C   UNL     1      -7.428  15.630  66.803  1.00  0.00    -0.028 A  
HETATM   24  N   UNL     1      -7.173  14.318  66.592  1.00  0.00     0.777 NA 
BRANCH  23  25
HETATM   25  C   UNL     1      -7.530  16.028  68.226  1.00  0.00    -0.136 A  
HETATM   26  C   UNL     1      -6.378  16.387  68.951  1.00  0.00    -0.150 A  
HETATM   27  C   UNL     1      -6.451  16.801  70.280  1.00  0.00     0.483 A  
HETATM   28  C   UNL     1      -7.689  16.870  70.929  1.00  0.00     4.861 A  
HETATM   29  F   UNL     1      -5.317  17.130  70.918  1.00  0.00    -0.221 F  
HETATM   30  N   UNL     1      -7.990  17.235  72.208  1.00  0.00    12.935 NA 
HETATM   31  C   UNL     1      -9.294  17.119  72.335  1.00  0.00    12.291 A  
HETATM   32  N   UNL     1      -9.873  16.692  71.151  1.00  0.00     3.057 NA 
HETATM   33  C   UNL     1      -9.992  17.409  73.613  1.00  0.00     9.546 C  
HETATM   34  C   UNL     1      -8.789  16.111  68.878  1.00  0.00    -0.248 A  
HETATM   35  C   UNL     1      -8.844  16.527  70.228  1.00  0.00     2.086 A  
BRANCH  32  36
HETATM   36  C   UNL     1     -11.276  16.370  70.880  1.00  0.00    -0.133 C  
HETATM   37  C   UNL     1     -11.648  14.883  70.922  1.00  0.00    -0.344 C  
HETATM   38  C   UNL     1     -11.742  16.991  69.562  1.00  0.00     1.275 C  
ENDBRANCH  32  36
ENDBRANCH  23  25
ENDBRANCH  16  18
ENDBRANCH  13  16
ENDBRANCH   9  10
ENDBRANCH   6   9
ENDBRANCH   2   3
TORSDOF 7
ENDMDL
MODEL      233
REMARK 921   NORMALIZED FREE ENERGY PREDICTED BY IDOCK:   77.07 KCAL/MOL
REMARK 922        TOTAL FREE ENERGY PREDICTED BY IDOCK:  107.74 KCAL/MOL
REMARK 923 INTER-LIGAND FREE ENERGY PREDICTED BY IDOCK:   99.49 KCAL/MOL
REMARK 924 INTRA-LIGAND FREE ENERGY PREDICTED BY IDOCK:    8.25 KCAL/MOL
REMARK 927      BINDING AFFINITY PREDICTED BY RF-SCORE:    0.00 PKD
ROOT
HETATM    1  C   UNL     1      -7.213  10.617  66.926  1.00  0.00    -0.110 C  
HETATM    2  C   UNL     1      -7.678  10.571  65.475  1.00  0.00    -0.127 C  
ENDROOT
BRANCH   2   3
HETATM    3  N   UNL     1      -8.782   9.630  65.224  1.00  0.00    -0.149 NA 
HETATM    4  C   UNL     1      -9.083   9.575  63.773  1.00  0.00    -0.109 C  
HETATM    5  C   UNL     1      -8.084   8.734  62.939  1.00  0.00    -0.174 C  
HETATM    6  N   UNL     1      -7.865   7.358  63.444  1.00  0.00    -0.126 NA 
HETATM    7  C   UNL     1      -8.523   8.265  65.724  1.00  0.00    -0.151 C  
HETATM    8  C   UNL     1      -7.515   7.448  64.880  1.00  0.00    -0.087 C  
BRANCH   6   9
HETATM    9  C   UNL     1      -9.052   6.497  63.266  1.00  0.00     1.320 C  
BRANCH   9  10
HETATM   10  C   UNL     1      -9.993   6.527  64.437  1.00  0.00     3.660 A  
HETATM   11  C   UNL     1      -9.552   6.894  65.704  1.00  0.00     0.512 A  
HETATM   12  C   UNL     1     -10.454   6.890  66.758  1.00  0.00    -0.300 A  
HETATM   13  C   UNL     1     -11.781   6.514  66.537  1.00  0.00     1.821 A  
HETATM   14  N   UNL     1     -12.231   6.180  65.311  1.00  0.00     5.331 NA 
HETATM   15  C   UNL     1     -11.333   6.183  64.298  1.00  0.00     8.096 A  
BRANCH  13  16
HETATM   16  N   UNL     1     -12.709   6.547  67.571  1.00  0.00     5.109 NA 
HETATM   17  H   UNL     1     -13.691   6.447  67.312  1.00  0.00     0.000 HD 
BRANCH  16  18
HETATM   18  C   UNL     1     -12.433   6.703  68.920  1.00  0.00     3.482 A  
HETATM   19  N   UNL     1     -12.911   5.769  69.755  1.00  0.00     5.016 NA 
HETATM   20  C   UNL     1     -12.708   5.970  71.071  1.00  0.00     1.360 A  
HETATM   21  C   UNL     1     -11.975   7.018  71.572  1.00  0.00    -0.334 A  
HETATM   22  F   UNL     1     -11.800   7.143  72.894  1.00  0.00    -0.208 F  
HETATM   23  C   UNL     1     -11.450   7.903  70.652  1.00  0.00    -0.238 A  
HETATM   24  N   UNL     1     -11.717   7.767  69.333  1.00  0.00     0.637 NA 
BRANCH  23  25
HETATM   25  C   UNL     1     -10.537   9.017  70.997  1.00  0.00    -0.341 A  
HETATM   26  C   UNL     1      -9.162   8.782  71.186  1.00  0.00    -0.299 A  
HETATM   27  C   UNL     1      -8.277   9.818  71.474  1.00  0.00     1.504 A  
HETATM   28  C   UNL     1      -8.743  11.133  71.581  1.00  0.00    10.349 A  
HETATM   29  F   UNL     1      -6.977   9.530  71.644  1.00  0.00    -0.005 F  
HETATM   30  N   UNL     1      -8.066  12.285  71.859  1.00  0.00    13.297 NA 
HETATM   31  C   UNL     1      -8.956  13.252  71.861  1.00  0.00    15.923 A  
HETATM   32  N   UNL     1     -10.222  12.766  71.575  1.00  0.00     8.568 NA 
HETATM   33  C   UNL     1      -8.590  14.662  72.154  1.00  0.00     6.637 C  
HETATM   34  C   UNL     1     -11.010  10.354  71.091  1.00  0.00     0.369 A  
HETATM   35  C   UNL     1     -10.099  11.392  71.390  1.00  0.00     7.404 A  
BRANCH  32  36
HETATM   36  C   UNL     1     -11.496  13.486  71.546  1.00  0.00     1.915 C  
HETATM   37  C   UNL     1     -12.007  13.900  70.161  1.00  0.00    -0.402 C  
HETATM   38  C   UNL     1     -11.468  14.698  72.479  1.00  0.00     0.334 C  
ENDBRANCH  32  36
ENDBRANCH  23  25
ENDBRANCH  16  18
ENDBRANCH  13  16
ENDBRANCH   9  10
ENDBRANCH   6   9
ENDBRANCH   2   3
TORSDOF 7
ENDMDL
MODEL      234
REMARK 921   NORMALIZED FREE ENERGY PREDICTED BY IDOCK:   86.65 KCAL/MOL
REMARK 922        TOTAL FREE ENERGY PREDICTED BY IDOCK:  121.24 KCAL/MOL
REMARK 923 INTER-LIGAND FREE ENERGY PREDICTED BY IDOCK:  119.92 KCAL/MOL
REMARK 924 INTRA-LIGAND FREE ENERGY PREDICTED BY IDOCK:    1.32 KCAL/MOL
REMARK 927      BINDING AFFINITY PREDICTED BY RF-SCORE:    0.00 PKD
ROOT
HETATM    1  C   UNL     1     -12.278   6.301  73.331  1.00  0.00     1.691 C  
HETATM    2  C   UNL     1     -13.771   6.606  73.317  1.00  0.00     3.144 C  
ENDROOT
BRANCH   2   3
HETATM    3  N   UNL     1     -14.319   6.886  71.980  1.00  0.00    -0.243 NA 
HETATM    4  C   UNL     1     -13.684   8.100  71.413  1.00  0.00    -0.231 C  
HETATM    5  C   UNL     1     -12.255   7.880  70.857  1.00  0.00    -0.121 C  
HETATM    6  N   UNL     1     -12.137   6.768  69.885  1.00  0.00    -0.069 NA 
HETATM    7  C   UNL     1     -14.169   5.764  71.031  1.00  0.00     4.241 C  
HETATM    8  C   UNL     1     -12.731   5.558  70.497  1.00  0.00     4.776 C  
BRANCH   6   9
HETATM    9  C   UNL     1     -12.807   7.067  68.603  1.00  0.00     6.711 C  
BRANCH   9  10
HETATM   10  C   UNL     1     -11.966   7.889  67.667  1.00  0.00     3.501 A  
HETATM   11  C   UNL     1     -11.255   8.994  68.122  1.00  0.00     0.352 A  
HETATM   12  C   UNL     1     -10.506   9.732  67.217  1.00  0.00    -0.324 A  
HETATM   13  C   UNL     1     -10.481   9.363  65.870  1.00  0.00     0.301 A  
HETATM   14  N   UNL     1     -11.144   8.280  65.417  1.00  0.00     5.209 NA 
HETATM   15  C   UNL     1     -11.874   7.579  66.314  1.00  0.00     5.274 A  
BRANCH  13  16
HETATM   16  N   UNL     1      -9.700  10.063  64.957  1.00  0.00    -0.309 NA 
HETATM   17  H   UNL     1      -9.595   9.650  64.030  1.00  0.00     0.000 HD 
BRANCH  16  18
HETATM   18  C   UNL     1      -9.052  11.267  65.182  1.00  0.00    -0.100 A  
HETATM   19  N   UNL     1      -8.265  11.732  64.201  1.00  0.00     1.425 NA 
HETATM   20  C   UNL     1      -7.575  12.859  64.458  1.00  0.00     8.658 A  
HETATM   21  C   UNL     1      -7.709  13.579  65.621  1.00  0.00     4.701 A  
HETATM   22  F   UNL     1      -7.003  14.703  65.799  1.00  0.00     3.589 F  
HETATM   23  C   UNL     1      -8.590  13.083  66.559  1.00  0.00     0.148 A  
HETATM   24  N   UNL     1      -9.227  11.906  66.355  1.00  0.00    -0.214 NA 
BRANCH  23  25
HETATM   25  C   UNL     1      -8.954  13.784  67.812  1.00  0.00    -0.194 A  
HETATM   26  C   UNL     1      -9.737  14.954  67.775  1.00  0.00    -0.212 A  
HETATM   27  C   UNL     1     -10.123  15.611  68.941  1.00  0.00    -0.217 A  
HETATM   28  C   UNL     1      -9.737  15.115  70.191  1.00  0.00     0.200 A  
HETATM   29  F   UNL     1     -10.869  16.722  68.840  1.00  0.00    -0.285 F  
HETATM   30  N   UNL     1      -9.991  15.593  71.443  1.00  0.00     1.544 NA 
HETATM   31  C   UNL     1      -9.396  14.777  72.284  1.00  0.00     6.190 A  
HETATM   32  N   UNL     1      -8.755  13.748  71.612  1.00  0.00     8.358 NA 
HETATM   33  C   UNL     1      -9.431  14.994  73.753  1.00  0.00     9.453 C  
HETATM   34  C   UNL     1      -8.572  13.270  69.080  1.00  0.00     0.605 A  
HETATM   35  C   UNL     1      -8.968  13.953  70.252  1.00  0.00     2.939 A  
BRANCH  32  36
HETATM   36  C   UNL     1      -7.923  12.674  72.159  1.00  0.00    15.175 C  
HETATM   37  C   UNL     1      -8.370  12.093  73.506  1.00  0.00    21.023 C  
HETATM   38  C   UNL     1      -6.454  13.094  72.231  1.00  0.00     3.234 C  
ENDBRANCH  32  36
ENDBRANCH  23  25
ENDBRANCH  16  18
ENDBRANCH  13  16
ENDBRANCH   9  10
ENDBRANCH   6   9
ENDBRANCH   2   3
TORSDOF 7
ENDMDL
