MODEL        1
REMARK 921   NORMALIZED FREE ENERGY PREDICTED BY IDOCK:   -7.48 KCAL/MOL
REMARK 922        TOTAL FREE ENERGY PREDICTED BY IDOCK:   -7.74 KCAL/MOL
REMARK 923 INTER-LIGAND FREE ENERGY PREDICTED BY IDOCK:   -7.91 KCAL/MOL
REMARK 924 INTRA-LIGAND FREE ENERGY PREDICTED BY IDOCK:    0.18 KCAL/MOL
REMARK 927      BINDING AFFINITY PREDICTED BY RF-SCORE:    0.00 PKD
ROOT
HETATM    1  C   UNL     1     -11.988  15.722  69.830  1.00  0.00    -0.337 C  
HETATM    2  C   UNL     1     -11.213  15.956  71.012  1.00  0.00    -0.371 C  
HETATM    3  C   UNL     1     -10.597  15.118  69.939  1.00  0.00    -0.253 C  
HETATM    4  C   UNL     1     -11.200  15.143  68.467  1.00  0.00    -0.301 C  
HETATM    5  C   UNL     1     -12.286  10.888  68.633  1.00  0.00     0.117 C  
HETATM    6  C   UNL     1     -10.475  16.229  68.777  1.00  0.00    -0.282 C  
HETATM    7  C   UNL     1     -10.461  17.702  68.477  1.00  0.00    -0.337 C  
HETATM    8  C   UNL     1     -11.440  11.273  69.858  1.00  0.00    -0.373 C  
HETATM    9  C   UNL     1      -9.151  15.015  68.310  1.00  0.00    -0.182 C  
HETATM   10  C   UNL     1     -10.214  10.328  69.948  1.00  0.00    -0.250 C  
HETATM   11  C   UNL     1      -9.651  13.243  68.639  1.00  0.00    -0.053 C  
HETATM   12  C   UNL     1     -10.974  12.792  69.771  1.00  0.00     0.278 C  
HETATM   13  H   UNL     1      -9.844   7.833  72.354  1.00  0.00     0.000 HD 
HETATM   14  C   UNL     1     -12.398  13.852  69.951  1.00  0.00    -0.358 C  
HETATM   15  C   UNL     1     -10.587   8.856  70.177  1.00  0.00    -0.243 C  
HETATM   16  C   UNL     1     -13.074  13.512  71.288  1.00  0.00    -0.339 C  
HETATM   17  O   UNL     1     -10.494   8.497  72.549  1.00  0.00    -0.317 OA 
HETATM   18  C   UNL     1     -13.019  12.073  71.691  1.00  0.00    -0.439 C  
HETATM   19  C   UNL     1     -12.317  11.077  71.114  1.00  0.00    -0.465 C  
HETATM   20  C   UNL     1     -12.447   9.706  71.761  1.00  0.00    -0.487 C  
HETATM   21  C   UNL     1     -11.397   8.633  71.446  1.00  0.00    -0.284 C  
ENDROOT
BRANCH   4  22
HETATM   22  C   UNL     1     -11.438  14.945  66.955  1.00  0.00    -0.333 A  
HETATM   23  N   UNL     1     -12.796  13.879  65.154  1.00  0.00    -0.748 NA 
HETATM   24  C   UNL     1     -12.189  14.649  64.248  1.00  0.00    -0.408 A  
HETATM   25  C   UNL     1     -11.177  15.524  64.589  1.00  0.00    -0.381 A  
HETATM   26  C   UNL     1     -10.782  15.637  65.939  1.00  0.00    -0.336 A  
HETATM   27  C   UNL     1     -12.402  14.045  66.449  1.00  0.00    -0.431 A  
ENDBRANCH   4  22
TORSDOF 1
ENDMDL
MODEL        2
REMARK 921   NORMALIZED FREE ENERGY PREDICTED BY IDOCK:   -7.45 KCAL/MOL
REMARK 922        TOTAL FREE ENERGY PREDICTED BY IDOCK:   -7.71 KCAL/MOL
REMARK 923 INTER-LIGAND FREE ENERGY PREDICTED BY IDOCK:   -7.97 KCAL/MOL
REMARK 924 INTRA-LIGAND FREE ENERGY PREDICTED BY IDOCK:    0.26 KCAL/MOL
REMARK 927      BINDING AFFINITY PREDICTED BY RF-SCORE:    0.00 PKD
ROOT
HETATM    1  C   UNL     1     -11.318  11.982  66.043  1.00  0.00    -0.398 C  
HETATM    2  C   UNL     1     -10.297  11.838  65.047  1.00  0.00    -0.325 C  
HETATM    3  C   UNL     1      -9.870  12.252  66.418  1.00  0.00    -0.242 C  
HETATM    4  C   UNL     1     -10.852  12.047  67.653  1.00  0.00    -0.273 C  
HETATM    5  C   UNL     1     -11.111  16.368  68.411  1.00  0.00    -0.351 C  
HETATM    6  C   UNL     1     -10.265  10.917  67.230  1.00  0.00    -0.242 C  
HETATM    7  C   UNL     1     -10.584   9.452  67.113  1.00  0.00    -0.294 C  
HETATM    8  C   UNL     1     -10.038  16.074  67.352  1.00  0.00    -0.258 C  
HETATM    9  C   UNL     1      -8.936  11.655  68.296  1.00  0.00    -0.185 C  
HETATM   10  C   UNL     1      -8.693  16.701  67.800  1.00  0.00    -0.201 C  
HETATM   11  C   UNL     1      -9.017  13.522  68.358  1.00  0.00    -0.146 C  
HETATM   12  C   UNL     1      -9.879  14.507  67.124  1.00  0.00    -0.245 C  
HETATM   13  H   UNL     1      -7.254  19.507  66.312  1.00  0.00     0.000 HD 
HETATM   14  C   UNL     1     -11.356  13.876  66.347  1.00  0.00    -0.335 C  
HETATM   15  C   UNL     1      -8.733  18.234  67.903  1.00  0.00    -0.274 C  
HETATM   16  C   UNL     1     -11.567  14.649  65.036  1.00  0.00    -0.385 C  
HETATM   17  O   UNL     1      -7.927  19.072  65.802  1.00  0.00    -0.465 OA 
HETATM   18  C   UNL     1     -11.159  16.088  65.063  1.00  0.00    -0.345 C  
HETATM   19  C   UNL     1     -10.487  16.740  66.032  1.00  0.00    -0.300 C  
HETATM   20  C   UNL     1     -10.198  18.211  65.771  1.00  0.00    -0.112 C  
HETATM   21  C   UNL     1      -9.110  18.913  66.594  1.00  0.00    -0.330 C  
ENDROOT
BRANCH   4  22
HETATM   22  C   UNL     1     -11.462  11.959  69.067  1.00  0.00    -0.355 A  
HETATM   23  N   UNL     1     -12.565  13.140  70.968  1.00  0.00    -0.353 NA 
HETATM   24  C   UNL     1     -12.835  11.963  71.536  1.00  0.00    -0.316 A  
HETATM   25  C   UNL     1     -12.411  10.769  70.988  1.00  0.00    -0.522 A  
HETATM   26  C   UNL     1     -11.693  10.779  69.773  1.00  0.00    -0.399 A  
HETATM   27  C   UNL     1     -11.895  13.099  69.782  1.00  0.00    -0.316 A  
ENDBRANCH   4  22
TORSDOF 1
ENDMDL
MODEL        3
REMARK 921   NORMALIZED FREE ENERGY PREDICTED BY IDOCK:   -7.33 KCAL/MOL
REMARK 922        TOTAL FREE ENERGY PREDICTED BY IDOCK:   -7.58 KCAL/MOL
REMARK 923 INTER-LIGAND FREE ENERGY PREDICTED BY IDOCK:   -7.75 KCAL/MOL
REMARK 924 INTRA-LIGAND FREE ENERGY PREDICTED BY IDOCK:    0.17 KCAL/MOL
REMARK 927      BINDING AFFINITY PREDICTED BY RF-SCORE:    0.00 PKD
ROOT
HETATM    1  C   UNL     1     -10.882  10.982  65.513  1.00  0.00    -0.159 C  
HETATM    2  C   UNL     1      -9.841  11.059  64.532  1.00  0.00    -0.343 C  
HETATM    3  C   UNL     1      -9.491  11.423  65.939  1.00  0.00    -0.251 C  
HETATM    4  C   UNL     1     -10.448  10.989  67.133  1.00  0.00    -0.274 C  
HETATM    5  C   UNL     1     -11.323  15.159  68.205  1.00  0.00    -0.345 C  
HETATM    6  C   UNL     1      -9.703   9.987  66.641  1.00  0.00    -0.246 C  
HETATM    7  C   UNL     1      -9.811   8.506  66.408  1.00  0.00    -0.327 C  
HETATM    8  C   UNL     1     -10.207  15.101  67.150  1.00  0.00    -0.247 C  
HETATM    9  C   UNL     1      -8.503  10.820  67.787  1.00  0.00    -0.120 C  
HETATM   10  C   UNL     1      -8.969  15.874  67.673  1.00  0.00    -0.193 C  
HETATM   11  C   UNL     1      -8.848  12.647  67.986  1.00  0.00    -0.195 C  
HETATM   12  C   UNL     1      -9.826  13.594  66.809  1.00  0.00    -0.271 C  
HETATM   13  H   UNL     1      -7.924  18.958  66.429  1.00  0.00     0.000 HD 
HETATM   14  C   UNL     1     -11.191  12.823  65.955  1.00  0.00    -0.335 C  
HETATM   15  C   UNL     1      -9.227  17.373  67.888  1.00  0.00    -0.256 C  
HETATM   16  C   UNL     1     -11.494  13.658  64.701  1.00  0.00    -0.383 C  
HETATM   17  O   UNL     1      -8.524  18.475  65.874  1.00  0.00    -0.497 OA 
HETATM   18  C   UNL     1     -11.294  15.133  64.844  1.00  0.00    -0.402 C  
HETATM   19  C   UNL     1     -10.731  15.797  65.874  1.00  0.00    -0.320 C  
HETATM   20  C   UNL     1     -10.649  17.309  65.729  1.00  0.00    -0.198 C  
HETATM   21  C   UNL     1      -9.681  18.091  66.625  1.00  0.00    -0.332 C  
ENDROOT
BRANCH   4  22
HETATM   22  C   UNL     1     -11.056  10.708  68.523  1.00  0.00    -0.318 A  
HETATM   23  N   UNL     1     -11.147   9.224  70.527  1.00  0.00    -0.252 NA 
HETATM   24  C   UNL     1     -11.860  10.149  71.173  1.00  0.00    -0.381 A  
HETATM   25  C   UNL     1     -12.261  11.323  70.567  1.00  0.00    -0.474 A  
HETATM   26  C   UNL     1     -11.886  11.577  69.230  1.00  0.00    -0.414 A  
HETATM   27  C   UNL     1     -10.783   9.526  69.248  1.00  0.00    -0.222 A  
ENDBRANCH   4  22
TORSDOF 1
ENDMDL
MODEL        4
REMARK 921   NORMALIZED FREE ENERGY PREDICTED BY IDOCK:   -7.26 KCAL/MOL
REMARK 922        TOTAL FREE ENERGY PREDICTED BY IDOCK:   -7.51 KCAL/MOL
REMARK 923 INTER-LIGAND FREE ENERGY PREDICTED BY IDOCK:   -7.79 KCAL/MOL
REMARK 924 INTRA-LIGAND FREE ENERGY PREDICTED BY IDOCK:    0.28 KCAL/MOL
REMARK 927      BINDING AFFINITY PREDICTED BY RF-SCORE:    0.00 PKD
ROOT
HETATM    1  C   UNL     1     -12.033  13.138  68.078  1.00  0.00    -0.345 C  
HETATM    2  C   UNL     1     -11.761  14.062  69.139  1.00  0.00    -0.375 C  
HETATM    3  C   UNL     1     -10.601  13.324  68.552  1.00  0.00    -0.270 C  
HETATM    4  C   UNL     1     -10.748  12.605  67.141  1.00  0.00    -0.264 C  
HETATM    5  C   UNL     1     -10.054   8.629  68.878  1.00  0.00    -0.213 C  
HETATM    6  C   UNL     1     -10.626  13.939  67.062  1.00  0.00    -0.279 C  
HETATM    7  C   UNL     1     -11.120  15.071  66.204  1.00  0.00    -0.329 C  
HETATM    8  C   UNL     1      -9.791   9.723  69.924  1.00  0.00    -0.279 C  
HETATM    9  C   UNL     1      -8.856  13.410  67.246  1.00  0.00    -0.220 C  
HETATM   10  C   UNL     1      -8.363   9.545  70.501  1.00  0.00    -0.203 C  
HETATM   11  C   UNL     1      -8.678  11.813  68.203  1.00  0.00    -0.168 C  
HETATM   12  C   UNL     1      -9.963  11.171  69.287  1.00  0.00    -0.034 C  
HETATM   13  H   UNL     1      -7.687   8.401  73.724  1.00  0.00     0.000 HD 
HETATM   14  C   UNL     1     -11.683  11.436  68.891  1.00  0.00    -0.409 C  
HETATM   15  C   UNL     1      -8.166   8.223  71.258  1.00  0.00    -0.147 C  
HETATM   16  C   UNL     1     -12.497  11.254  70.181  1.00  0.00    -0.297 C  
HETATM   17  O   UNL     1      -8.574   8.706  73.575  1.00  0.00    -0.341 OA 
HETATM   18  C   UNL     1     -11.984  10.215  71.126  1.00  0.00    -0.480 C  
HETATM   19  C   UNL     1     -10.818   9.540  71.063  1.00  0.00    -0.423 C  
HETATM   20  C   UNL     1     -10.559   8.547  72.186  1.00  0.00    -0.419 C  
HETATM   21  C   UNL     1      -9.127   8.053  72.427  1.00  0.00    -0.192 C  
ENDROOT
BRANCH   4  22
HETATM   22  C   UNL     1     -10.476  11.860  65.817  1.00  0.00    -0.295 A  
HETATM   23  N   UNL     1     -10.298  11.970  63.331  1.00  0.00    -0.451 NA 
HETATM   24  C   UNL     1      -9.773  10.743  63.319  1.00  0.00    -0.355 A  
HETATM   25  C   UNL     1      -9.628   9.996  64.471  1.00  0.00    -0.346 A  
HETATM   26  C   UNL     1     -10.016  10.548  65.710  1.00  0.00    -0.318 A  
HETATM   27  C   UNL     1     -10.631  12.473  64.553  1.00  0.00    -0.336 A  
ENDBRANCH   4  22
TORSDOF 1
ENDMDL
MODEL        5
REMARK 921   NORMALIZED FREE ENERGY PREDICTED BY IDOCK:   -7.11 KCAL/MOL
REMARK 922        TOTAL FREE ENERGY PREDICTED BY IDOCK:   -7.35 KCAL/MOL
REMARK 923 INTER-LIGAND FREE ENERGY PREDICTED BY IDOCK:   -7.57 KCAL/MOL
REMARK 924 INTRA-LIGAND FREE ENERGY PREDICTED BY IDOCK:    0.22 KCAL/MOL
REMARK 927      BINDING AFFINITY PREDICTED BY RF-SCORE:    0.00 PKD
ROOT
HETATM    1  C   UNL     1     -10.820  12.629  64.576  1.00  0.00    -0.365 C  
HETATM    2  C   UNL     1     -12.137  12.100  64.374  1.00  0.00    -0.443 C  
HETATM    3  C   UNL     1     -11.841  12.730  65.697  1.00  0.00    -0.472 C  
HETATM    4  C   UNL     1     -10.574  13.679  65.860  1.00  0.00    -0.289 C  
HETATM    5  C   UNL     1      -8.692  10.985  68.777  1.00  0.00    -0.146 C  
HETATM    6  C   UNL     1     -11.603  14.251  65.216  1.00  0.00    -0.348 C  
HETATM    7  C   UNL     1     -11.834  15.244  64.111  1.00  0.00    -0.138 C  
HETATM    8  C   UNL     1     -10.127  10.526  68.474  1.00  0.00    -0.187 C  
HETATM    9  C   UNL     1     -12.105  14.466  66.991  1.00  0.00    -0.374 C  
HETATM   10  C   UNL     1     -10.918  10.409  69.802  1.00  0.00    -0.345 C  
HETATM   11  C   UNL     1     -11.422  13.124  68.100  1.00  0.00    -0.349 C  
HETATM   12  C   UNL     1     -10.847  11.537  67.478  1.00  0.00    -0.285 C  
HETATM   13  H   UNL     1     -11.859   7.383  71.254  1.00  0.00     0.000 HD 
HETATM   14  C   UNL     1     -10.072  11.432  65.874  1.00  0.00    -0.286 C  
HETATM   15  C   UNL     1     -10.359   9.344  70.758  1.00  0.00    -0.366 C  
HETATM   16  C   UNL     1     -10.157   9.971  65.403  1.00  0.00    -0.317 C  
HETATM   17  O   UNL     1     -11.612   7.338  70.338  1.00  0.00    -0.279 OA 
HETATM   18  C   UNL     1     -10.045   8.939  66.480  1.00  0.00    -0.356 C  
HETATM   19  C   UNL     1     -10.043   9.131  67.815  1.00  0.00    -0.253 C  
HETATM   20  C   UNL     1      -9.932   7.878  68.670  1.00  0.00    -0.201 C  
HETATM   21  C   UNL     1     -10.330   7.949  70.149  1.00  0.00    -0.215 C  
ENDROOT
BRANCH   4  22
HETATM   22  C   UNL     1      -9.522  14.674  66.392  1.00  0.00    -0.325 A  
HETATM   23  N   UNL     1      -7.369  15.024  67.602  1.00  0.00    -0.170 NA 
HETATM   24  C   UNL     1      -7.371  16.305  67.226  1.00  0.00    -0.182 A  
HETATM   25  C   UNL     1      -8.412  16.856  66.506  1.00  0.00    -0.307 A  
HETATM   26  C   UNL     1      -9.501  16.043  66.127  1.00  0.00    -0.371 A  
HETATM   27  C   UNL     1      -8.426  14.271  67.188  1.00  0.00    -0.200 A  
ENDBRANCH   4  22
TORSDOF 1
ENDMDL
MODEL        6
REMARK 921   NORMALIZED FREE ENERGY PREDICTED BY IDOCK:   -6.98 KCAL/MOL
REMARK 922        TOTAL FREE ENERGY PREDICTED BY IDOCK:   -7.21 KCAL/MOL
REMARK 923 INTER-LIGAND FREE ENERGY PREDICTED BY IDOCK:   -7.52 KCAL/MOL
REMARK 924 INTRA-LIGAND FREE ENERGY PREDICTED BY IDOCK:    0.31 KCAL/MOL
REMARK 927      BINDING AFFINITY PREDICTED BY RF-SCORE:    0.00 PKD
ROOT
HETATM    1  C   UNL     1     -10.875  12.645  64.612  1.00  0.00    -0.349 C  
HETATM    2  C   UNL     1     -12.188  12.099  64.436  1.00  0.00    -0.435 C  
HETATM    3  C   UNL     1     -11.866  12.709  65.763  1.00  0.00    -0.497 C  
HETATM    4  C   UNL     1     -10.610  13.675  65.909  1.00  0.00    -0.289 C  
HETATM    5  C   UNL     1      -8.605  10.958  68.721  1.00  0.00    -0.159 C  
HETATM    6  C   UNL     1     -11.665  14.242  65.305  1.00  0.00    -0.357 C  
HETATM    7  C   UNL     1     -11.943  15.251  64.225  1.00  0.00    -0.236 C  
HETATM    8  C   UNL     1     -10.041  10.481  68.448  1.00  0.00    -0.181 C  
HETATM    9  C   UNL     1     -12.121  14.416  67.096  1.00  0.00    -0.367 C  
HETATM   10  C   UNL     1     -10.792  10.326  69.795  1.00  0.00    -0.332 C  
HETATM   11  C   UNL     1     -11.386  13.064  68.160  1.00  0.00    -0.329 C  
HETATM   12  C   UNL     1     -10.804  11.498  67.492  1.00  0.00    -0.285 C  
HETATM   13  H   UNL     1     -11.645   7.258  71.214  1.00  0.00     0.000 HD 
HETATM   14  C   UNL     1     -10.072  11.436  65.866  1.00  0.00    -0.286 C  
HETATM   15  C   UNL     1     -10.191   9.252  70.715  1.00  0.00    -0.353 C  
HETATM   16  C   UNL     1     -10.146   9.984  65.370  1.00  0.00    -0.317 C  
HETATM   17  O   UNL     1     -11.423   7.235  70.291  1.00  0.00    -0.271 OA 
HETATM   18  C   UNL     1      -9.989   8.934  66.423  1.00  0.00    -0.354 C  
HETATM   19  C   UNL     1      -9.953   9.101  67.760  1.00  0.00    -0.236 C  
HETATM   20  C   UNL     1      -9.798   7.833  68.588  1.00  0.00    -0.174 C  
HETATM   21  C   UNL     1     -10.157   7.870  70.079  1.00  0.00    -0.199 C  
ENDROOT
BRANCH   4  22
HETATM   22  C   UNL     1      -9.560  14.677  66.431  1.00  0.00    -0.323 A  
HETATM   23  N   UNL     1      -8.554  16.955  66.274  1.00  0.00    -0.372 NA 
HETATM   24  C   UNL     1      -7.881  16.731  67.405  1.00  0.00    -0.171 A  
HETATM   25  C   UNL     1      -7.935  15.518  68.063  1.00  0.00    -0.138 A  
HETATM   26  C   UNL     1      -8.748  14.485  67.548  1.00  0.00    -0.195 A  
HETATM   27  C   UNL     1      -9.348  15.939  65.831  1.00  0.00    -0.318 A  
ENDBRANCH   4  22
TORSDOF 1
ENDMDL
MODEL        7
REMARK 921   NORMALIZED FREE ENERGY PREDICTED BY IDOCK:   -6.92 KCAL/MOL
REMARK 922        TOTAL FREE ENERGY PREDICTED BY IDOCK:   -7.15 KCAL/MOL
REMARK 923 INTER-LIGAND FREE ENERGY PREDICTED BY IDOCK:   -7.32 KCAL/MOL
REMARK 924 INTRA-LIGAND FREE ENERGY PREDICTED BY IDOCK:    0.17 KCAL/MOL
REMARK 927      BINDING AFFINITY PREDICTED BY RF-SCORE:    0.00 PKD
ROOT
HETATM    1  C   UNL     1     -10.903  10.475  65.778  1.00  0.00     0.049 C  
HETATM    2  C   UNL     1      -9.888  10.467  64.767  1.00  0.00    -0.387 C  
HETATM    3  C   UNL     1      -9.492  10.909  66.139  1.00  0.00    -0.230 C  
HETATM    4  C   UNL     1     -10.425  10.571  67.382  1.00  0.00    -0.291 C  
HETATM    5  C   UNL     1     -11.181  14.819  68.215  1.00  0.00    -0.299 C  
HETATM    6  C   UNL     1      -9.715   9.524  66.934  1.00  0.00    -0.237 C  
HETATM    7  C   UNL     1      -9.861   8.034  66.797  1.00  0.00    -0.327 C  
HETATM    8  C   UNL     1     -10.096  14.670  67.137  1.00  0.00    -0.244 C  
HETATM    9  C   UNL     1      -8.467  10.398  67.994  1.00  0.00    -0.119 C  
HETATM   10  C   UNL     1      -8.828  15.445  67.578  1.00  0.00    -0.190 C  
HETATM   11  C   UNL     1      -8.767  12.242  68.088  1.00  0.00    -0.186 C  
HETATM   12  C   UNL     1      -9.757  13.136  66.881  1.00  0.00    -0.243 C  
HETATM   13  H   UNL     1      -7.753  18.422  66.118  1.00  0.00     0.000 HD 
HETATM   14  C   UNL     1     -11.160  12.346  66.113  1.00  0.00    -0.340 C  
HETATM   15  C   UNL     1      -9.048  16.960  67.707  1.00  0.00    -0.229 C  
HETATM   16  C   UNL     1     -11.481  13.108  64.818  1.00  0.00    -0.355 C  
HETATM   17  O   UNL     1      -8.378  17.919  65.610  1.00  0.00    -0.434 OA 
HETATM   18  C   UNL     1     -11.245  14.584  64.863  1.00  0.00    -0.395 C  
HETATM   19  C   UNL     1     -10.640  15.297  65.834  1.00  0.00    -0.345 C  
HETATM   20  C   UNL     1     -10.531  16.796  65.593  1.00  0.00    -0.284 C  
HETATM   21  C   UNL     1      -9.521  17.609  66.414  1.00  0.00    -0.259 C  
ENDROOT
BRANCH   4  22
HETATM   22  C   UNL     1     -10.999  10.390  68.803  1.00  0.00    -0.287 A  
HETATM   23  N   UNL     1     -12.520  11.240  70.589  1.00  0.00    -0.352 NA 
HETATM   24  C   UNL     1     -12.347  10.105  71.269  1.00  0.00    -0.400 A  
HETATM   25  C   UNL     1     -11.491   9.112  70.836  1.00  0.00    -0.357 A  
HETATM   26  C   UNL     1     -10.793   9.280  69.621  1.00  0.00    -0.228 A  
HETATM   27  C   UNL     1     -11.848  11.345  69.408  1.00  0.00    -0.351 A  
ENDBRANCH   4  22
TORSDOF 1
ENDMDL
MODEL        8
REMARK 921   NORMALIZED FREE ENERGY PREDICTED BY IDOCK:   -6.91 KCAL/MOL
REMARK 922        TOTAL FREE ENERGY PREDICTED BY IDOCK:   -7.14 KCAL/MOL
REMARK 923 INTER-LIGAND FREE ENERGY PREDICTED BY IDOCK:   -7.48 KCAL/MOL
REMARK 924 INTRA-LIGAND FREE ENERGY PREDICTED BY IDOCK:    0.34 KCAL/MOL
REMARK 927      BINDING AFFINITY PREDICTED BY RF-SCORE:    0.00 PKD
ROOT
HETATM    1  C   UNL     1     -12.198  13.781  69.231  1.00  0.00    -0.307 C  
HETATM    2  C   UNL     1     -11.432  14.267  70.340  1.00  0.00    -0.188 C  
HETATM    3  C   UNL     1     -10.680  13.728  69.166  1.00  0.00    -0.154 C  
HETATM    4  C   UNL     1     -11.415  13.550  67.766  1.00  0.00    -0.349 C  
HETATM    5  C   UNL     1     -10.855   9.192  67.808  1.00  0.00    -0.159 C  
HETATM    6  C   UNL     1     -11.104  14.822  68.059  1.00  0.00    -0.294 C  
HETATM    7  C   UNL     1     -11.660  16.202  67.841  1.00  0.00    -0.000 C  
HETATM    8  C   UNL     1     -10.073   9.843  68.959  1.00  0.00    -0.199 C  
HETATM    9  C   UNL     1      -9.492  14.185  67.395  1.00  0.00    -0.220 C  
HETATM   10  C   UNL     1      -8.586   9.413  68.874  1.00  0.00    -0.131 C  
HETATM   11  C   UNL     1      -9.273  12.349  67.676  1.00  0.00    -0.185 C  
HETATM   12  C   UNL     1     -10.204  11.428  68.910  1.00  0.00    -0.184 C  
HETATM   13  H   UNL     1      -7.063   7.194  71.090  1.00  0.00     0.000 HD 
HETATM   14  C   UNL     1     -11.885  11.889  69.290  1.00  0.00    -0.379 C  
HETATM   15  C   UNL     1      -8.371   7.903  69.058  1.00  0.00    -0.130 C  
HETATM   16  C   UNL     1     -12.234  11.307  70.669  1.00  0.00    -0.489 C  
HETATM   17  O   UNL     1      -7.883   7.571  71.386  1.00  0.00    -0.091 OA 
HETATM   18  C   UNL     1     -11.615   9.983  70.985  1.00  0.00    -0.476 C  
HETATM   19  C   UNL     1     -10.670   9.322  70.285  1.00  0.00    -0.284 C  
HETATM   20  C   UNL     1     -10.218   7.990  70.866  1.00  0.00    -0.213 C  
HETATM   21  C   UNL     1      -8.894   7.382  70.389  1.00  0.00    -0.149 C  
ENDROOT
BRANCH   4  22
HETATM   22  C   UNL     1     -11.736  13.300  66.277  1.00  0.00    -0.412 A  
HETATM   23  N   UNL     1     -12.557  14.223  64.110  1.00  0.00    -0.708 NA 
HETATM   24  C   UNL     1     -12.152  13.113  63.489  1.00  0.00    -0.514 A  
HETATM   25  C   UNL     1     -11.603  12.047  64.175  1.00  0.00    -0.460 A  
HETATM   26  C   UNL     1     -11.434  12.135  65.573  1.00  0.00    -0.394 A  
HETATM   27  C   UNL     1     -12.347  14.274  65.456  1.00  0.00    -0.408 A  
ENDBRANCH   4  22
TORSDOF 1
ENDMDL
MODEL        9
REMARK 921   NORMALIZED FREE ENERGY PREDICTED BY IDOCK:   -6.91 KCAL/MOL
REMARK 922        TOTAL FREE ENERGY PREDICTED BY IDOCK:   -7.14 KCAL/MOL
REMARK 923 INTER-LIGAND FREE ENERGY PREDICTED BY IDOCK:   -7.53 KCAL/MOL
REMARK 924 INTRA-LIGAND FREE ENERGY PREDICTED BY IDOCK:    0.40 KCAL/MOL
REMARK 927      BINDING AFFINITY PREDICTED BY RF-SCORE:    0.00 PKD
ROOT
HETATM    1  C   UNL     1      -8.211  12.957  67.229  1.00  0.00    -0.176 C  
HETATM    2  C   UNL     1      -7.435  12.446  68.320  1.00  0.00    -0.124 C  
HETATM    3  C   UNL     1      -8.845  11.966  68.192  1.00  0.00    -0.178 C  
HETATM    4  C   UNL     1      -9.628  12.159  66.821  1.00  0.00    -0.216 C  
HETATM    5  C   UNL     1     -12.619  14.790  68.676  1.00  0.00     0.360 C  
HETATM    6  C   UNL     1      -8.725  11.168  66.797  1.00  0.00    -0.157 C  
HETATM    7  C   UNL     1      -7.776  10.525  65.823  1.00  0.00    -0.145 C  
HETATM    8  C   UNL     1     -11.714  14.168  69.751  1.00  0.00    -0.370 C  
HETATM    9  C   UNL     1     -10.172  10.337  67.610  1.00  0.00    -0.247 C  
HETATM   10  C   UNL     1     -12.594  13.450  70.806  1.00  0.00    -0.369 C  
HETATM   11  C   UNL     1     -11.249  11.535  68.559  1.00  0.00    -0.315 C  
HETATM   12  C   UNL     1     -10.676  13.152  69.100  1.00  0.00    -0.072 C  
HETATM   13  H   UNL     1     -13.100  14.622  74.050  1.00  0.00     0.000 HD 
HETATM   14  C   UNL     1      -9.507  14.065  68.107  1.00  0.00    -0.215 C  
HETATM   15  C   UNL     1     -13.524  14.398  71.578  1.00  0.00    -0.443 C  
HETATM   16  C   UNL     1      -8.831  15.107  69.013  1.00  0.00    -0.219 C  
HETATM   17  O   UNL     1     -12.358  14.996  73.590  1.00  0.00    -0.488 OA 
HETATM   18  C   UNL     1      -9.701  15.698  70.076  1.00  0.00    -0.021 C  
HETATM   19  C   UNL     1     -10.943  15.317  70.438  1.00  0.00    -0.317 C  
HETATM   20  C   UNL     1     -11.579  16.104  71.574  1.00  0.00    -0.502 C  
HETATM   21  C   UNL     1     -12.777  15.500  72.317  1.00  0.00    -0.400 C  
ENDROOT
BRANCH   4  22
HETATM   22  C   UNL     1     -10.670  12.100  65.684  1.00  0.00    -0.312 A  
HETATM   23  N   UNL     1     -12.933  12.748  64.858  1.00  0.00    -0.853 NA 
HETATM   24  C   UNL     1     -12.606  12.318  63.638  1.00  0.00    -0.490 A  
HETATM   25  C   UNL     1     -11.390  11.721  63.372  1.00  0.00    -0.437 A  
HETATM   26  C   UNL     1     -10.443  11.583  64.409  1.00  0.00    -0.380 A  
HETATM   27  C   UNL     1     -11.976  12.620  65.821  1.00  0.00    -0.446 A  
ENDBRANCH   4  22
TORSDOF 1
ENDMDL
MODEL       10
REMARK 921   NORMALIZED FREE ENERGY PREDICTED BY IDOCK:   -6.87 KCAL/MOL
REMARK 922        TOTAL FREE ENERGY PREDICTED BY IDOCK:   -7.09 KCAL/MOL
REMARK 923 INTER-LIGAND FREE ENERGY PREDICTED BY IDOCK:   -7.26 KCAL/MOL
REMARK 924 INTRA-LIGAND FREE ENERGY PREDICTED BY IDOCK:    0.17 KCAL/MOL
REMARK 927      BINDING AFFINITY PREDICTED BY RF-SCORE:    0.00 PKD
ROOT
HETATM    1  C   UNL     1     -11.840   7.876  72.313  1.00  0.00    -0.404 C  
HETATM    2  C   UNL     1     -13.154   7.602  71.813  1.00  0.00    -0.359 C  
HETATM    3  C   UNL     1     -11.999   7.319  70.908  1.00  0.00    -0.342 C  
HETATM    4  C   UNL     1     -10.529   7.210  71.506  1.00  0.00    -0.221 C  
HETATM    5  C   UNL     1      -9.127  10.681  69.205  1.00  0.00    -0.152 C  
HETATM    6  C   UNL     1     -11.295   6.134  71.745  1.00  0.00    -0.346 C  
HETATM    7  C   UNL     1     -11.490   5.100  72.819  1.00  0.00    -0.284 C  
HETATM    8  C   UNL     1     -10.541  10.278  68.758  1.00  0.00    -0.231 C  
HETATM    9  C   UNL     1     -10.712   5.803  70.014  1.00  0.00    -0.400 C  
HETATM   10  C   UNL     1     -10.545  10.042  67.225  1.00  0.00    -0.319 C  
HETATM   11  C   UNL     1     -10.361   7.373  69.060  1.00  0.00    -0.214 C  
HETATM   12  C   UNL     1     -11.031   8.975  69.528  1.00  0.00    -0.118 C  
HETATM   13  H   UNL     1     -12.051  12.183  64.923  1.00  0.00     0.000 HD 
HETATM   14  C   UNL     1     -11.280   9.372  71.251  1.00  0.00    -0.437 C  
HETATM   15  C   UNL     1     -10.219  11.302  66.409  1.00  0.00    -0.273 C  
HETATM   16  C   UNL     1     -12.293  10.524  71.328  1.00  0.00    -0.502 C  
HETATM   17  O   UNL     1     -12.328  12.291  65.825  1.00  0.00    -0.622 OA 
HETATM   18  C   UNL     1     -12.218  11.524  70.218  1.00  0.00    -0.415 C  
HETATM   19  C   UNL     1     -11.489  11.453  69.086  1.00  0.00    -0.365 C  
HETATM   20  C   UNL     1     -11.629  12.625  68.127  1.00  0.00    -0.386 C  
HETATM   21  C   UNL     1     -11.182  12.451  66.670  1.00  0.00    -0.315 C  
ENDROOT
BRANCH   4  22
HETATM   22  C   UNL     1      -9.017   6.971  71.697  1.00  0.00    -0.134 A  
HETATM   23  N   UNL     1      -6.729   7.951  71.865  1.00  0.00    -0.055 NA 
HETATM   24  C   UNL     1      -6.258   6.771  72.273  1.00  0.00    -0.045 A  
HETATM   25  C   UNL     1      -7.060   5.650  72.357  1.00  0.00    -0.084 A  
HETATM   26  C   UNL     1      -8.430   5.751  72.031  1.00  0.00    -0.126 A  
HETATM   27  C   UNL     1      -8.063   8.007  71.589  1.00  0.00    -0.114 A  
ENDBRANCH   4  22
TORSDOF 1
ENDMDL
MODEL       11
REMARK 921   NORMALIZED FREE ENERGY PREDICTED BY IDOCK:   -6.85 KCAL/MOL
REMARK 922        TOTAL FREE ENERGY PREDICTED BY IDOCK:   -7.07 KCAL/MOL
REMARK 923 INTER-LIGAND FREE ENERGY PREDICTED BY IDOCK:   -7.34 KCAL/MOL
REMARK 924 INTRA-LIGAND FREE ENERGY PREDICTED BY IDOCK:    0.27 KCAL/MOL
REMARK 927      BINDING AFFINITY PREDICTED BY RF-SCORE:    0.00 PKD
ROOT
HETATM    1  C   UNL     1     -11.553  10.830  70.827  1.00  0.00    -0.322 C  
HETATM    2  C   UNL     1     -12.926  10.499  70.587  1.00  0.00    -0.362 C  
HETATM    3  C   UNL     1     -11.896   9.813  69.750  1.00  0.00     0.064 C  
HETATM    4  C   UNL     1     -10.372   9.812  70.208  1.00  0.00    -0.348 C  
HETATM    5  C   UNL     1      -9.104  12.079  66.664  1.00  0.00    -0.205 C  
HETATM    6  C   UNL     1     -11.149   8.963  70.899  1.00  0.00    -0.328 C  
HETATM    7  C   UNL     1     -11.261   8.411  72.293  1.00  0.00    -0.446 C  
HETATM    8  C   UNL     1     -10.576  11.656  66.531  1.00  0.00    -0.292 C  
HETATM    9  C   UNL     1     -10.782   7.977  69.369  1.00  0.00    -0.167 C  
HETATM   10  C   UNL     1     -10.765  10.878  65.203  1.00  0.00    -0.209 C  
HETATM   11  C   UNL     1     -10.480   9.057  67.872  1.00  0.00    -0.291 C  
HETATM   12  C   UNL     1     -11.026  10.768  67.772  1.00  0.00    -0.354 C  
HETATM   13  H   UNL     1     -12.438  12.145  62.419  1.00  0.00     0.000 HD 
HETATM   14  C   UNL     1     -11.058  11.784  69.238  1.00  0.00    -0.278 C  
HETATM   15  C   UNL     1     -10.484  11.723  63.950  1.00  0.00    -0.437 C  
HETATM   16  C   UNL     1     -12.008  12.963  68.975  1.00  0.00    -0.297 C  
HETATM   17  O   UNL     1     -12.604  12.597  63.238  1.00  0.00    -0.669 OA 
HETATM   18  C   UNL     1     -12.021  13.480  67.572  1.00  0.00    -0.385 C  
HETATM   19  C   UNL     1     -11.430  12.942  66.485  1.00  0.00    -0.390 C  
HETATM   20  C   UNL     1     -11.632  13.691  65.176  1.00  0.00    -0.333 C  
HETATM   21  C   UNL     1     -11.364  12.961  63.853  1.00  0.00    -0.436 C  
ENDROOT
BRANCH   4  22
HETATM   22  C   UNL     1      -8.859   9.538  70.335  1.00  0.00    -0.279 A  
HETATM   23  N   UNL     1      -6.544  10.083  69.579  1.00  0.00    -0.049 NA 
HETATM   24  C   UNL     1      -6.051   9.362  70.588  1.00  0.00    -0.065 A  
HETATM   25  C   UNL     1      -6.864   8.661  71.456  1.00  0.00    -0.085 A  
HETATM   26  C   UNL     1      -8.265   8.725  71.299  1.00  0.00    -0.212 A  
HETATM   27  C   UNL     1      -7.903  10.138  69.485  1.00  0.00    -0.162 A  
ENDBRANCH   4  22
TORSDOF 1
ENDMDL
MODEL       12
REMARK 921   NORMALIZED FREE ENERGY PREDICTED BY IDOCK:   -6.81 KCAL/MOL
REMARK 922        TOTAL FREE ENERGY PREDICTED BY IDOCK:   -7.04 KCAL/MOL
REMARK 923 INTER-LIGAND FREE ENERGY PREDICTED BY IDOCK:   -7.21 KCAL/MOL
REMARK 924 INTRA-LIGAND FREE ENERGY PREDICTED BY IDOCK:    0.18 KCAL/MOL
REMARK 927      BINDING AFFINITY PREDICTED BY RF-SCORE:    0.00 PKD
ROOT
HETATM    1  C   UNL     1     -11.839   8.084  72.280  1.00  0.00    -0.424 C  
HETATM    2  C   UNL     1     -13.165   7.807  71.813  1.00  0.00    -0.354 C  
HETATM    3  C   UNL     1     -12.031   7.500  70.889  1.00  0.00    -0.278 C  
HETATM    4  C   UNL     1     -10.549   7.395  71.459  1.00  0.00    -0.226 C  
HETATM    5  C   UNL     1      -9.179  10.814  69.061  1.00  0.00    -0.157 C  
HETATM    6  C   UNL     1     -11.314   6.329  71.734  1.00  0.00    -0.346 C  
HETATM    7  C   UNL     1     -11.491   5.317  72.833  1.00  0.00    -0.339 C  
HETATM    8  C   UNL     1     -10.605  10.410  68.652  1.00  0.00    -0.234 C  
HETATM    9  C   UNL     1     -10.768   5.961  69.999  1.00  0.00    -0.396 C  
HETATM   10  C   UNL     1     -10.641  10.144  67.125  1.00  0.00    -0.308 C  
HETATM   11  C   UNL     1     -10.431   7.510  69.007  1.00  0.00    -0.216 C  
HETATM   12  C   UNL     1     -11.084   9.124  69.458  1.00  0.00    -0.068 C  
HETATM   13  H   UNL     1     -12.186  12.246  64.813  1.00  0.00     0.000 HD 
HETATM   14  C   UNL     1     -11.295   9.556  71.177  1.00  0.00    -0.440 C  
HETATM   15  C   UNL     1     -10.327  11.386  66.277  1.00  0.00    -0.287 C  
HETATM   16  C   UNL     1     -12.301  10.714  71.252  1.00  0.00    -0.488 C  
HETATM   17  O   UNL     1     -12.443  12.374  65.718  1.00  0.00    -0.615 OA 
HETATM   18  C   UNL     1     -12.245  11.692  70.122  1.00  0.00    -0.367 C  
HETATM   19  C   UNL     1     -11.540  11.596  68.977  1.00  0.00    -0.379 C  
HETATM   20  C   UNL     1     -11.695  12.749  67.998  1.00  0.00    -0.405 C  
HETATM   21  C   UNL     1     -11.280  12.545  66.535  1.00  0.00    -0.307 C  
ENDROOT
BRANCH   4  22
HETATM   22  C   UNL     1      -9.034   7.153  71.623  1.00  0.00    -0.136 A  
HETATM   23  N   UNL     1      -7.180   5.513  71.941  1.00  0.00    -0.085 NA 
HETATM   24  C   UNL     1      -6.291   6.477  71.693  1.00  0.00    -0.042 A  
HETATM   25  C   UNL     1      -6.671   7.786  71.471  1.00  0.00    -0.046 A  
HETATM   26  C   UNL     1      -8.042   8.121  71.475  1.00  0.00    -0.141 A  
HETATM   27  C   UNL     1      -8.493   5.878  71.906  1.00  0.00    -0.126 A  
ENDBRANCH   4  22
TORSDOF 1
ENDMDL
MODEL       13
REMARK 921   NORMALIZED FREE ENERGY PREDICTED BY IDOCK:   -6.81 KCAL/MOL
REMARK 922        TOTAL FREE ENERGY PREDICTED BY IDOCK:   -7.03 KCAL/MOL
REMARK 923 INTER-LIGAND FREE ENERGY PREDICTED BY IDOCK:   -7.21 KCAL/MOL
REMARK 924 INTRA-LIGAND FREE ENERGY PREDICTED BY IDOCK:    0.18 KCAL/MOL
REMARK 927      BINDING AFFINITY PREDICTED BY RF-SCORE:    0.00 PKD
ROOT
HETATM    1  C   UNL     1     -10.535   9.858  66.213  1.00  0.00    -0.171 C  
HETATM    2  C   UNL     1      -9.363   9.864  65.388  1.00  0.00    -0.297 C  
HETATM    3  C   UNL     1      -9.239  10.432  66.765  1.00  0.00    -0.176 C  
HETATM    4  C   UNL     1     -10.346  10.107  67.861  1.00  0.00    -0.234 C  
HETATM    5  C   UNL     1     -11.527  14.326  68.200  1.00  0.00    -0.336 C  
HETATM    6  C   UNL     1      -9.498   9.094  67.626  1.00  0.00    -0.164 C  
HETATM    7  C   UNL     1      -9.515   7.590  67.591  1.00  0.00    -0.159 C  
HETATM    8  C   UNL     1     -10.266  14.191  67.332  1.00  0.00    -0.244 C  
HETATM    9  C   UNL     1      -8.514  10.140  68.801  1.00  0.00    -0.131 C  
HETATM   10  C   UNL     1      -9.149  15.098  67.911  1.00  0.00    -0.179 C  
HETATM   11  C   UNL     1      -8.953  11.955  68.689  1.00  0.00    -0.044 C  
HETATM   12  C   UNL     1      -9.782  12.677  67.265  1.00  0.00    -0.207 C  
HETATM   13  H   UNL     1      -8.049  18.043  66.404  1.00  0.00     0.000 HD 
HETATM   14  C   UNL     1     -10.975  11.721  66.344  1.00  0.00    -0.341 C  
HETATM   15  C   UNL     1      -9.493  16.595  67.874  1.00  0.00    -0.225 C  
HETATM   16  C   UNL     1     -11.121  12.361  64.955  1.00  0.00    -0.344 C  
HETATM   17  O   UNL     1      -8.542  17.456  65.844  1.00  0.00    -0.525 OA 
HETATM   18  C   UNL     1     -11.000  13.851  64.915  1.00  0.00    -0.391 C  
HETATM   19  C   UNL     1     -10.621  14.678  65.910  1.00  0.00    -0.319 C  
HETATM   20  C   UNL     1     -10.577  16.160  65.566  1.00  0.00    -0.394 C  
HETATM   21  C   UNL     1      -9.782  17.110  66.471  1.00  0.00    -0.287 C  
ENDROOT
BRANCH   4  22
HETATM   22  C   UNL     1     -11.141   9.980  69.178  1.00  0.00    -0.232 A  
HETATM   23  N   UNL     1     -11.569   8.691  71.270  1.00  0.00    -0.273 NA 
HETATM   24  C   UNL     1     -12.309   9.700  71.735  1.00  0.00    -0.392 A  
HETATM   25  C   UNL     1     -12.565  10.829  70.983  1.00  0.00    -0.520 A  
HETATM   26  C   UNL     1     -12.008  10.944  69.691  1.00  0.00    -0.414 A  
HETATM   27  C   UNL     1     -11.028   8.859  70.030  1.00  0.00    -0.206 A  
ENDBRANCH   4  22
TORSDOF 1
ENDMDL
MODEL       14
REMARK 921   NORMALIZED FREE ENERGY PREDICTED BY IDOCK:   -6.69 KCAL/MOL
REMARK 922        TOTAL FREE ENERGY PREDICTED BY IDOCK:   -6.91 KCAL/MOL
REMARK 923 INTER-LIGAND FREE ENERGY PREDICTED BY IDOCK:   -7.15 KCAL/MOL
REMARK 924 INTRA-LIGAND FREE ENERGY PREDICTED BY IDOCK:    0.24 KCAL/MOL
REMARK 927      BINDING AFFINITY PREDICTED BY RF-SCORE:    0.00 PKD
ROOT
HETATM    1  C   UNL     1     -11.657  10.420  71.175  1.00  0.00    -0.315 C  
HETATM    2  C   UNL     1     -13.005  10.046  70.864  1.00  0.00    -0.397 C  
HETATM    3  C   UNL     1     -11.908   9.348  70.127  1.00  0.00     0.021 C  
HETATM    4  C   UNL     1     -10.418   9.403  70.681  1.00  0.00    -0.354 C  
HETATM    5  C   UNL     1      -8.969  11.537  67.124  1.00  0.00    -0.166 C  
HETATM    6  C   UNL     1     -11.220   8.568  71.359  1.00  0.00    -0.327 C  
HETATM    7  C   UNL     1     -11.411   8.078  72.768  1.00  0.00    -0.439 C  
HETATM    8  C   UNL     1     -10.420  11.074  66.916  1.00  0.00    -0.293 C  
HETATM    9  C   UNL     1     -10.735   7.523  69.904  1.00  0.00    -0.254 C  
HETATM   10  C   UNL     1     -10.507  10.233  65.617  1.00  0.00    -0.152 C  
HETATM   11  C   UNL     1     -10.358   8.541  68.381  1.00  0.00    -0.241 C  
HETATM   12  C   UNL     1     -10.932  10.233  68.166  1.00  0.00    -0.328 C  
HETATM   13  H   UNL     1     -12.021  11.333  62.676  1.00  0.00     0.000 HD 
HETATM   14  C   UNL     1     -11.080  11.313  69.579  1.00  0.00    -0.299 C  
HETATM   15  C   UNL     1     -10.163  11.026  64.347  1.00  0.00    -0.409 C  
HETATM   16  C   UNL     1     -12.035  12.456  69.200  1.00  0.00    -0.291 C  
HETATM   17  O   UNL     1     -12.250  11.817  63.460  1.00  0.00    -0.500 OA 
HETATM   18  C   UNL     1     -11.967  12.909  67.776  1.00  0.00    -0.336 C  
HETATM   19  C   UNL     1     -11.296  12.336  66.756  1.00  0.00    -0.395 C  
HETATM   20  C   UNL     1     -11.428  13.020  65.403  1.00  0.00    -0.344 C  
HETATM   21  C   UNL     1     -11.059  12.238  64.136  1.00  0.00    -0.366 C  
ENDROOT
BRANCH   4  22
HETATM   22  C   UNL     1      -8.910   9.171  70.917  1.00  0.00    -0.292 A  
HETATM   23  N   UNL     1      -6.564   9.794  70.344  1.00  0.00    -0.100 NA 
HETATM   24  C   UNL     1      -6.125   9.072  71.377  1.00  0.00    -0.065 A  
HETATM   25  C   UNL     1      -6.979   8.335  72.172  1.00  0.00    -0.098 A  
HETATM   26  C   UNL     1      -8.366   8.361  71.912  1.00  0.00    -0.223 A  
HETATM   27  C   UNL     1      -7.913   9.812  70.149  1.00  0.00    -0.186 A  
ENDBRANCH   4  22
TORSDOF 1
ENDMDL
MODEL       15
REMARK 921   NORMALIZED FREE ENERGY PREDICTED BY IDOCK:   -6.43 KCAL/MOL
REMARK 922        TOTAL FREE ENERGY PREDICTED BY IDOCK:   -6.63 KCAL/MOL
REMARK 923 INTER-LIGAND FREE ENERGY PREDICTED BY IDOCK:   -6.88 KCAL/MOL
REMARK 924 INTRA-LIGAND FREE ENERGY PREDICTED BY IDOCK:    0.25 KCAL/MOL
REMARK 927      BINDING AFFINITY PREDICTED BY RF-SCORE:    0.00 PKD
ROOT
HETATM    1  C   UNL     1      -9.099  14.745  68.312  1.00  0.00    -0.183 C  
HETATM    2  C   UNL     1      -8.686  14.844  66.943  1.00  0.00    -0.276 C  
HETATM    3  C   UNL     1      -9.984  14.158  67.224  1.00  0.00    -0.249 C  
HETATM    4  C   UNL     1     -10.699  14.355  68.631  1.00  0.00    -0.258 C  
HETATM    5  C   UNL     1     -10.323  10.094  69.637  1.00  0.00    -0.278 C  
HETATM    6  C   UNL     1     -10.820  15.407  67.807  1.00  0.00    -0.302 C  
HETATM    7  C   UNL     1     -10.898  16.906  67.890  1.00  0.00    -0.310 C  
HETATM    8  C   UNL     1      -9.908  10.338  68.177  1.00  0.00    -0.166 C  
HETATM    9  C   UNL     1     -12.160  14.285  67.183  1.00  0.00    -0.412 C  
HETATM   10  C   UNL     1     -10.736   9.412  67.250  1.00  0.00    -0.258 C  
HETATM   11  C   UNL     1     -11.777  12.477  67.470  1.00  0.00    -0.439 C  
HETATM   12  C   UNL     1     -10.114  11.864  67.776  1.00  0.00    -0.200 C  
HETATM   13  H   UNL     1      -9.430   6.642  65.584  1.00  0.00     0.000 HD 
HETATM   14  C   UNL     1      -8.941  12.868  68.673  1.00  0.00     0.048 C  
HETATM   15  C   UNL     1     -10.479   7.916  67.486  1.00  0.00    -0.332 C  
HETATM   16  C   UNL     1      -7.531  12.352  68.346  1.00  0.00    -0.123 C  
HETATM   17  O   UNL     1      -8.790   7.265  65.908  1.00  0.00    -0.158 OA 
HETATM   18  C   UNL     1      -7.417  10.875  68.141  1.00  0.00    -0.091 C  
HETATM   19  C   UNL     1      -8.413   9.971  68.047  1.00  0.00    -0.117 C  
HETATM   20  C   UNL     1      -7.988   8.528  67.821  1.00  0.00    -0.107 C  
HETATM   21  C   UNL     1      -9.021   7.522  67.298  1.00  0.00    -0.124 C  
ENDROOT
BRANCH   4  22
HETATM   22  C   UNL     1     -11.704  14.343  69.802  1.00  0.00    -0.361 A  
HETATM   23  N   UNL     1     -13.382  15.598  71.157  1.00  0.00    -0.565 NA 
HETATM   24  C   UNL     1     -13.760  14.456  71.736  1.00  0.00    -0.421 A  
HETATM   25  C   UNL     1     -13.138  13.254  71.465  1.00  0.00    -0.414 A  
HETATM   26  C   UNL     1     -12.086  13.214  70.524  1.00  0.00    -0.385 A  
HETATM   27  C   UNL     1     -12.383  15.505  70.234  1.00  0.00    -0.396 A  
ENDBRANCH   4  22
TORSDOF 1
ENDMDL
MODEL       16
REMARK 921   NORMALIZED FREE ENERGY PREDICTED BY IDOCK:   -6.34 KCAL/MOL
REMARK 922        TOTAL FREE ENERGY PREDICTED BY IDOCK:   -6.54 KCAL/MOL
REMARK 923 INTER-LIGAND FREE ENERGY PREDICTED BY IDOCK:   -6.81 KCAL/MOL
REMARK 924 INTRA-LIGAND FREE ENERGY PREDICTED BY IDOCK:    0.27 KCAL/MOL
REMARK 927      BINDING AFFINITY PREDICTED BY RF-SCORE:    0.00 PKD
ROOT
HETATM    1  C   UNL     1      -9.042  14.955  68.017  1.00  0.00    -0.180 C  
HETATM    2  C   UNL     1      -8.711  15.074  66.628  1.00  0.00    -0.289 C  
HETATM    3  C   UNL     1      -9.982  14.368  66.977  1.00  0.00    -0.257 C  
HETATM    4  C   UNL     1     -10.615  14.541  68.426  1.00  0.00    -0.244 C  
HETATM    5  C   UNL     1     -10.126  10.275  69.360  1.00  0.00    -0.255 C  
HETATM    6  C   UNL     1     -10.798  15.599  67.622  1.00  0.00    -0.307 C  
HETATM    7  C   UNL     1     -10.889  17.097  67.727  1.00  0.00    -0.270 C  
HETATM    8  C   UNL     1      -9.802  10.540  67.881  1.00  0.00    -0.181 C  
HETATM    9  C   UNL     1     -12.158  14.466  67.066  1.00  0.00    -0.374 C  
HETATM   10  C   UNL     1     -10.672   9.612  66.993  1.00  0.00    -0.225 C  
HETATM   11  C   UNL     1     -11.736  12.661  67.309  1.00  0.00    -0.435 C  
HETATM   12  C   UNL     1     -10.050  12.067  67.510  1.00  0.00    -0.205 C  
HETATM   13  H   UNL     1      -9.431   6.878  65.222  1.00  0.00     0.000 HD 
HETATM   14  C   UNL     1      -8.839  13.077  68.347  1.00  0.00    -0.123 C  
HETATM   15  C   UNL     1     -10.382   8.117  67.197  1.00  0.00    -0.391 C  
HETATM   16  C   UNL     1      -7.444  12.583  67.932  1.00  0.00    -0.120 C  
HETATM   17  O   UNL     1      -8.781   7.506  65.515  1.00  0.00    -0.127 OA 
HETATM   18  C   UNL     1      -7.324  11.110  67.704  1.00  0.00    -0.095 C  
HETATM   19  C   UNL     1      -8.313  10.194  67.659  1.00  0.00    -0.114 C  
HETATM   20  C   UNL     1      -7.883   8.759  67.391  1.00  0.00    -0.098 C  
HETATM   21  C   UNL     1      -8.932   7.745  66.919  1.00  0.00    -0.134 C  
ENDROOT
BRANCH   4  22
HETATM   22  C   UNL     1     -11.549  14.503  69.654  1.00  0.00    -0.346 A  
HETATM   23  N   UNL     1     -13.095  15.743  71.169  1.00  0.00    -0.515 NA 
HETATM   24  C   UNL     1     -13.481  14.587  71.713  1.00  0.00    -0.375 A  
HETATM   25  C   UNL     1     -12.922  13.380  71.345  1.00  0.00    -0.412 A  
HETATM   26  C   UNL     1     -11.930  13.352  70.341  1.00  0.00    -0.358 A  
HETATM   27  C   UNL     1     -12.156  15.663  70.184  1.00  0.00    -0.377 A  
ENDBRANCH   4  22
TORSDOF 1
ENDMDL
MODEL       17
REMARK 921   NORMALIZED FREE ENERGY PREDICTED BY IDOCK:   -6.34 KCAL/MOL
REMARK 922        TOTAL FREE ENERGY PREDICTED BY IDOCK:   -6.53 KCAL/MOL
REMARK 923 INTER-LIGAND FREE ENERGY PREDICTED BY IDOCK:   -6.87 KCAL/MOL
REMARK 924 INTRA-LIGAND FREE ENERGY PREDICTED BY IDOCK:    0.33 KCAL/MOL
REMARK 927      BINDING AFFINITY PREDICTED BY RF-SCORE:    0.00 PKD
ROOT
HETATM    1  C   UNL     1      -9.083  14.867  68.253  1.00  0.00    -0.179 C  
HETATM    2  C   UNL     1      -8.642  15.010  66.897  1.00  0.00    -0.280 C  
HETATM    3  C   UNL     1      -9.947  14.320  67.128  1.00  0.00    -0.255 C  
HETATM    4  C   UNL     1     -10.690  14.472  68.527  1.00  0.00    -0.253 C  
HETATM    5  C   UNL     1     -10.347  10.178  69.395  1.00  0.00    -0.251 C  
HETATM    6  C   UNL     1     -10.791  15.552  67.736  1.00  0.00    -0.309 C  
HETATM    7  C   UNL     1     -10.866  17.048  67.869  1.00  0.00    -0.302 C  
HETATM    8  C   UNL     1      -9.902  10.470  67.953  1.00  0.00    -0.181 C  
HETATM    9  C   UNL     1     -12.122  14.456  67.048  1.00  0.00    -0.374 C  
HETATM   10  C   UNL     1     -10.714   9.579  66.978  1.00  0.00    -0.220 C  
HETATM   11  C   UNL     1     -11.750  12.638  67.282  1.00  0.00    -0.435 C  
HETATM   12  C   UNL     1     -10.095  12.009  67.600  1.00  0.00    -0.205 C  
HETATM   13  H   UNL     1      -9.383   6.862  65.246  1.00  0.00     0.000 HD 
HETATM   14  C   UNL     1      -8.937  12.978  68.553  1.00  0.00    -0.048 C  
HETATM   15  C   UNL     1     -10.466   8.074  67.169  1.00  0.00    -0.408 C  
HETATM   16  C   UNL     1      -7.523  12.468  68.237  1.00  0.00    -0.122 C  
HETATM   17  O   UNL     1      -8.748   7.471  65.603  1.00  0.00    -0.144 OA 
HETATM   18  C   UNL     1      -7.409  10.998  67.984  1.00  0.00    -0.088 C  
HETATM   19  C   UNL     1      -8.406  10.102  67.840  1.00  0.00    -0.117 C  
HETATM   20  C   UNL     1      -7.981   8.666  67.573  1.00  0.00    -0.106 C  
HETATM   21  C   UNL     1      -9.006   7.682  66.996  1.00  0.00    -0.133 C  
ENDROOT
BRANCH   4  22
HETATM   22  C   UNL     1     -11.718  14.424  69.676  1.00  0.00    -0.362 A  
HETATM   23  N   UNL     1     -12.855  13.071  71.437  1.00  0.00    -0.344 NA 
HETATM   24  C   UNL     1     -13.369  14.188  71.957  1.00  0.00    -0.415 A  
HETATM   25  C   UNL     1     -13.169  15.426  71.379  1.00  0.00    -0.578 A  
HETATM   26  C   UNL     1     -12.373  15.529  70.218  1.00  0.00    -0.431 A  
HETATM   27  C   UNL     1     -12.070  13.224  70.333  1.00  0.00    -0.327 A  
ENDBRANCH   4  22
TORSDOF 1
ENDMDL
MODEL       18
REMARK 921   NORMALIZED FREE ENERGY PREDICTED BY IDOCK:   -6.30 KCAL/MOL
REMARK 922        TOTAL FREE ENERGY PREDICTED BY IDOCK:   -6.49 KCAL/MOL
REMARK 923 INTER-LIGAND FREE ENERGY PREDICTED BY IDOCK:   -6.67 KCAL/MOL
REMARK 924 INTRA-LIGAND FREE ENERGY PREDICTED BY IDOCK:    0.18 KCAL/MOL
REMARK 927      BINDING AFFINITY PREDICTED BY RF-SCORE:    0.00 PKD
ROOT
HETATM    1  C   UNL     1     -11.910  11.758  68.196  1.00  0.00    -0.324 C  
HETATM    2  C   UNL     1     -11.948  12.709  69.267  1.00  0.00    -0.301 C  
HETATM    3  C   UNL     1     -10.687  12.619  68.470  1.00  0.00    -0.271 C  
HETATM    4  C   UNL     1     -10.695  11.904  67.048  1.00  0.00    -0.280 C  
HETATM    5  C   UNL     1      -7.914   8.778  68.389  1.00  0.00    -0.109 C  
HETATM    6  C   UNL     1     -11.242  13.129  67.044  1.00  0.00    -0.325 C  
HETATM    7  C   UNL     1     -12.348  13.873  66.347  1.00  0.00    -0.468 C  
HETATM    8  C   UNL     1      -8.043   9.874  69.459  1.00  0.00    -0.155 C  
HETATM    9  C   UNL     1      -9.432  13.525  66.934  1.00  0.00    -0.258 C  
HETATM   10  C   UNL     1      -6.633  10.415  69.810  1.00  0.00    -0.103 C  
HETATM   11  C   UNL     1      -8.360  12.223  67.742  1.00  0.00    -0.162 C  
HETATM   12  C   UNL     1      -8.987  11.051  68.954  1.00  0.00    -0.123 C  
HETATM   13  H   UNL     1      -4.987   9.774  72.815  1.00  0.00     0.000 HD 
HETATM   14  C   UNL     1     -10.662  10.447  68.831  1.00  0.00    -0.255 C  
HETATM   15  C   UNL     1      -5.709   9.361  70.438  1.00  0.00    -0.038 C  
HETATM   16  C   UNL     1     -11.072   9.906  70.210  1.00  0.00    -0.368 C  
HETATM   17  O   UNL     1      -5.922   9.610  72.817  1.00  0.00    -0.298 OA 
HETATM   18  C   UNL     1      -9.980   9.255  70.997  1.00  0.00    -0.364 C  
HETATM   19  C   UNL     1      -8.660   9.228  70.720  1.00  0.00    -0.254 C  
HETATM   20  C   UNL     1      -7.781   8.495  71.722  1.00  0.00    -0.154 C  
HETATM   21  C   UNL     1      -6.270   8.759  71.719  1.00  0.00    -0.073 C  
ENDROOT
BRANCH   4  22
HETATM   22  C   UNL     1     -10.315  11.371  65.651  1.00  0.00    -0.307 A  
HETATM   23  N   UNL     1     -10.196  11.785  63.194  1.00  0.00    -0.390 NA 
HETATM   24  C   UNL     1      -9.463  10.679  63.048  1.00  0.00    -0.338 A  
HETATM   25  C   UNL     1      -9.171   9.847  64.110  1.00  0.00    -0.312 A  
HETATM   26  C   UNL     1      -9.633  10.181  65.401  1.00  0.00    -0.325 A  
HETATM   27  C   UNL     1     -10.595  12.082  64.463  1.00  0.00    -0.313 A  
ENDBRANCH   4  22
TORSDOF 1
ENDMDL
MODEL       19
REMARK 921   NORMALIZED FREE ENERGY PREDICTED BY IDOCK:   -6.28 KCAL/MOL
REMARK 922        TOTAL FREE ENERGY PREDICTED BY IDOCK:   -6.47 KCAL/MOL
REMARK 923 INTER-LIGAND FREE ENERGY PREDICTED BY IDOCK:   -6.64 KCAL/MOL
REMARK 924 INTRA-LIGAND FREE ENERGY PREDICTED BY IDOCK:    0.17 KCAL/MOL
REMARK 927      BINDING AFFINITY PREDICTED BY RF-SCORE:    0.00 PKD
ROOT
HETATM    1  C   UNL     1     -10.680  10.967  64.133  1.00  0.00    -0.344 C  
HETATM    2  C   UNL     1     -10.072  11.942  63.276  1.00  0.00    -0.427 C  
HETATM    3  C   UNL     1      -9.351  11.586  64.536  1.00  0.00    -0.029 C  
HETATM    4  C   UNL     1      -9.734  10.257  65.322  1.00  0.00    -0.354 C  
HETATM    5  C   UNL     1     -11.042  12.502  68.866  1.00  0.00    -0.309 C  
HETATM    6  C   UNL     1      -9.009  10.043  64.214  1.00  0.00    -0.269 C  
HETATM    7  C   UNL     1      -8.879   9.010  63.128  1.00  0.00    -0.034 C  
HETATM    8  C   UNL     1     -10.362  13.442  67.858  1.00  0.00    -0.238 C  
HETATM    9  C   UNL     1      -7.693  10.496  65.442  1.00  0.00    -0.106 C  
HETATM   10  C   UNL     1      -9.210  14.202  68.564  1.00  0.00    -0.187 C  
HETATM   11  C   UNL     1      -8.322  11.641  66.781  1.00  0.00    -0.171 C  
HETATM   12  C   UNL     1      -9.815  12.629  66.604  1.00  0.00    -0.245 C  
HETATM   13  H   UNL     1      -9.314  17.591  69.374  1.00  0.00     0.000 HD 
HETATM   14  C   UNL     1     -11.196  12.003  65.663  1.00  0.00    -0.377 C  
HETATM   15  C   UNL     1      -9.685  15.121  69.699  1.00  0.00    -0.145 C  
HETATM   16  C   UNL     1     -12.073  13.199  65.259  1.00  0.00    -0.471 C  
HETATM   17  O   UNL     1      -9.951  17.303  68.732  1.00  0.00    -0.293 OA 
HETATM   18  C   UNL     1     -12.147  14.310  66.258  1.00  0.00    -0.433 C  
HETATM   19  C   UNL     1     -11.420  14.463  67.383  1.00  0.00    -0.377 C  
HETATM   20  C   UNL     1     -11.709  15.713  68.200  1.00  0.00    -0.209 C  
HETATM   21  C   UNL     1     -10.679  16.178  69.238  1.00  0.00    -0.295 C  
ENDROOT
BRANCH   4  22
HETATM   22  C   UNL     1      -9.762   9.067  66.305  1.00  0.00    -0.345 A  
HETATM   23  N   UNL     1      -8.856   6.832  66.940  1.00  0.00    -0.116 NA 
HETATM   24  C   UNL     1      -9.487   6.915  68.114  1.00  0.00    -0.122 A  
HETATM   25  C   UNL     1     -10.308   7.978  68.432  1.00  0.00    -0.236 A  
HETATM   26  C   UNL     1     -10.469   9.032  67.506  1.00  0.00    -0.338 A  
HETATM   27  C   UNL     1      -9.018   7.885  66.091  1.00  0.00    -0.175 A  
ENDBRANCH   4  22
TORSDOF 1
ENDMDL
MODEL       20
REMARK 921   NORMALIZED FREE ENERGY PREDICTED BY IDOCK:   -6.19 KCAL/MOL
REMARK 922        TOTAL FREE ENERGY PREDICTED BY IDOCK:   -6.37 KCAL/MOL
REMARK 923 INTER-LIGAND FREE ENERGY PREDICTED BY IDOCK:   -6.76 KCAL/MOL
REMARK 924 INTRA-LIGAND FREE ENERGY PREDICTED BY IDOCK:    0.39 KCAL/MOL
REMARK 927      BINDING AFFINITY PREDICTED BY RF-SCORE:    0.00 PKD
ROOT
HETATM    1  C   UNL     1      -9.293   8.884  65.897  1.00  0.00    -0.301 C  
HETATM    2  C   UNL     1      -8.060   9.219  65.249  1.00  0.00    -0.121 C  
HETATM    3  C   UNL     1      -8.305   9.796  66.606  1.00  0.00    -0.124 C  
HETATM    4  C   UNL     1      -9.427   9.172  67.544  1.00  0.00    -0.169 C  
HETATM    5  C   UNL     1     -11.770  12.889  67.543  1.00  0.00    -0.422 C  
HETATM    6  C   UNL     1      -8.307   8.437  67.473  1.00  0.00    -0.129 C  
HETATM    7  C   UNL     1      -7.900   6.989  67.495  1.00  0.00    -0.112 C  
HETATM    8  C   UNL     1     -10.406  13.116  66.871  1.00  0.00    -0.247 C  
HETATM    9  C   UNL     1      -7.838   9.715  68.734  1.00  0.00    -0.081 C  
HETATM   10  C   UNL     1      -9.684  14.298  67.567  1.00  0.00    -0.223 C  
HETATM   11  C   UNL     1      -8.742  11.334  68.489  1.00  0.00    -0.156 C  
HETATM   12  C   UNL     1      -9.517  11.798  66.934  1.00  0.00    -0.200 C  
HETATM   13  H   UNL     1      -9.234  17.437  66.119  1.00  0.00     0.000 HD 
HETATM   14  C   UNL     1     -10.247  10.548  65.890  1.00  0.00    -0.311 C  
HETATM   15  C   UNL     1     -10.420  15.639  67.422  1.00  0.00    -0.291 C  
HETATM   16  C   UNL     1     -10.356  11.124  64.469  1.00  0.00    -0.400 C  
HETATM   17  O   UNL     1      -9.455  16.736  65.517  1.00  0.00    -0.490 OA 
HETATM   18  C   UNL     1     -10.649  12.588  64.388  1.00  0.00    -0.376 C  
HETATM   19  C   UNL     1     -10.667  13.487  65.394  1.00  0.00    -0.308 C  
HETATM   20  C   UNL     1     -10.985  14.922  65.002  1.00  0.00    -0.432 C  
HETATM   21  C   UNL     1     -10.629  16.055  65.973  1.00  0.00    -0.316 C  
ENDROOT
BRANCH   4  22
HETATM   22  C   UNL     1     -10.343   8.824  68.737  1.00  0.00    -0.234 A  
HETATM   23  N   UNL     1     -11.207   7.079  70.297  1.00  0.00    -0.287 NA 
HETATM   24  C   UNL     1     -11.760   8.033  71.049  1.00  0.00    -0.277 A  
HETATM   25  C   UNL     1     -11.712   9.367  70.696  1.00  0.00    -0.302 A  
HETATM   26  C   UNL     1     -11.034   9.749  69.518  1.00  0.00    -0.256 A  
HETATM   27  C   UNL     1     -10.538   7.498  69.186  1.00  0.00    -0.197 A  
ENDBRANCH   4  22
TORSDOF 1
ENDMDL
MODEL       21
REMARK 921   NORMALIZED FREE ENERGY PREDICTED BY IDOCK:   -6.11 KCAL/MOL
REMARK 922        TOTAL FREE ENERGY PREDICTED BY IDOCK:   -6.29 KCAL/MOL
REMARK 923 INTER-LIGAND FREE ENERGY PREDICTED BY IDOCK:   -6.46 KCAL/MOL
REMARK 924 INTRA-LIGAND FREE ENERGY PREDICTED BY IDOCK:    0.18 KCAL/MOL
REMARK 927      BINDING AFFINITY PREDICTED BY RF-SCORE:    0.00 PKD
ROOT
HETATM    1  C   UNL     1     -10.003  11.622  65.235  1.00  0.00    -0.292 C  
HETATM    2  C   UNL     1     -11.313  11.245  64.792  1.00  0.00    -0.043 C  
HETATM    3  C   UNL     1     -11.208  11.977  66.091  1.00  0.00    -0.394 C  
HETATM    4  C   UNL     1      -9.877  12.771  66.451  1.00  0.00    -0.269 C  
HETATM    5  C   UNL     1      -9.059  10.208  69.925  1.00  0.00    -0.110 C  
HETATM    6  C   UNL     1     -10.654  13.392  65.550  1.00  0.00    -0.294 C  
HETATM    7  C   UNL     1     -10.502  14.275  64.343  1.00  0.00     0.047 C  
HETATM    8  C   UNL     1     -10.451   9.902  69.351  1.00  0.00    -0.250 C  
HETATM    9  C   UNL     1     -11.475  13.868  67.145  1.00  0.00    -0.370 C  
HETATM   10  C   UNL     1     -11.509  10.036  70.477  1.00  0.00    -0.407 C  
HETATM   11  C   UNL     1     -11.242  12.584  68.485  1.00  0.00    -0.322 C  
HETATM   12  C   UNL     1     -10.792  10.877  68.140  1.00  0.00    -0.283 C  
HETATM   13  H   UNL     1     -13.167   7.337  71.931  1.00  0.00     0.000 HD 
HETATM   14  C   UNL     1      -9.725  10.494  66.762  1.00  0.00    -0.220 C  
HETATM   15  C   UNL     1     -11.324   9.024  71.617  1.00  0.00    -0.430 C  
HETATM   16  C   UNL     1      -9.926   9.012  66.407  1.00  0.00    -0.370 C  
HETATM   17  O   UNL     1     -12.745   7.159  71.099  1.00  0.00    -0.367 OA 
HETATM   18  C   UNL     1     -10.194   8.103  67.563  1.00  0.00    -0.309 C  
HETATM   19  C   UNL     1     -10.440   8.443  68.845  1.00  0.00    -0.208 C  
HETATM   20  C   UNL     1     -10.694   7.290  69.804  1.00  0.00    -0.253 C  
HETATM   21  C   UNL     1     -11.376   7.577  71.148  1.00  0.00    -0.267 C  
ENDROOT
BRANCH   4  22
HETATM   22  C   UNL     1      -8.823  13.679  67.118  1.00  0.00    -0.237 A  
HETATM   23  N   UNL     1      -6.705  13.847  68.425  1.00  0.00    -0.089 NA 
HETATM   24  C   UNL     1      -6.667  15.160  68.185  1.00  0.00    -0.132 A  
HETATM   25  C   UNL     1      -7.671  15.809  67.496  1.00  0.00    -0.186 A  
HETATM   26  C   UNL     1      -8.763  15.067  66.998  1.00  0.00    -0.262 A  
HETATM   27  C   UNL     1      -7.763  13.168  67.901  1.00  0.00    -0.147 A  
ENDBRANCH   4  22
TORSDOF 1
ENDMDL
MODEL       22
REMARK 921   NORMALIZED FREE ENERGY PREDICTED BY IDOCK:   -6.09 KCAL/MOL
REMARK 922        TOTAL FREE ENERGY PREDICTED BY IDOCK:   -6.27 KCAL/MOL
REMARK 923 INTER-LIGAND FREE ENERGY PREDICTED BY IDOCK:   -6.71 KCAL/MOL
REMARK 924 INTRA-LIGAND FREE ENERGY PREDICTED BY IDOCK:    0.45 KCAL/MOL
REMARK 927      BINDING AFFINITY PREDICTED BY RF-SCORE:    0.00 PKD
ROOT
HETATM    1  C   UNL     1      -8.591  12.711  67.106  1.00  0.00    -0.199 C  
HETATM    2  C   UNL     1      -8.251  12.583  68.492  1.00  0.00    -0.079 C  
HETATM    3  C   UNL     1      -9.574  13.193  68.160  1.00  0.00    -0.227 C  
HETATM    4  C   UNL     1     -10.193  13.007  66.706  1.00  0.00    -0.246 C  
HETATM    5  C   UNL     1     -10.051  17.321  65.883  1.00  0.00    -0.226 C  
HETATM    6  C   UNL     1     -10.288  11.917  67.482  1.00  0.00    -0.219 C  
HETATM    7  C   UNL     1     -10.259  10.420  67.339  1.00  0.00    -0.259 C  
HETATM    8  C   UNL     1      -9.705  17.046  67.355  1.00  0.00    -0.252 C  
HETATM    9  C   UNL     1     -11.736  12.922  68.067  1.00  0.00    -0.401 C  
HETATM   10  C   UNL     1     -10.646  17.876  68.266  1.00  0.00    -0.314 C  
HETATM   11  C   UNL     1     -11.461  14.761  67.870  1.00  0.00    -0.361 C  
HETATM   12  C   UNL     1      -9.828  15.494  67.687  1.00  0.00    -0.213 C  
HETATM   13  H   UNL     1      -9.628  20.655  70.108  1.00  0.00     0.000 HD 
HETATM   14  C   UNL     1      -8.541  14.607  66.825  1.00  0.00    -0.195 C  
HETATM   15  C   UNL     1     -10.478  19.395  68.101  1.00  0.00    -0.476 C  
HETATM   16  C   UNL     1      -7.190  15.202  67.254  1.00  0.00    -0.197 C  
HETATM   17  O   UNL     1      -8.930  20.090  69.800  1.00  0.00     0.363 OA 
HETATM   18  C   UNL     1      -7.189  16.673  67.520  1.00  0.00    -0.169 C  
HETATM   19  C   UNL     1      -8.248  17.504  67.588  1.00  0.00    -0.218 C  
HETATM   20  C   UNL     1      -7.936  18.962  67.893  1.00  0.00    -0.297 C  
HETATM   21  C   UNL     1      -9.063  19.876  68.390  1.00  0.00    -0.208 C  
ENDROOT
BRANCH   4  22
HETATM   22  C   UNL     1     -11.128  13.001  65.479  1.00  0.00    -0.300 A  
HETATM   23  N   UNL     1     -12.433  14.321  63.813  1.00  0.00    -0.801 NA 
HETATM   24  C   UNL     1     -12.638  13.211  63.101  1.00  0.00     0.133 A  
HETATM   25  C   UNL     1     -12.193  11.975  63.525  1.00  0.00    -0.653 A  
HETATM   26  C   UNL     1     -11.471  11.874  64.734  1.00  0.00    -0.323 A  
HETATM   27  C   UNL     1     -11.707  14.180  64.958  1.00  0.00    -0.376 A  
ENDBRANCH   4  22
TORSDOF 1
ENDMDL
MODEL       23
REMARK 921   NORMALIZED FREE ENERGY PREDICTED BY IDOCK:   -6.08 KCAL/MOL
REMARK 922        TOTAL FREE ENERGY PREDICTED BY IDOCK:   -6.25 KCAL/MOL
REMARK 923 INTER-LIGAND FREE ENERGY PREDICTED BY IDOCK:   -6.43 KCAL/MOL
REMARK 924 INTRA-LIGAND FREE ENERGY PREDICTED BY IDOCK:    0.17 KCAL/MOL
REMARK 927      BINDING AFFINITY PREDICTED BY RF-SCORE:    0.00 PKD
ROOT
HETATM    1  C   UNL     1      -7.488   9.986  67.741  1.00  0.00    -0.089 C  
HETATM    2  C   UNL     1      -6.637   8.834  67.768  1.00  0.00    -0.061 C  
HETATM    3  C   UNL     1      -8.075   8.620  67.424  1.00  0.00    -0.102 C  
HETATM    4  C   UNL     1      -8.979   9.854  66.983  1.00  0.00    -0.152 C  
HETATM    5  C   UNL     1     -11.632   9.398  70.456  1.00  0.00    -0.291 C  
HETATM    6  C   UNL     1      -8.134   9.430  66.031  1.00  0.00    -0.111 C  
HETATM    7  C   UNL     1      -7.321  10.004  64.903  1.00  0.00    -0.140 C  
HETATM    8  C   UNL     1     -10.659   8.211  70.367  1.00  0.00    -0.226 C  
HETATM    9  C   UNL     1      -9.536   8.226  65.853  1.00  0.00    -0.125 C  
HETATM   10  C   UNL     1     -11.467   6.888  70.354  1.00  0.00    -0.387 C  
HETATM   11  C   UNL     1     -10.451   7.945  67.460  1.00  0.00    -0.332 C  
HETATM   12  C   UNL     1      -9.744   8.324  69.070  1.00  0.00    -0.167 C  
HETATM   13  H   UNL     1     -11.590   4.649  73.022  1.00  0.00     0.000 HD 
HETATM   14  C   UNL     1      -8.633   9.708  69.256  1.00  0.00    -0.153 C  
HETATM   15  C   UNL     1     -12.267   6.644  71.643  1.00  0.00    -0.401 C  
HETATM   16  C   UNL     1      -7.818   9.490  70.540  1.00  0.00    -0.182 C  
HETATM   17  O   UNL     1     -10.879   5.277  73.047  1.00  0.00    -0.234 OA 
HETATM   18  C   UNL     1      -8.548   8.819  71.660  1.00  0.00    -0.228 C  
HETATM   19  C   UNL     1      -9.766   8.241  71.627  1.00  0.00    -0.261 C  
HETATM   20  C   UNL     1     -10.246   7.619  72.930  1.00  0.00    -0.356 C  
HETATM   21  C   UNL     1     -11.395   6.604  72.890  1.00  0.00    -0.136 C  
ENDROOT
BRANCH   4  22
HETATM   22  C   UNL     1     -10.128  10.744  66.467  1.00  0.00    -0.277 A  
HETATM   23  N   UNL     1     -12.033  12.261  67.012  1.00  0.00    -0.590 NA 
HETATM   24  C   UNL     1     -12.121  12.604  65.725  1.00  0.00    -0.423 A  
HETATM   25  C   UNL     1     -11.319  12.034  64.757  1.00  0.00    -0.369 A  
HETATM   26  C   UNL     1     -10.352  11.077  65.132  1.00  0.00    -0.346 A  
HETATM   27  C   UNL     1     -11.064  11.356  67.331  1.00  0.00    -0.289 A  
ENDBRANCH   4  22
TORSDOF 1
ENDMDL
MODEL       24
REMARK 921   NORMALIZED FREE ENERGY PREDICTED BY IDOCK:   -6.05 KCAL/MOL
REMARK 922        TOTAL FREE ENERGY PREDICTED BY IDOCK:   -6.23 KCAL/MOL
REMARK 923 INTER-LIGAND FREE ENERGY PREDICTED BY IDOCK:   -6.40 KCAL/MOL
REMARK 924 INTRA-LIGAND FREE ENERGY PREDICTED BY IDOCK:    0.17 KCAL/MOL
REMARK 927      BINDING AFFINITY PREDICTED BY RF-SCORE:    0.00 PKD
ROOT
HETATM    1  C   UNL     1     -10.325  12.614  64.088  1.00  0.00    -0.412 C  
HETATM    2  C   UNL     1     -11.460  11.953  63.515  1.00  0.00    -0.523 C  
HETATM    3  C   UNL     1     -11.380  12.018  65.006  1.00  0.00    -0.365 C  
HETATM    4  C   UNL     1     -10.397  13.056  65.704  1.00  0.00    -0.294 C  
HETATM    5  C   UNL     1      -8.011   9.856  67.541  1.00  0.00    -0.106 C  
HETATM    6  C   UNL     1     -11.511  13.613  65.206  1.00  0.00    -0.320 C  
HETATM    7  C   UNL     1     -11.942  14.903  64.565  1.00  0.00    -0.420 C  
HETATM    8  C   UNL     1      -9.273   9.274  66.886  1.00  0.00    -0.178 C  
HETATM    9  C   UNL     1     -12.116  12.955  66.833  1.00  0.00    -0.313 C  
HETATM   10  C   UNL     1     -10.058   8.447  67.937  1.00  0.00    -0.254 C  
HETATM   11  C   UNL     1     -11.161  11.451  67.401  1.00  0.00    -0.349 C  
HETATM   12  C   UNL     1     -10.186  10.430  66.285  1.00  0.00    -0.286 C  
HETATM   13  H   UNL     1     -10.268   4.967  67.926  1.00  0.00     0.000 HD 
HETATM   14  C   UNL     1      -9.350  11.172  64.894  1.00  0.00    -0.219 C  
HETATM   15  C   UNL     1      -9.288   7.225  68.459  1.00  0.00    -0.141 C  
HETATM   16  C   UNL     1      -9.050  10.061  63.875  1.00  0.00    -0.296 C  
HETATM   17  O   UNL     1      -9.984   5.363  67.110  1.00  0.00    -0.144 OA 
HETATM   18  C   UNL     1      -8.725   8.723  64.459  1.00  0.00    -0.078 C  
HETATM   19  C   UNL     1      -8.820   8.335  65.746  1.00  0.00    -0.194 C  
HETATM   20  C   UNL     1      -8.431   6.893  66.040  1.00  0.00    -0.140 C  
HETATM   21  C   UNL     1      -8.889   6.253  67.357  1.00  0.00    -0.107 C  
ENDROOT
BRANCH   4  22
HETATM   22  C   UNL     1      -9.647  13.936  66.726  1.00  0.00    -0.288 A  
HETATM   23  N   UNL     1      -9.658  15.969  68.172  1.00  0.00    -0.208 NA 
HETATM   24  C   UNL     1      -8.548  15.540  68.777  1.00  0.00    -0.188 A  
HETATM   25  C   UNL     1      -7.900  14.384  68.387  1.00  0.00    -0.138 A  
HETATM   26  C   UNL     1      -8.436  13.609  67.336  1.00  0.00    -0.206 A  
HETATM   27  C   UNL     1     -10.154  15.173  67.184  1.00  0.00    -0.239 A  
ENDBRANCH   4  22
TORSDOF 1
ENDMDL
MODEL       25
REMARK 921   NORMALIZED FREE ENERGY PREDICTED BY IDOCK:   -5.98 KCAL/MOL
REMARK 922        TOTAL FREE ENERGY PREDICTED BY IDOCK:   -6.15 KCAL/MOL
REMARK 923 INTER-LIGAND FREE ENERGY PREDICTED BY IDOCK:   -6.53 KCAL/MOL
REMARK 924 INTRA-LIGAND FREE ENERGY PREDICTED BY IDOCK:    0.37 KCAL/MOL
REMARK 927      BINDING AFFINITY PREDICTED BY RF-SCORE:    0.00 PKD
ROOT
HETATM    1  C   UNL     1     -11.655  10.877  68.668  1.00  0.00    -0.373 C  
HETATM    2  C   UNL     1     -10.919  10.528  69.846  1.00  0.00    -0.359 C  
HETATM    3  C   UNL     1     -10.211  11.331  68.803  1.00  0.00    -0.215 C  
HETATM    4  C   UNL     1     -11.046  12.090  67.682  1.00  0.00    -0.319 C  
HETATM    5  C   UNL     1      -9.249   9.705  64.458  1.00  0.00    -0.277 C  
HETATM    6  C   UNL     1     -11.080  12.687  68.883  1.00  0.00    -0.307 C  
HETATM    7  C   UNL     1     -12.036  13.491  69.720  1.00  0.00    -0.405 C  
HETATM    8  C   UNL     1      -8.539   9.423  65.792  1.00  0.00    -0.161 C  
HETATM    9  C   UNL     1      -9.458  13.290  68.208  1.00  0.00    -0.209 C  
HETATM   10  C   UNL     1      -7.017   9.666  65.622  1.00  0.00    -0.096 C  
HETATM   11  C   UNL     1      -8.681  12.079  67.013  1.00  0.00    -0.188 C  
HETATM   12  C   UNL     1      -9.128  10.337  66.953  1.00  0.00    -0.159 C  
HETATM   13  H   UNL     1      -4.630   7.127  65.539  1.00  0.00     0.000 HD 
HETATM   14  C   UNL     1     -10.803   9.831  67.304  1.00  0.00    -0.247 C  
HETATM   15  C   UNL     1      -6.351   8.716  64.615  1.00  0.00    -0.066 C  
HETATM   16  C   UNL     1     -10.777   8.340  67.677  1.00  0.00    -0.195 C  
HETATM   17  O   UNL     1      -5.476   6.883  65.895  1.00  0.00    -0.024 OA 
HETATM   18  C   UNL     1      -9.764   7.512  66.952  1.00  0.00    -0.272 C  
HETATM   19  C   UNL     1      -8.773   7.937  66.143  1.00  0.00    -0.181 C  
HETATM   20  C   UNL     1      -7.880   6.854  65.555  1.00  0.00    -0.112 C  
HETATM   21  C   UNL     1      -6.514   7.247  64.979  1.00  0.00    -0.037 C  
ENDROOT
BRANCH   4  22
HETATM   22  C   UNL     1     -11.480  12.992  66.508  1.00  0.00    -0.385 A  
HETATM   23  N   UNL     1     -11.507  15.272  65.495  1.00  0.00    -0.221 NA 
HETATM   24  C   UNL     1     -11.967  14.755  64.354  1.00  0.00    -0.417 A  
HETATM   25  C   UNL     1     -12.266  13.413  64.225  1.00  0.00    -0.450 A  
HETATM   26  C   UNL     1     -12.055  12.546  65.319  1.00  0.00    -0.500 A  
HETATM   27  C   UNL     1     -11.291  14.392  66.514  1.00  0.00    -0.350 A  
ENDBRANCH   4  22
TORSDOF 1
ENDMDL
MODEL       26
REMARK 921   NORMALIZED FREE ENERGY PREDICTED BY IDOCK:   -5.88 KCAL/MOL
REMARK 922        TOTAL FREE ENERGY PREDICTED BY IDOCK:   -6.04 KCAL/MOL
REMARK 923 INTER-LIGAND FREE ENERGY PREDICTED BY IDOCK:   -6.22 KCAL/MOL
REMARK 924 INTRA-LIGAND FREE ENERGY PREDICTED BY IDOCK:    0.18 KCAL/MOL
REMARK 927      BINDING AFFINITY PREDICTED BY RF-SCORE:    0.00 PKD
ROOT
HETATM    1  C   UNL     1      -9.496  18.385  66.089  1.00  0.00    -0.164 C  
HETATM    2  C   UNL     1     -10.906  18.488  65.858  1.00  0.00    -0.077 C  
HETATM    3  C   UNL     1     -10.459  18.091  67.227  1.00  0.00    -0.390 C  
HETATM    4  C   UNL     1      -8.953  18.341  67.675  1.00  0.00    -0.271 C  
HETATM    5  C   UNL     1      -8.182  14.043  68.162  1.00  0.00    -0.155 C  
HETATM    6  C   UNL     1      -9.707  19.450  67.662  1.00  0.00    -0.428 C  
HETATM    7  C   UNL     1      -9.555  20.919  67.377  1.00  0.00    -0.386 C  
HETATM    8  C   UNL     1      -9.677  14.293  67.909  1.00  0.00    -0.222 C  
HETATM    9  C   UNL     1     -10.164  18.705  69.299  1.00  0.00     0.047 C  
HETATM   10  C   UNL     1     -10.504  13.645  69.050  1.00  0.00    -0.099 C  
HETATM   11  C   UNL     1     -10.009  16.841  69.310  1.00  0.00    -0.206 C  
HETATM   12  C   UNL     1      -9.983  15.851  67.808  1.00  0.00    -0.229 C  
HETATM   13  H   UNL     1     -12.455  10.782  68.665  1.00  0.00     0.000 HD 
HETATM   14  C   UNL     1      -9.236  16.499  66.322  1.00  0.00    -0.345 C  
HETATM   15  C   UNL     1     -10.368  12.116  69.116  1.00  0.00     0.090 C  
HETATM   16  C   UNL     1      -9.793  15.706  65.130  1.00  0.00    -0.018 C  
HETATM   17  O   UNL     1     -12.208  11.221  67.860  1.00  0.00    -0.570 OA 
HETATM   18  C   UNL     1     -10.070  14.259  65.391  1.00  0.00    -0.379 C  
HETATM   19  C   UNL     1     -10.047  13.611  66.573  1.00  0.00    -0.286 C  
HETATM   20  C   UNL     1     -10.391  12.130  66.530  1.00  0.00    -0.239 C  
HETATM   21  C   UNL     1     -10.790  11.421  67.830  1.00  0.00    -0.231 C  
ENDROOT
BRANCH   4  22
HETATM   22  C   UNL     1      -7.645  18.469  68.484  1.00  0.00    -0.328 A  
HETATM   23  N   UNL     1      -6.184  19.888  69.925  1.00  0.00    -0.334 NA 
HETATM   24  C   UNL     1      -5.435  18.821  70.208  1.00  0.00    -0.227 A  
HETATM   25  C   UNL     1      -5.671  17.586  69.638  1.00  0.00    -0.231 A  
HETATM   26  C   UNL     1      -6.756  17.429  68.748  1.00  0.00    -0.219 A  
HETATM   27  C   UNL     1      -7.237  19.682  69.084  1.00  0.00    -0.327 A  
ENDBRANCH   4  22
TORSDOF 1
ENDMDL
MODEL       27
REMARK 921   NORMALIZED FREE ENERGY PREDICTED BY IDOCK:   -5.87 KCAL/MOL
REMARK 922        TOTAL FREE ENERGY PREDICTED BY IDOCK:   -6.04 KCAL/MOL
REMARK 923 INTER-LIGAND FREE ENERGY PREDICTED BY IDOCK:   -6.37 KCAL/MOL
REMARK 924 INTRA-LIGAND FREE ENERGY PREDICTED BY IDOCK:    0.33 KCAL/MOL
REMARK 927      BINDING AFFINITY PREDICTED BY RF-SCORE:    0.00 PKD
ROOT
HETATM    1  C   UNL     1      -9.262  14.623  68.339  1.00  0.00    -0.197 C  
HETATM    2  C   UNL     1      -8.916  15.085  67.027  1.00  0.00    -0.255 C  
HETATM    3  C   UNL     1     -10.089  14.167  67.147  1.00  0.00    -0.258 C  
HETATM    4  C   UNL     1     -10.776  13.937  68.563  1.00  0.00    -0.268 C  
HETATM    5  C   UNL     1      -9.749   9.664  68.582  1.00  0.00    -0.162 C  
HETATM    6  C   UNL     1     -11.078  15.115  67.997  1.00  0.00    -0.310 C  
HETATM    7  C   UNL     1     -11.370  16.529  68.417  1.00  0.00    -0.209 C  
HETATM    8  C   UNL     1      -9.425  10.287  67.215  1.00  0.00    -0.174 C  
HETATM    9  C   UNL     1     -12.261  13.972  67.138  1.00  0.00    -0.356 C  
HETATM   10  C   UNL     1     -10.141   9.477  66.103  1.00  0.00    -0.326 C  
HETATM   11  C   UNL     1     -11.609  12.224  67.010  1.00  0.00    -0.418 C  
HETATM   12  C   UNL     1      -9.864  11.815  67.168  1.00  0.00    -0.207 C  
HETATM   13  H   UNL     1      -8.503   7.376  63.854  1.00  0.00     0.000 HD 
HETATM   14  C   UNL     1      -8.820  12.758  68.267  1.00  0.00    -0.168 C  
HETATM   15  C   UNL     1      -9.660   8.022  65.996  1.00  0.00    -0.072 C  
HETATM   16  C   UNL     1      -7.362  12.545  67.831  1.00  0.00    -0.115 C  
HETATM   17  O   UNL     1      -7.950   8.000  64.310  1.00  0.00    -0.137 OA 
HETATM   18  C   UNL     1      -7.041  11.185  67.298  1.00  0.00    -0.109 C  
HETATM   19  C   UNL     1      -7.898  10.186  67.004  1.00  0.00    -0.102 C  
HETATM   20  C   UNL     1      -7.275   8.910  66.458  1.00  0.00    -0.085 C  
HETATM   21  C   UNL     1      -8.167   7.903  65.722  1.00  0.00    -0.130 C  
ENDROOT
BRANCH   4  22
HETATM   22  C   UNL     1     -11.728  13.514  69.702  1.00  0.00    -0.378 A  
HETATM   23  N   UNL     1     -12.556  11.695  71.196  1.00  0.00    -0.378 NA 
HETATM   24  C   UNL     1     -13.210  12.600  71.927  1.00  0.00    -0.403 A  
HETATM   25  C   UNL     1     -13.231  13.939  71.590  1.00  0.00    -0.446 A  
HETATM   26  C   UNL     1     -12.519  14.381  70.455  1.00  0.00    -0.420 A  
HETATM   27  C   UNL     1     -11.858  12.172  70.126  1.00  0.00    -0.287 A  
ENDBRANCH   4  22
TORSDOF 1
ENDMDL
MODEL       28
REMARK 921   NORMALIZED FREE ENERGY PREDICTED BY IDOCK:   -5.87 KCAL/MOL
REMARK 922        TOTAL FREE ENERGY PREDICTED BY IDOCK:   -6.03 KCAL/MOL
REMARK 923 INTER-LIGAND FREE ENERGY PREDICTED BY IDOCK:   -6.20 KCAL/MOL
REMARK 924 INTRA-LIGAND FREE ENERGY PREDICTED BY IDOCK:    0.17 KCAL/MOL
REMARK 927      BINDING AFFINITY PREDICTED BY RF-SCORE:    0.00 PKD
ROOT
HETATM    1  C   UNL     1     -10.802  13.016  68.937  1.00  0.00    -0.244 C  
HETATM    2  C   UNL     1     -12.151  13.353  68.590  1.00  0.00    -0.281 C  
HETATM    3  C   UNL     1     -11.101  13.541  67.542  1.00  0.00    -0.293 C  
HETATM    4  C   UNL     1      -9.686  12.831  67.699  1.00  0.00    -0.205 C  
HETATM    5  C   UNL     1      -7.567  16.674  67.917  1.00  0.00    -0.169 C  
HETATM    6  C   UNL     1     -10.672  12.003  67.322  1.00  0.00    -0.269 C  
HETATM    7  C   UNL     1     -11.082  10.569  67.518  1.00  0.00    -0.358 C  
HETATM    8  C   UNL     1      -9.041  16.897  67.545  1.00  0.00    -0.222 C  
HETATM    9  C   UNL     1     -10.201  12.785  65.706  1.00  0.00    -0.302 C  
HETATM   10  C   UNL     1      -9.118  17.717  66.231  1.00  0.00    -0.212 C  
HETATM   11  C   UNL     1      -9.517  14.513  65.915  1.00  0.00    -0.219 C  
HETATM   12  C   UNL     1      -9.802  15.508  67.386  1.00  0.00    -0.224 C  
HETATM   13  H   UNL     1     -10.132  21.048  66.064  1.00  0.00     0.000 HD 
HETATM   14  C   UNL     1      -9.933  14.726  68.984  1.00  0.00    -0.218 C  
HETATM   15  C   UNL     1      -8.526  19.130  66.353  1.00  0.00    -0.325 C  
HETATM   16  C   UNL     1     -10.659  15.698  69.928  1.00  0.00    -0.328 C  
HETATM   17  O   UNL     1     -10.365  20.588  66.862  1.00  0.00    -0.300 OA 
HETATM   18  C   UNL     1     -10.374  17.148  69.703  1.00  0.00    -0.019 C  
HETATM   19  C   UNL     1      -9.695  17.711  68.683  1.00  0.00    -0.332 C  
HETATM   20  C   UNL     1      -9.579  19.228  68.714  1.00  0.00    -0.485 C  
HETATM   21  C   UNL     1      -9.202  19.971  67.426  1.00  0.00    -0.365 C  
ENDROOT
BRANCH   4  22
HETATM   22  C   UNL     1      -8.264  12.282  67.457  1.00  0.00    -0.170 A  
HETATM   23  N   UNL     1      -6.831  10.495  66.469  1.00  0.00    -0.105 NA 
HETATM   24  C   UNL     1      -5.749  11.242  66.701  1.00  0.00    -0.130 A  
HETATM   25  C   UNL     1      -5.822  12.460  67.348  1.00  0.00    -0.149 A  
HETATM   26  C   UNL     1      -7.080  12.954  67.756  1.00  0.00    -0.137 A  
HETATM   27  C   UNL     1      -8.026  11.027  66.854  1.00  0.00    -0.143 A  
ENDBRANCH   4  22
TORSDOF 1
ENDMDL
MODEL       29
REMARK 921   NORMALIZED FREE ENERGY PREDICTED BY IDOCK:   -5.84 KCAL/MOL
REMARK 922        TOTAL FREE ENERGY PREDICTED BY IDOCK:   -6.00 KCAL/MOL
REMARK 923 INTER-LIGAND FREE ENERGY PREDICTED BY IDOCK:   -6.28 KCAL/MOL
REMARK 924 INTRA-LIGAND FREE ENERGY PREDICTED BY IDOCK:    0.28 KCAL/MOL
REMARK 927      BINDING AFFINITY PREDICTED BY RF-SCORE:    0.00 PKD
ROOT
HETATM    1  C   UNL     1     -11.090   6.407  69.547  1.00  0.00    -0.460 C  
HETATM    2  C   UNL     1     -10.048   5.430  69.664  1.00  0.00    -0.319 C  
HETATM    3  C   UNL     1      -9.750   6.816  70.139  1.00  0.00    -0.175 C  
HETATM    4  C   UNL     1     -10.942   7.834  70.417  1.00  0.00    -0.255 C  
HETATM    5  C   UNL     1      -9.583  10.583  67.269  1.00  0.00    -0.188 C  
HETATM    6  C   UNL     1     -10.790   6.900  71.369  1.00  0.00    -0.256 C  
HETATM    7  C   UNL     1     -11.642   6.105  72.319  1.00  0.00    -0.362 C  
HETATM    8  C   UNL     1      -8.542   9.475  67.499  1.00  0.00    -0.126 C  
HETATM    9  C   UNL     1      -9.498   8.142  71.852  1.00  0.00    -0.260 C  
HETATM   10  C   UNL     1      -7.166  10.123  67.800  1.00  0.00    -0.087 C  
HETATM   11  C   UNL     1      -8.834   9.096  70.387  1.00  0.00    -0.253 C  
HETATM   12  C   UNL     1      -8.985   8.518  68.690  1.00  0.00    -0.139 C  
HETATM   13  H   UNL     1      -4.476  10.116  65.582  1.00  0.00     0.000 HD 
HETATM   14  C   UNL     1     -10.421   7.584  68.187  1.00  0.00    -0.233 C  
HETATM   15  C   UNL     1      -6.607  10.951  66.633  1.00  0.00    -0.120 C  
HETATM   16  C   UNL     1     -10.059   6.814  66.908  1.00  0.00    -0.268 C  
HETATM   17  O   UNL     1      -5.161   9.485  65.398  1.00  0.00    -0.038 OA 
HETATM   18  C   UNL     1      -9.122   7.515  65.977  1.00  0.00    -0.139 C  
HETATM   19  C   UNL     1      -8.435   8.654  66.195  1.00  0.00    -0.140 C  
HETATM   20  C   UNL     1      -7.538   9.122  65.058  1.00  0.00    -0.106 C  
HETATM   21  C   UNL     1      -6.432  10.143  65.355  1.00  0.00    -0.117 C  
ENDROOT
BRANCH   4  22
HETATM   22  C   UNL     1     -11.785   9.052  70.847  1.00  0.00    -0.327 A  
HETATM   23  N   UNL     1     -13.442  10.015  72.444  1.00  0.00    -0.274 NA 
HETATM   24  C   UNL     1     -13.217  11.230  71.937  1.00  0.00    -0.386 A  
HETATM   25  C   UNL     1     -12.366  11.433  70.870  1.00  0.00    -0.483 A  
HETATM   26  C   UNL     1     -11.683  10.333  70.307  1.00  0.00    -0.388 A  
HETATM   27  C   UNL     1     -12.738   8.989  71.888  1.00  0.00    -0.382 A  
ENDBRANCH   4  22
TORSDOF 1
ENDMDL
MODEL       30
REMARK 921   NORMALIZED FREE ENERGY PREDICTED BY IDOCK:   -5.81 KCAL/MOL
REMARK 922        TOTAL FREE ENERGY PREDICTED BY IDOCK:   -5.98 KCAL/MOL
REMARK 923 INTER-LIGAND FREE ENERGY PREDICTED BY IDOCK:   -6.15 KCAL/MOL
REMARK 924 INTRA-LIGAND FREE ENERGY PREDICTED BY IDOCK:    0.17 KCAL/MOL
REMARK 927      BINDING AFFINITY PREDICTED BY RF-SCORE:    0.00 PKD
ROOT
HETATM    1  C   UNL     1      -8.135  12.665  67.434  1.00  0.00    -0.182 C  
HETATM    2  C   UNL     1      -7.727  12.479  68.795  1.00  0.00     0.003 C  
HETATM    3  C   UNL     1      -8.945  13.309  68.548  1.00  0.00    -0.058 C  
HETATM    4  C   UNL     1      -9.685  13.235  67.141  1.00  0.00    -0.236 C  
HETATM    5  C   UNL     1      -8.859  17.461  66.266  1.00  0.00    -0.236 C  
HETATM    6  C   UNL     1      -9.914  12.176  67.933  1.00  0.00    -0.200 C  
HETATM    7  C   UNL     1     -10.153  10.697  67.804  1.00  0.00    -0.203 C  
HETATM    8  C   UNL     1      -8.465  17.127  67.714  1.00  0.00    -0.207 C  
HETATM    9  C   UNL     1     -11.123  13.415  68.604  1.00  0.00    -0.295 C  
HETATM   10  C   UNL     1      -9.184  18.107  68.677  1.00  0.00    -0.295 C  
HETATM   11  C   UNL     1     -10.549  15.180  68.370  1.00  0.00    -0.238 C  
HETATM   12  C   UNL     1      -8.831  15.620  68.069  1.00  0.00    -0.169 C  
HETATM   13  H   UNL     1      -7.578  20.665  70.418  1.00  0.00     0.000 HD 
HETATM   14  C   UNL     1      -7.778  14.526  67.131  1.00  0.00    -0.093 C  
HETATM   15  C   UNL     1      -8.768  19.573  68.486  1.00  0.00    -0.388 C  
HETATM   16  C   UNL     1      -6.319  14.877  67.461  1.00  0.00    -0.071 C  
HETATM   17  O   UNL     1      -7.010  19.988  70.069  1.00  0.00    -0.240 OA 
HETATM   18  C   UNL     1      -6.045  16.326  67.711  1.00  0.00    -0.153 C  
HETATM   19  C   UNL     1      -6.939  17.327  67.842  1.00  0.00    -0.173 C  
HETATM   20  C   UNL     1      -6.359  18.708  68.110  1.00  0.00    -0.212 C  
HETATM   21  C   UNL     1      -7.275  19.802  68.674  1.00  0.00    -0.323 C  
ENDROOT
BRANCH   4  22
HETATM   22  C   UNL     1     -10.690  13.392  65.981  1.00  0.00    -0.283 A  
HETATM   23  N   UNL     1     -12.822  12.650  64.919  1.00  0.00    -0.842 NA 
HETATM   24  C   UNL     1     -12.764  13.691  64.086  1.00  0.00     0.057 A  
HETATM   25  C   UNL     1     -11.701  14.573  64.086  1.00  0.00    -0.222 A  
HETATM   26  C   UNL     1     -10.651  14.394  65.012  1.00  0.00    -0.452 A  
HETATM   27  C   UNL     1     -11.800  12.534  65.814  1.00  0.00    -0.437 A  
ENDBRANCH   4  22
TORSDOF 1
ENDMDL
MODEL       31
REMARK 921   NORMALIZED FREE ENERGY PREDICTED BY IDOCK:   -5.80 KCAL/MOL
REMARK 922        TOTAL FREE ENERGY PREDICTED BY IDOCK:   -5.96 KCAL/MOL
REMARK 923 INTER-LIGAND FREE ENERGY PREDICTED BY IDOCK:   -6.27 KCAL/MOL
REMARK 924 INTRA-LIGAND FREE ENERGY PREDICTED BY IDOCK:    0.31 KCAL/MOL
REMARK 927      BINDING AFFINITY PREDICTED BY RF-SCORE:    0.00 PKD
ROOT
HETATM    1  C   UNL     1      -8.715   8.958  64.829  1.00  0.00    -0.162 C  
HETATM    2  C   UNL     1      -7.626   9.539  64.099  1.00  0.00    -0.123 C  
HETATM    3  C   UNL     1      -7.811   9.968  65.519  1.00  0.00    -0.134 C  
HETATM    4  C   UNL     1      -8.714   9.100  66.500  1.00  0.00    -0.142 C  
HETATM    5  C   UNL     1     -11.596  12.370  67.052  1.00  0.00    -0.434 C  
HETATM    6  C   UNL     1      -7.507   8.567  66.258  1.00  0.00    -0.090 C  
HETATM    7  C   UNL     1      -6.878   7.209  66.113  1.00  0.00    -0.057 C  
HETATM    8  C   UNL     1     -10.365  12.867  66.277  1.00  0.00    -0.278 C  
HETATM    9  C   UNL     1      -7.110   9.810  67.578  1.00  0.00    -0.088 C  
HETATM   10  C   UNL     1      -9.767  14.098  67.004  1.00  0.00    -0.258 C  
HETATM   11  C   UNL     1      -8.277  11.271  67.565  1.00  0.00    -0.124 C  
HETATM   12  C   UNL     1      -9.279  11.713  66.137  1.00  0.00    -0.228 C  
HETATM   13  H   UNL     1      -9.972  17.365  65.805  1.00  0.00     0.000 HD 
HETATM   14  C   UNL     1      -9.913  10.439  65.060  1.00  0.00    -0.399 C  
HETATM   15  C   UNL     1     -10.715  15.306  67.050  1.00  0.00    -0.313 C  
HETATM   16  C   UNL     1     -10.263  11.091  63.714  1.00  0.00    -0.425 C  
HETATM   17  O   UNL     1     -10.144  16.683  65.167  1.00  0.00    -0.539 OA 
HETATM   18  C   UNL     1     -10.789  12.488  63.792  1.00  0.00    -0.489 C  
HETATM   19  C   UNL     1     -10.839  13.296  64.870  1.00  0.00    -0.358 C  
HETATM   20  C   UNL     1     -11.418  14.684  64.639  1.00  0.00    -0.389 C  
HETATM   21  C   UNL     1     -11.141  15.786  65.670  1.00  0.00    -0.155 C  
ENDROOT
BRANCH   4  22
HETATM   22  C   UNL     1      -9.430   8.520  67.738  1.00  0.00    -0.168 A  
HETATM   23  N   UNL     1      -9.680   6.620  69.336  1.00  0.00    -0.148 NA 
HETATM   24  C   UNL     1     -10.442   7.386  70.120  1.00  0.00    -0.220 A  
HETATM   25  C   UNL     1     -10.793   8.674  69.769  1.00  0.00    -0.185 A  
HETATM   26  C   UNL     1     -10.313   9.220  68.559  1.00  0.00    -0.237 A  
HETATM   27  C   UNL     1      -9.216   7.199  68.192  1.00  0.00    -0.131 A  
ENDBRANCH   4  22
TORSDOF 1
ENDMDL
MODEL       32
REMARK 921   NORMALIZED FREE ENERGY PREDICTED BY IDOCK:   -5.77 KCAL/MOL
REMARK 922        TOTAL FREE ENERGY PREDICTED BY IDOCK:   -5.93 KCAL/MOL
REMARK 923 INTER-LIGAND FREE ENERGY PREDICTED BY IDOCK:   -6.12 KCAL/MOL
REMARK 924 INTRA-LIGAND FREE ENERGY PREDICTED BY IDOCK:    0.19 KCAL/MOL
REMARK 927      BINDING AFFINITY PREDICTED BY RF-SCORE:    0.00 PKD
ROOT
HETATM    1  C   UNL     1      -7.889  15.797  69.677  1.00  0.00    -0.044 C  
HETATM    2  C   UNL     1      -6.871  14.797  69.544  1.00  0.00    -0.169 C  
HETATM    3  C   UNL     1      -7.244  15.568  68.319  1.00  0.00    -0.118 C  
HETATM    4  C   UNL     1      -8.048  16.934  68.454  1.00  0.00    -0.237 C  
HETATM    5  C   UNL     1     -11.516  15.332  66.284  1.00  0.00    -0.079 C  
HETATM    6  C   UNL     1      -6.748  17.034  68.771  1.00  0.00    -0.193 C  
HETATM    7  C   UNL     1      -5.871  17.799  69.723  1.00  0.00    -0.245 C  
HETATM    8  C   UNL     1     -10.340  14.345  66.215  1.00  0.00    -0.300 C  
HETATM    9  C   UNL     1      -6.693  17.146  66.919  1.00  0.00    -0.238 C  
HETATM   10  C   UNL     1     -10.037  14.014  64.731  1.00  0.00    -0.224 C  
HETATM   11  C   UNL     1      -8.104  16.231  66.100  1.00  0.00    -0.130 C  
HETATM   12  C   UNL     1      -9.052  14.947  66.931  1.00  0.00    -0.271 C  
HETATM   13  H   UNL     1     -10.743  10.947  63.232  1.00  0.00     0.000 HD 
HETATM   14  C   UNL     1      -9.353  15.051  68.687  1.00  0.00    -0.202 C  
HETATM   15  C   UNL     1     -11.192  13.298  64.013  1.00  0.00    -0.374 C  
HETATM   16  C   UNL     1      -9.709  13.643  69.189  1.00  0.00     0.314 C  
HETATM   17  O   UNL     1     -10.735  10.947  64.181  1.00  0.00    -0.362 OA 
HETATM   18  C   UNL     1     -10.487  12.795  68.234  1.00  0.00    -0.250 C  
HETATM   19  C   UNL     1     -10.770  13.051  66.941  1.00  0.00    -0.273 C  
HETATM   20  C   UNL     1     -11.574  11.986  66.210  1.00  0.00    -0.378 C  
HETATM   21  C   UNL     1     -11.587  11.986  64.676  1.00  0.00    -0.297 C  
ENDROOT
BRANCH   4  22
HETATM   22  C   UNL     1      -8.741  18.284  68.175  1.00  0.00    -0.293 A  
HETATM   23  N   UNL     1      -8.503  20.714  67.661  1.00  0.00    -0.182 NA 
HETATM   24  C   UNL     1      -9.811  20.782  67.404  1.00  0.00    -0.294 A  
HETATM   25  C   UNL     1     -10.649  19.697  67.565  1.00  0.00    -0.577 A  
HETATM   26  C   UNL     1     -10.111  18.462  67.987  1.00  0.00    -0.392 A  
HETATM   27  C   UNL     1      -8.025  19.494  68.037  1.00  0.00    -0.307 A  
ENDBRANCH   4  22
TORSDOF 1
ENDMDL
MODEL       33
REMARK 921   NORMALIZED FREE ENERGY PREDICTED BY IDOCK:   -5.63 KCAL/MOL
REMARK 922        TOTAL FREE ENERGY PREDICTED BY IDOCK:   -5.78 KCAL/MOL
REMARK 923 INTER-LIGAND FREE ENERGY PREDICTED BY IDOCK:   -6.03 KCAL/MOL
REMARK 924 INTRA-LIGAND FREE ENERGY PREDICTED BY IDOCK:    0.25 KCAL/MOL
REMARK 927      BINDING AFFINITY PREDICTED BY RF-SCORE:    0.00 PKD
ROOT
HETATM    1  C   UNL     1     -11.412   6.779  70.023  1.00  0.00    -0.390 C  
HETATM    2  C   UNL     1     -10.590   5.731  70.551  1.00  0.00    -0.359 C  
HETATM    3  C   UNL     1      -9.952   7.066  70.337  1.00  0.00    -0.187 C  
HETATM    4  C   UNL     1     -10.860   8.358  70.144  1.00  0.00    -0.238 C  
HETATM    5  C   UNL     1      -9.376   9.030  66.063  1.00  0.00    -0.305 C  
HETATM    6  C   UNL     1     -10.784   7.930  71.414  1.00  0.00    -0.258 C  
HETATM    7  C   UNL     1     -11.654   7.865  72.639  1.00  0.00    -0.435 C  
HETATM    8  C   UNL     1      -8.567   7.918  66.751  1.00  0.00    -0.133 C  
HETATM    9  C   UNL     1      -9.211   8.901  71.251  1.00  0.00    -0.328 C  
HETATM   10  C   UNL     1      -7.059   8.275  66.695  1.00  0.00    -0.077 C  
HETATM   11  C   UNL     1      -8.557   8.924  69.499  1.00  0.00    -0.134 C  
HETATM   12  C   UNL     1      -9.043   7.718  68.256  1.00  0.00    -0.130 C  
HETATM   13  H   UNL     1      -4.739   6.643  64.669  1.00  0.00     0.000 HD 
HETATM   14  C   UNL     1     -10.694   7.040  68.263  1.00  0.00    -0.231 C  
HETATM   15  C   UNL     1      -6.496   8.345  65.268  1.00  0.00    -0.055 C  
HETATM   16  C   UNL     1     -10.668   5.726  67.468  1.00  0.00    -0.320 C  
HETATM   17  O   UNL     1      -5.558   6.182  64.807  1.00  0.00    -0.020 OA 
HETATM   18  C   UNL     1      -9.733   5.696  66.301  1.00  0.00    -0.162 C  
HETATM   19  C   UNL     1      -8.802   6.611  65.962  1.00  0.00    -0.151 C  
HETATM   20  C   UNL     1      -7.982   6.299  64.719  1.00  0.00    -0.124 C  
HETATM   21  C   UNL     1      -6.659   7.043  64.495  1.00  0.00    -0.042 C  
ENDROOT
BRANCH   4  22
HETATM   22  C   UNL     1     -11.369   9.807  69.989  1.00  0.00    -0.269 A  
HETATM   23  N   UNL     1     -12.472  11.781  71.042  1.00  0.00    -0.359 NA 
HETATM   24  C   UNL     1     -12.141  12.524  69.984  1.00  0.00    -0.266 A  
HETATM   25  C   UNL     1     -11.499  11.990  68.884  1.00  0.00    -0.356 A  
HETATM   26  C   UNL     1     -11.150  10.623  68.880  1.00  0.00    -0.314 A  
HETATM   27  C   UNL     1     -12.089  10.473  71.006  1.00  0.00    -0.387 A  
ENDBRANCH   4  22
TORSDOF 1
ENDMDL
MODEL       34
REMARK 921   NORMALIZED FREE ENERGY PREDICTED BY IDOCK:   -5.45 KCAL/MOL
REMARK 922        TOTAL FREE ENERGY PREDICTED BY IDOCK:   -5.59 KCAL/MOL
REMARK 923 INTER-LIGAND FREE ENERGY PREDICTED BY IDOCK:   -5.80 KCAL/MOL
REMARK 924 INTRA-LIGAND FREE ENERGY PREDICTED BY IDOCK:    0.21 KCAL/MOL
REMARK 927      BINDING AFFINITY PREDICTED BY RF-SCORE:    0.00 PKD
ROOT
HETATM    1  C   UNL     1     -10.790  10.365  65.561  1.00  0.00     0.173 C  
HETATM    2  C   UNL     1     -10.038  10.952  64.491  1.00  0.00    -0.404 C  
HETATM    3  C   UNL     1      -9.426  10.969  65.855  1.00  0.00    -0.244 C  
HETATM    4  C   UNL     1      -9.990  10.008  66.991  1.00  0.00    -0.257 C  
HETATM    5  C   UNL     1     -11.239  13.390  69.502  1.00  0.00    -0.181 C  
HETATM    6  C   UNL     1      -9.233   9.383  66.075  1.00  0.00    -0.253 C  
HETATM    7  C   UNL     1      -9.156   8.045  65.394  1.00  0.00     0.096 C  
HETATM    8  C   UNL     1     -10.411  13.888  68.307  1.00  0.00    -0.249 C  
HETATM    9  C   UNL     1      -7.944  10.104  67.200  1.00  0.00    -0.109 C  
HETATM   10  C   UNL     1      -9.224  14.739  68.827  1.00  0.00    -0.196 C  
HETATM   11  C   UNL     1      -8.518  11.672  68.042  1.00  0.00    -0.151 C  
HETATM   12  C   UNL     1      -9.886  12.667  67.431  1.00  0.00    -0.205 C  
HETATM   13  H   UNL     1      -9.011  18.203  68.495  1.00  0.00     0.000 HD 
HETATM   14  C   UNL     1     -11.274  11.884  66.627  1.00  0.00    -0.384 C  
HETATM   15  C   UNL     1      -9.659  16.016  69.562  1.00  0.00    -0.200 C  
HETATM   16  C   UNL     1     -11.997  12.950  65.789  1.00  0.00    -0.496 C  
HETATM   17  O   UNL     1      -9.641  17.775  67.927  1.00  0.00    -0.267 OA 
HETATM   18  C   UNL     1     -12.006  14.329  66.368  1.00  0.00    -0.438 C  
HETATM   19  C   UNL     1     -11.328  14.781  67.442  1.00  0.00    -0.361 C  
HETATM   20  C   UNL     1     -11.525  16.250  67.787  1.00  0.00     0.016 C  
HETATM   21  C   UNL     1     -10.509  16.942  68.704  1.00  0.00    -0.352 C  
ENDROOT
BRANCH   4  22
HETATM   22  C   UNL     1     -10.196   9.213  68.297  1.00  0.00    -0.242 A  
HETATM   23  N   UNL     1     -11.264   9.092  70.549  1.00  0.00    -0.258 NA 
HETATM   24  C   UNL     1     -10.894   7.813  70.650  1.00  0.00    -0.237 A  
HETATM   25  C   UNL     1     -10.137   7.189  69.678  1.00  0.00    -0.196 A  
HETATM   26  C   UNL     1      -9.761   7.908  68.523  1.00  0.00    -0.167 A  
HETATM   27  C   UNL     1     -10.903   9.736  69.403  1.00  0.00    -0.232 A  
ENDBRANCH   4  22
TORSDOF 1
ENDMDL
MODEL       35
REMARK 921   NORMALIZED FREE ENERGY PREDICTED BY IDOCK:   -5.42 KCAL/MOL
REMARK 922        TOTAL FREE ENERGY PREDICTED BY IDOCK:   -5.56 KCAL/MOL
REMARK 923 INTER-LIGAND FREE ENERGY PREDICTED BY IDOCK:   -6.36 KCAL/MOL
REMARK 924 INTRA-LIGAND FREE ENERGY PREDICTED BY IDOCK:    0.79 KCAL/MOL
REMARK 927      BINDING AFFINITY PREDICTED BY RF-SCORE:    0.00 PKD
ROOT
HETATM    1  C   UNL     1      -8.585  11.419  67.529  1.00  0.00    -0.137 C  
HETATM    2  C   UNL     1      -8.314  11.206  68.920  1.00  0.00    -0.101 C  
HETATM    3  C   UNL     1      -9.328  12.245  68.566  1.00  0.00    -0.101 C  
HETATM    4  C   UNL     1      -9.972  12.265  67.111  1.00  0.00    -0.213 C  
HETATM    5  C   UNL     1      -8.284  16.220  66.208  1.00  0.00    -0.312 C  
HETATM    6  C   UNL     1     -10.455  11.299  67.907  1.00  0.00    -0.218 C  
HETATM    7  C   UNL     1     -10.967   9.889  67.792  1.00  0.00    -0.278 C  
HETATM    8  C   UNL     1      -8.061  15.868  67.688  1.00  0.00    -0.160 C  
HETATM    9  C   UNL     1     -11.442  12.769  68.461  1.00  0.00    -0.344 C  
HETATM   10  C   UNL     1      -8.639  17.001  68.575  1.00  0.00    -0.257 C  
HETATM   11  C   UNL     1     -10.523  14.382  68.232  1.00  0.00    -0.245 C  
HETATM   12  C   UNL     1      -8.735  14.473  68.047  1.00  0.00    -0.167 C  
HETATM   13  H   UNL     1      -6.688  19.263  70.373  1.00  0.00     0.000 HD 
HETATM   14  C   UNL     1      -7.854  13.164  67.213  1.00  0.00    -0.125 C  
HETATM   15  C   UNL     1      -7.935  18.353  68.383  1.00  0.00    -0.325 C  
HETATM   16  C   UNL     1      -6.380  13.240  67.641  1.00  0.00    -0.161 C  
HETATM   17  O   UNL     1      -6.241  18.477  70.081  1.00  0.00    -0.162 OA 
HETATM   18  C   UNL     1      -5.848  14.617  67.879  1.00  0.00    -0.142 C  
HETATM   19  C   UNL     1      -6.537  15.776  67.923  1.00  0.00    -0.165 C  
HETATM   20  C   UNL     1      -5.720  17.028  68.203  1.00  0.00    -0.120 C  
HETATM   21  C   UNL     1      -6.442  18.297  68.674  1.00  0.00    -0.225 C  
ENDROOT
BRANCH   4  22
HETATM   22  C   UNL     1     -10.846  12.572  65.877  1.00  0.00    -0.302 A  
HETATM   23  N   UNL     1     -12.091  14.272  64.542  1.00  0.00    -0.465 NA 
HETATM   24  C   UNL     1     -12.242  13.382  63.559  1.00  0.00    -0.400 A  
HETATM   25  C   UNL     1     -11.797  12.080  63.673  1.00  0.00    -0.602 A  
HETATM   26  C   UNL     1     -11.134  11.674  64.851  1.00  0.00    -0.317 A  
HETATM   27  C   UNL     1     -11.419  13.843  65.647  1.00  0.00    -0.318 A  
ENDBRANCH   4  22
TORSDOF 1
ENDMDL
MODEL       36
REMARK 921   NORMALIZED FREE ENERGY PREDICTED BY IDOCK:   -5.40 KCAL/MOL
REMARK 922        TOTAL FREE ENERGY PREDICTED BY IDOCK:   -5.53 KCAL/MOL
REMARK 923 INTER-LIGAND FREE ENERGY PREDICTED BY IDOCK:   -5.71 KCAL/MOL
REMARK 924 INTRA-LIGAND FREE ENERGY PREDICTED BY IDOCK:    0.18 KCAL/MOL
REMARK 927      BINDING AFFINITY PREDICTED BY RF-SCORE:    0.00 PKD
ROOT
HETATM    1  C   UNL     1      -8.790   6.493  67.012  1.00  0.00    -0.116 C  
HETATM    2  C   UNL     1      -9.999   5.954  66.465  1.00  0.00    -0.196 C  
HETATM    3  C   UNL     1      -9.936   7.433  66.672  1.00  0.00    -0.261 C  
HETATM    4  C   UNL     1      -8.529   8.146  66.886  1.00  0.00    -0.119 C  
HETATM    5  C   UNL     1      -9.593   9.461  70.941  1.00  0.00    -0.301 C  
HETATM    6  C   UNL     1      -8.775   7.796  65.614  1.00  0.00    -0.132 C  
HETATM    7  C   UNL     1      -8.018   7.321  64.404  1.00  0.00    -0.106 C  
HETATM    8  C   UNL     1     -10.819   8.859  70.235  1.00  0.00    -0.265 C  
HETATM    9  C   UNL     1      -9.707   9.396  65.750  1.00  0.00    -0.354 C  
HETATM   10  C   UNL     1     -11.980   9.885  70.264  1.00  0.00    -0.209 C  
HETATM   11  C   UNL     1     -10.304   9.735  67.490  1.00  0.00    -0.291 C  
HETATM   12  C   UNL     1     -10.467   8.449  68.738  1.00  0.00    -0.202 C  
HETATM   13  H   UNL     1     -14.832   9.553  72.241  1.00  0.00     0.000 HD 
HETATM   14  C   UNL     1      -9.331   7.073  68.759  1.00  0.00    -0.134 C  
HETATM   15  C   UNL     1     -12.469  10.220  71.681  1.00  0.00    -0.491 C  
HETATM   16  C   UNL     1      -9.988   5.930  69.549  1.00  0.00    -0.238 C  
HETATM   17  O   UNL     1     -14.325   8.759  72.117  1.00  0.00    -0.440 OA 
HETATM   18  C   UNL     1     -10.847   6.352  70.699  1.00  0.00    -0.331 C  
HETATM   19  C   UNL     1     -11.242   7.600  71.024  1.00  0.00    -0.283 C  
HETATM   20  C   UNL     1     -12.134   7.719  72.250  1.00  0.00    -0.332 C  
HETATM   21  C   UNL     1     -12.953   9.000  72.452  1.00  0.00    -0.405 C  
ENDROOT
BRANCH   4  22
HETATM   22  C   UNL     1      -7.400   9.183  67.055  1.00  0.00    -0.090 A  
HETATM   23  N   UNL     1      -5.880  10.844  65.980  1.00  0.00    -0.140 NA 
HETATM   24  C   UNL     1      -5.518  11.286  67.186  1.00  0.00    -0.073 A  
HETATM   25  C   UNL     1      -5.983  10.707  68.350  1.00  0.00    -0.046 A  
HETATM   26  C   UNL     1      -6.895   9.632  68.274  1.00  0.00    -0.069 A  
HETATM   27  C   UNL     1      -6.784   9.824  65.956  1.00  0.00    -0.087 A  
ENDBRANCH   4  22
TORSDOF 1
ENDMDL
MODEL       37
REMARK 921   NORMALIZED FREE ENERGY PREDICTED BY IDOCK:   -5.34 KCAL/MOL
REMARK 922        TOTAL FREE ENERGY PREDICTED BY IDOCK:   -5.47 KCAL/MOL
REMARK 923 INTER-LIGAND FREE ENERGY PREDICTED BY IDOCK:   -5.88 KCAL/MOL
REMARK 924 INTRA-LIGAND FREE ENERGY PREDICTED BY IDOCK:    0.41 KCAL/MOL
REMARK 927      BINDING AFFINITY PREDICTED BY RF-SCORE:    0.00 PKD
ROOT
HETATM    1  C   UNL     1      -8.451  12.210  68.014  1.00  0.00    -0.170 C  
HETATM    2  C   UNL     1      -8.019  11.465  66.869  1.00  0.00    -0.158 C  
HETATM    3  C   UNL     1      -9.451  11.333  67.277  1.00  0.00    -0.184 C  
HETATM    4  C   UNL     1     -10.099  12.405  68.258  1.00  0.00    -0.227 C  
HETATM    5  C   UNL     1     -10.832   9.395  71.374  1.00  0.00    -0.430 C  
HETATM    6  C   UNL     1      -9.942  12.843  67.000  1.00  0.00    -0.244 C  
HETATM    7  C   UNL     1      -9.634  14.127  66.279  1.00  0.00    -0.295 C  
HETATM    8  C   UNL     1     -10.361   8.718  70.077  1.00  0.00    -0.213 C  
HETATM    9  C   UNL     1     -11.522  11.878  66.867  1.00  0.00    -0.390 C  
HETATM   10  C   UNL     1     -11.394   7.640  69.660  1.00  0.00     0.111 C  
HETATM   11  C   UNL     1     -11.616  10.478  68.103  1.00  0.00    -0.145 C  
HETATM   12  C   UNL     1     -10.166   9.790  68.917  1.00  0.00    -0.213 C  
HETATM   13  H   UNL     1     -10.831   4.207  69.883  1.00  0.00     0.000 HD 
HETATM   14  C   UNL     1      -8.781  10.841  69.317  1.00  0.00    -0.044 C  
HETATM   15  C   UNL     1     -11.529   6.493  70.673  1.00  0.00    -0.433 C  
HETATM   16  C   UNL     1      -7.548   9.944  69.511  1.00  0.00    -0.125 C  
HETATM   17  O   UNL     1     -10.055   4.753  69.923  1.00  0.00    -0.235 OA 
HETATM   18  C   UNL     1      -7.815   8.606  70.122  1.00  0.00    -0.098 C  
HETATM   19  C   UNL     1      -9.009   8.031  70.371  1.00  0.00    -0.146 C  
HETATM   20  C   UNL     1      -8.966   6.642  70.991  1.00  0.00    -0.146 C  
HETATM   21  C   UNL     1     -10.220   5.760  70.927  1.00  0.00    -0.216 C  
ENDROOT
BRANCH   4  22
HETATM   22  C   UNL     1     -11.080  13.240  69.107  1.00  0.00    -0.259 A  
HETATM   23  N   UNL     1     -12.639  13.332  71.053  1.00  0.00    -0.354 NA 
HETATM   24  C   UNL     1     -12.714  14.658  70.924  1.00  0.00    -0.348 A  
HETATM   25  C   UNL     1     -12.075  15.334  69.903  1.00  0.00    -0.375 A  
HETATM   26  C   UNL     1     -11.291  14.612  68.978  1.00  0.00    -0.299 A  
HETATM   27  C   UNL     1     -11.847  12.681  70.154  1.00  0.00    -0.249 A  
ENDBRANCH   4  22
TORSDOF 1
ENDMDL
MODEL       38
REMARK 921   NORMALIZED FREE ENERGY PREDICTED BY IDOCK:   -5.28 KCAL/MOL
REMARK 922        TOTAL FREE ENERGY PREDICTED BY IDOCK:   -5.41 KCAL/MOL
REMARK 923 INTER-LIGAND FREE ENERGY PREDICTED BY IDOCK:   -5.70 KCAL/MOL
REMARK 924 INTRA-LIGAND FREE ENERGY PREDICTED BY IDOCK:    0.29 KCAL/MOL
REMARK 927      BINDING AFFINITY PREDICTED BY RF-SCORE:    0.00 PKD
ROOT
HETATM    1  C   UNL     1      -8.419  12.352  68.380  1.00  0.00    -0.131 C  
HETATM    2  C   UNL     1      -7.853  12.477  67.069  1.00  0.00    -0.065 C  
HETATM    3  C   UNL     1      -9.255  11.969  67.169  1.00  0.00    -0.190 C  
HETATM    4  C   UNL     1     -10.082  12.178  68.512  1.00  0.00    -0.192 C  
HETATM    5  C   UNL     1     -10.405   7.852  69.215  1.00  0.00    -0.222 C  
HETATM    6  C   UNL     1      -9.969  13.286  67.765  1.00  0.00    -0.223 C  
HETATM    7  C   UNL     1      -9.848  14.773  67.957  1.00  0.00    -0.218 C  
HETATM    8  C   UNL     1      -9.807   8.126  67.825  1.00  0.00    -0.209 C  
HETATM    9  C   UNL     1     -11.377  12.412  66.929  1.00  0.00    -0.392 C  
HETATM   10  C   UNL     1     -10.651   7.390  66.753  1.00  0.00    -0.281 C  
HETATM   11  C   UNL     1     -11.278  10.553  67.110  1.00  0.00    -0.134 C  
HETATM   12  C   UNL     1      -9.757   9.688  67.526  1.00  0.00    -0.195 C  
HETATM   13  H   UNL     1      -9.568   4.572  65.010  1.00  0.00     0.000 HD 
HETATM   14  C   UNL     1      -8.560  10.452  68.607  1.00  0.00    -0.133 C  
HETATM   15  C   UNL     1     -10.629   5.860  66.895  1.00  0.00    -0.384 C  
HETATM   16  C   UNL     1      -7.208   9.759  68.379  1.00  0.00    -0.077 C  
HETATM   17  O   UNL     1      -8.887   5.074  65.441  1.00  0.00    -0.144 OA 
HETATM   18  C   UNL     1      -7.276   8.298  68.071  1.00  0.00    -0.094 C  
HETATM   19  C   UNL     1      -8.372   7.556  67.812  1.00  0.00    -0.119 C  
HETATM   20  C   UNL     1      -8.127   6.084  67.515  1.00  0.00    -0.102 C  
HETATM   21  C   UNL     1      -9.227   5.272  66.818  1.00  0.00    -0.126 C  
ENDROOT
BRANCH   4  22
HETATM   22  C   UNL     1     -11.199  12.237  69.576  1.00  0.00    -0.185 A  
HETATM   23  N   UNL     1     -12.581  11.016  71.256  1.00  0.00    -0.406 NA 
HETATM   24  C   UNL     1     -13.038  12.181  71.720  1.00  0.00    -0.352 A  
HETATM   25  C   UNL     1     -12.689  13.387  71.146  1.00  0.00    -0.411 A  
HETATM   26  C   UNL     1     -11.798  13.403  70.051  1.00  0.00    -0.364 A  
HETATM   27  C   UNL     1     -11.702  11.082  70.216  1.00  0.00    -0.355 A  
ENDBRANCH   4  22
TORSDOF 1
ENDMDL
MODEL       39
REMARK 921   NORMALIZED FREE ENERGY PREDICTED BY IDOCK:   -5.19 KCAL/MOL
REMARK 922        TOTAL FREE ENERGY PREDICTED BY IDOCK:   -5.32 KCAL/MOL
REMARK 923 INTER-LIGAND FREE ENERGY PREDICTED BY IDOCK:   -5.53 KCAL/MOL
REMARK 924 INTRA-LIGAND FREE ENERGY PREDICTED BY IDOCK:    0.21 KCAL/MOL
REMARK 927      BINDING AFFINITY PREDICTED BY RF-SCORE:    0.00 PKD
ROOT
HETATM    1  C   UNL     1     -11.344  10.416  70.810  1.00  0.00    -0.370 C  
HETATM    2  C   UNL     1     -12.380  10.632  69.844  1.00  0.00    -0.304 C  
HETATM    3  C   UNL     1     -11.836   9.245  69.975  1.00  0.00     0.168 C  
HETATM    4  C   UNL     1     -10.998   8.839  71.265  1.00  0.00    -0.345 C  
HETATM    5  C   UNL     1      -7.371   8.077  68.905  1.00  0.00    -0.081 C  
HETATM    6  C   UNL     1     -12.321   8.915  71.477  1.00  0.00    -0.381 C  
HETATM    7  C   UNL     1     -13.270   9.300  72.578  1.00  0.00    -0.439 C  
HETATM    8  C   UNL     1      -8.571   8.323  67.977  1.00  0.00    -0.132 C  
HETATM    9  C   UNL     1     -12.157   7.224  70.728  1.00  0.00    -0.284 C  
HETATM   10  C   UNL     1      -8.713   7.129  66.999  1.00  0.00    -0.123 C  
HETATM   11  C   UNL     1     -10.699   7.091  69.564  1.00  0.00    -0.263 C  
HETATM   12  C   UNL     1      -9.907   8.523  68.818  1.00  0.00    -0.180 C  
HETATM   13  H   UNL     1      -7.966   7.290  63.597  1.00  0.00     0.000 HD 
HETATM   14  C   UNL     1      -9.807  10.061  69.718  1.00  0.00    -0.270 C  
HETATM   15  C   UNL     1      -7.514   6.962  66.053  1.00  0.00    -0.080 C  
HETATM   16  C   UNL     1      -9.569  11.189  68.702  1.00  0.00    -0.200 C  
HETATM   17  O   UNL     1      -8.083   8.126  64.031  1.00  0.00    -0.157 OA 
HETATM   18  C   UNL     1      -8.722  10.827  67.524  1.00  0.00    -0.125 C  
HETATM   19  C   UNL     1      -8.280   9.605  67.165  1.00  0.00    -0.120 C  
HETATM   20  C   UNL     1      -7.442   9.543  65.897  1.00  0.00    -0.100 C  
HETATM   21  C   UNL     1      -7.252   8.192  65.195  1.00  0.00    -0.072 C  
ENDROOT
BRANCH   4  22
HETATM   22  C   UNL     1     -10.222   8.062  72.348  1.00  0.00    -0.347 A  
HETATM   23  N   UNL     1      -8.066   7.699  73.551  1.00  0.00    -0.132 NA 
HETATM   24  C   UNL     1      -8.698   6.930  74.440  1.00  0.00    -0.180 A  
HETATM   25  C   UNL     1     -10.040   6.628  74.328  1.00  0.00    -0.378 A  
HETATM   26  C   UNL     1     -10.785   7.167  73.257  1.00  0.00    -0.403 A  
HETATM   27  C   UNL     1      -8.833   8.222  72.552  1.00  0.00    -0.229 A  
ENDBRANCH   4  22
TORSDOF 1
ENDMDL
MODEL       40
REMARK 921   NORMALIZED FREE ENERGY PREDICTED BY IDOCK:   -5.18 KCAL/MOL
REMARK 922        TOTAL FREE ENERGY PREDICTED BY IDOCK:   -5.31 KCAL/MOL
REMARK 923 INTER-LIGAND FREE ENERGY PREDICTED BY IDOCK:   -5.48 KCAL/MOL
REMARK 924 INTRA-LIGAND FREE ENERGY PREDICTED BY IDOCK:    0.18 KCAL/MOL
REMARK 927      BINDING AFFINITY PREDICTED BY RF-SCORE:    0.00 PKD
ROOT
HETATM    1  C   UNL     1      -7.710   7.988  68.029  1.00  0.00    -0.118 C  
HETATM    2  C   UNL     1      -7.395   6.719  67.442  1.00  0.00    -0.095 C  
HETATM    3  C   UNL     1      -8.804   6.942  67.887  1.00  0.00    -0.123 C  
HETATM    4  C   UNL     1      -9.325   8.419  68.167  1.00  0.00    -0.141 C  
HETATM    5  C   UNL     1     -10.045   7.568  72.417  1.00  0.00    -0.252 C  
HETATM    6  C   UNL     1      -9.220   8.116  66.864  1.00  0.00    -0.198 C  
HETATM    7  C   UNL     1      -8.880   8.798  65.568  1.00  0.00    -0.229 C  
HETATM    8  C   UNL     1      -9.696   6.274  71.664  1.00  0.00    -0.177 C  
HETATM    9  C   UNL     1     -10.860   7.360  67.294  1.00  0.00    -0.326 C  
HETATM   10  C   UNL     1     -10.815   5.228  71.901  1.00  0.00    -0.218 C  
HETATM   11  C   UNL     1     -10.962   6.832  69.085  1.00  0.00    -0.290 C  
HETATM   12  C   UNL     1      -9.509   6.555  70.109  1.00  0.00    -0.164 C  
HETATM   13  H   UNL     1     -10.447   2.391  73.893  1.00  0.00     0.000 HD 
HETATM   14  C   UNL     1      -8.041   7.540  69.864  1.00  0.00    -0.129 C  
HETATM   15  C   UNL     1     -10.957   4.801  73.370  1.00  0.00    -0.396 C  
HETATM   16  C   UNL     1      -6.855   6.780  70.478  1.00  0.00    -0.058 C  
HETATM   17  O   UNL     1      -9.639   2.809  73.622  1.00  0.00    -0.090 OA 
HETATM   18  C   UNL     1      -7.163   5.990  71.710  1.00  0.00    -0.088 C  
HETATM   19  C   UNL     1      -8.372   5.734  72.249  1.00  0.00    -0.118 C  
HETATM   20  C   UNL     1      -8.375   4.880  73.508  1.00  0.00    -0.106 C  
HETATM   21  C   UNL     1      -9.680   4.204  73.946  1.00  0.00    -0.114 C  
ENDROOT
BRANCH   4  22
HETATM   22  C   UNL     1     -10.200   9.654  68.466  1.00  0.00    -0.216 A  
HETATM   23  N   UNL     1     -11.694  11.446  67.584  1.00  0.00    -0.594 NA 
HETATM   24  C   UNL     1     -12.035  11.771  68.833  1.00  0.00    -0.271 A  
HETATM   25  C   UNL     1     -11.473  11.150  69.931  1.00  0.00    -0.386 A  
HETATM   26  C   UNL     1     -10.529  10.119  69.738  1.00  0.00    -0.301 A  
HETATM   27  C   UNL     1     -10.802  10.425  67.446  1.00  0.00    -0.286 A  
ENDBRANCH   4  22
TORSDOF 1
ENDMDL
MODEL       41
REMARK 921   NORMALIZED FREE ENERGY PREDICTED BY IDOCK:   -5.14 KCAL/MOL
REMARK 922        TOTAL FREE ENERGY PREDICTED BY IDOCK:   -5.26 KCAL/MOL
REMARK 923 INTER-LIGAND FREE ENERGY PREDICTED BY IDOCK:   -5.49 KCAL/MOL
REMARK 924 INTRA-LIGAND FREE ENERGY PREDICTED BY IDOCK:    0.23 KCAL/MOL
REMARK 927      BINDING AFFINITY PREDICTED BY RF-SCORE:    0.00 PKD
ROOT
HETATM    1  C   UNL     1     -10.193  14.053  65.495  1.00  0.00    -0.362 C  
HETATM    2  C   UNL     1     -11.566  13.834  65.149  1.00  0.00    -0.341 C  
HETATM    3  C   UNL     1     -11.157  13.551  66.558  1.00  0.00    -0.310 C  
HETATM    4  C   UNL     1      -9.788  14.136  67.120  1.00  0.00    -0.253 C  
HETATM    5  C   UNL     1      -8.113  10.124  67.757  1.00  0.00    -0.109 C  
HETATM    6  C   UNL     1     -10.770  15.046  67.023  1.00  0.00    -0.304 C  
HETATM    7  C   UNL     1     -10.929  16.510  66.721  1.00  0.00     0.046 C  
HETATM    8  C   UNL     1      -9.600  10.029  67.379  1.00  0.00    -0.182 C  
HETATM    9  C   UNL     1     -11.182  14.220  68.634  1.00  0.00    -0.287 C  
HETATM   10  C   UNL     1     -10.351   9.214  68.463  1.00  0.00    -0.236 C  
HETATM   11  C   UNL     1     -10.612  12.439  68.695  1.00  0.00    -0.243 C  
HETATM   12  C   UNL     1     -10.239  11.478  67.221  1.00  0.00    -0.229 C  
HETATM   13  H   UNL     1     -11.569   5.983  67.982  1.00  0.00     0.000 HD 
HETATM   14  C   UNL     1      -9.536  12.275  65.787  1.00  0.00    -0.185 C  
HETATM   15  C   UNL     1      -9.880   7.755  68.572  1.00  0.00    -0.181 C  
HETATM   16  C   UNL     1      -9.798  11.374  64.571  1.00  0.00    -0.302 C  
HETATM   17  O   UNL     1     -11.361   6.464  67.190  1.00  0.00    -0.308 OA 
HETATM   18  C   UNL     1      -9.764   9.903  64.838  1.00  0.00    -0.332 C  
HETATM   19  C   UNL     1      -9.694   9.279  66.032  1.00  0.00    -0.359 C  
HETATM   20  C   UNL     1      -9.691   7.758  65.992  1.00  0.00     0.066 C  
HETATM   21  C   UNL     1     -10.027   6.980  67.270  1.00  0.00    -0.181 C  
ENDROOT
BRANCH   4  22
HETATM   22  C   UNL     1      -8.615  14.558  68.029  1.00  0.00    -0.162 A  
HETATM   23  N   UNL     1      -7.499  16.370  69.331  1.00  0.00    -0.196 NA 
HETATM   24  C   UNL     1      -6.692  15.465  69.889  1.00  0.00    -0.130 A  
HETATM   25  C   UNL     1      -6.731  14.131  69.537  1.00  0.00    -0.112 A  
HETATM   26  C   UNL     1      -7.670  13.693  68.579  1.00  0.00    -0.129 A  
HETATM   27  C   UNL     1      -8.409  15.896  68.433  1.00  0.00    -0.174 A  
ENDBRANCH   4  22
TORSDOF 1
ENDMDL
MODEL       42
REMARK 921   NORMALIZED FREE ENERGY PREDICTED BY IDOCK:   -5.09 KCAL/MOL
REMARK 922        TOTAL FREE ENERGY PREDICTED BY IDOCK:   -5.21 KCAL/MOL
REMARK 923 INTER-LIGAND FREE ENERGY PREDICTED BY IDOCK:   -5.97 KCAL/MOL
REMARK 924 INTRA-LIGAND FREE ENERGY PREDICTED BY IDOCK:    0.77 KCAL/MOL
REMARK 927      BINDING AFFINITY PREDICTED BY RF-SCORE:    0.00 PKD
ROOT
HETATM    1  C   UNL     1     -10.317  13.017  68.823  1.00  0.00    -0.146 C  
HETATM    2  C   UNL     1     -11.288  13.512  69.754  1.00  0.00    -0.161 C  
HETATM    3  C   UNL     1     -11.469  13.870  68.314  1.00  0.00    -0.346 C  
HETATM    4  C   UNL     1     -10.696  13.053  67.189  1.00  0.00    -0.266 C  
HETATM    5  C   UNL     1      -8.436  16.593  65.897  1.00  0.00    -0.024 C  
HETATM    6  C   UNL     1     -11.745  12.400  67.711  1.00  0.00    -0.413 C  
HETATM    7  C   UNL     1     -12.151  10.990  68.040  1.00  0.00     0.229 C  
HETATM    8  C   UNL     1      -9.524  16.992  66.907  1.00  0.00    -0.266 C  
HETATM    9  C   UNL     1     -12.571  13.504  66.468  1.00  0.00    -0.181 C  
HETATM   10  C   UNL     1     -10.416  18.098  66.287  1.00  0.00    -0.374 C  
HETATM   11  C   UNL     1     -11.622  15.088  66.170  1.00  0.00    -0.159 C  
HETATM   12  C   UNL     1     -10.401  15.731  67.325  1.00  0.00    -0.290 C  
HETATM   13  H   UNL     1     -10.372  21.435  67.294  1.00  0.00     0.000 HD 
HETATM   14  C   UNL     1      -9.394  14.608  68.280  1.00  0.00    -0.199 C  
HETATM   15  C   UNL     1      -9.661  19.402  65.989  1.00  0.00    -0.291 C  
HETATM   16  C   UNL     1      -8.847  15.379  69.491  1.00  0.00    -0.217 C  
HETATM   17  O   UNL     1      -9.982  20.819  67.902  1.00  0.00    -0.263 OA 
HETATM   18  C   UNL     1      -8.531  16.821  69.249  1.00  0.00     0.037 C  
HETATM   19  C   UNL     1      -8.817  17.560  68.158  1.00  0.00    -0.263 C  
HETATM   20  C   UNL     1      -8.382  19.017  68.205  1.00  0.00    -0.369 C  
HETATM   21  C   UNL     1      -9.011  20.014  67.223  1.00  0.00    -0.346 C  
ENDROOT
BRANCH   4  22
HETATM   22  C   UNL     1     -10.196  12.484  65.844  1.00  0.00    -0.280 A  
HETATM   23  N   UNL     1      -9.005  10.653  64.639  1.00  0.00    -0.196 NA 
HETATM   24  C   UNL     1      -9.417  11.158  63.474  1.00  0.00    -0.276 A  
HETATM   25  C   UNL     1     -10.147  12.327  63.399  1.00  0.00    -0.290 A  
HETATM   26  C   UNL     1     -10.500  13.003  64.587  1.00  0.00    -0.400 A  
HETATM   27  C   UNL     1      -9.394  11.323  65.760  1.00  0.00    -0.223 A  
ENDBRANCH   4  22
TORSDOF 1
ENDMDL
MODEL       43
REMARK 921   NORMALIZED FREE ENERGY PREDICTED BY IDOCK:   -5.08 KCAL/MOL
REMARK 922        TOTAL FREE ENERGY PREDICTED BY IDOCK:   -5.20 KCAL/MOL
REMARK 923 INTER-LIGAND FREE ENERGY PREDICTED BY IDOCK:   -5.37 KCAL/MOL
REMARK 924 INTRA-LIGAND FREE ENERGY PREDICTED BY IDOCK:    0.17 KCAL/MOL
REMARK 927      BINDING AFFINITY PREDICTED BY RF-SCORE:    0.00 PKD
ROOT
HETATM    1  C   UNL     1      -9.320   9.380  70.078  1.00  0.00    -0.253 C  
HETATM    2  C   UNL     1     -10.649   9.655  70.536  1.00  0.00    -0.369 C  
HETATM    3  C   UNL     1     -10.504   8.914  69.247  1.00  0.00    -0.234 C  
HETATM    4  C   UNL     1      -9.117   8.227  68.877  1.00  0.00    -0.147 C  
HETATM    5  C   UNL     1      -8.564  10.794  65.354  1.00  0.00    -0.162 C  
HETATM    6  C   UNL     1      -9.827   7.558  69.799  1.00  0.00    -0.180 C  
HETATM    7  C   UNL     1      -9.585   6.709  71.016  1.00  0.00    -0.178 C  
HETATM    8  C   UNL     1      -9.968  10.994  65.946  1.00  0.00    -0.289 C  
HETATM    9  C   UNL     1     -10.629   6.992  68.223  1.00  0.00    -0.238 C  
HETATM   10  C   UNL     1     -11.027  10.756  64.839  1.00  0.00     0.086 C  
HETATM   11  C   UNL     1     -10.523   8.269  66.862  1.00  0.00    -0.365 C  
HETATM   12  C   UNL     1     -10.210  10.013  67.176  1.00  0.00    -0.284 C  
HETATM   13  H   UNL     1     -12.923  13.287  63.373  1.00  0.00     0.000 HD 
HETATM   14  C   UNL     1      -9.158  10.503  68.532  1.00  0.00    -0.154 C  
HETATM   15  C   UNL     1     -10.943  11.762  63.682  1.00  0.00    -0.513 C  
HETATM   16  C   UNL     1      -9.475  11.969  68.869  1.00  0.00     0.132 C  
HETATM   17  O   UNL     1     -12.505  13.512  64.196  1.00  0.00    -0.624 OA 
HETATM   18  C   UNL     1      -9.833  12.835  67.704  1.00  0.00    -0.214 C  
HETATM   19  C   UNL     1     -10.070  12.457  66.431  1.00  0.00    -0.252 C  
HETATM   20  C   UNL     1     -10.432  13.570  65.460  1.00  0.00    -0.304 C  
HETATM   21  C   UNL     1     -11.107  13.207  64.131  1.00  0.00    -0.394 C  
ENDROOT
BRANCH   4  22
HETATM   22  C   UNL     1      -8.002   7.398  68.207  1.00  0.00    -0.124 A  
HETATM   23  N   UNL     1      -6.922   5.170  67.899  1.00  0.00    -0.060 NA 
HETATM   24  C   UNL     1      -6.194   5.667  66.896  1.00  0.00    -0.034 A  
HETATM   25  C   UNL     1      -6.256   6.997  66.534  1.00  0.00    -0.042 A  
HETATM   26  C   UNL     1      -7.135   7.863  67.219  1.00  0.00    -0.083 A  
HETATM   27  C   UNL     1      -7.777   6.036  68.512  1.00  0.00    -0.095 A  
ENDBRANCH   4  22
TORSDOF 1
ENDMDL
MODEL       44
REMARK 921   NORMALIZED FREE ENERGY PREDICTED BY IDOCK:   -5.07 KCAL/MOL
REMARK 922        TOTAL FREE ENERGY PREDICTED BY IDOCK:   -5.19 KCAL/MOL
REMARK 923 INTER-LIGAND FREE ENERGY PREDICTED BY IDOCK:   -5.47 KCAL/MOL
REMARK 924 INTRA-LIGAND FREE ENERGY PREDICTED BY IDOCK:    0.28 KCAL/MOL
REMARK 927      BINDING AFFINITY PREDICTED BY RF-SCORE:    0.00 PKD
ROOT
HETATM    1  C   UNL     1      -9.061   8.520  66.824  1.00  0.00    -0.186 C  
HETATM    2  C   UNL     1     -10.150   7.699  66.385  1.00  0.00    -0.097 C  
HETATM    3  C   UNL     1     -10.441   8.732  67.425  1.00  0.00    -0.349 C  
HETATM    4  C   UNL     1      -9.416   9.925  67.668  1.00  0.00    -0.167 C  
HETATM    5  C   UNL     1      -8.598   8.639  71.789  1.00  0.00    -0.240 C  
HETATM    6  C   UNL     1     -10.158  10.062  66.559  1.00  0.00    -0.296 C  
HETATM    7  C   UNL     1     -10.024  10.622  65.170  1.00  0.00    -0.366 C  
HETATM    8  C   UNL     1      -9.762   7.829  71.197  1.00  0.00    -0.175 C  
HETATM    9  C   UNL     1     -11.322  10.677  67.868  1.00  0.00    -0.342 C  
HETATM   10  C   UNL     1     -10.992   7.944  72.133  1.00  0.00    -0.339 C  
HETATM   11  C   UNL     1     -11.016   9.884  69.533  1.00  0.00    -0.274 C  
HETATM   12  C   UNL     1     -10.120   8.337  69.733  1.00  0.00    -0.197 C  
HETATM   13  H   UNL     1     -12.175   5.345  74.133  1.00  0.00     0.000 HD 
HETATM   14  C   UNL     1      -8.779   7.931  68.627  1.00  0.00    -0.128 C  
HETATM   15  C   UNL     1     -10.763   7.340  73.527  1.00  0.00    -0.367 C  
HETATM   16  C   UNL     1      -8.558   6.411  68.692  1.00  0.00    -0.123 C  
HETATM   17  O   UNL     1     -11.591   5.088  73.430  1.00  0.00    -0.291 OA 
HETATM   18  C   UNL     1      -8.789   5.783  70.029  1.00  0.00    -0.139 C  
HETATM   19  C   UNL     1      -9.318   6.350  71.131  1.00  0.00    -0.166 C  
HETATM   20  C   UNL     1      -9.445   5.450  72.351  1.00  0.00    -0.162 C  
HETATM   21  C   UNL     1     -10.389   5.865  73.487  1.00  0.00    -0.243 C  
ENDROOT
BRANCH   4  22
HETATM   22  C   UNL     1      -8.735  11.225  68.145  1.00  0.00    -0.155 A  
HETATM   23  N   UNL     1      -6.760  12.300  69.224  1.00  0.00    -0.099 NA 
HETATM   24  C   UNL     1      -7.220  13.499  68.861  1.00  0.00    -0.070 A  
HETATM   25  C   UNL     1      -8.429  13.656  68.213  1.00  0.00    -0.170 A  
HETATM   26  C   UNL     1      -9.197  12.516  67.892  1.00  0.00    -0.200 A  
HETATM   27  C   UNL     1      -7.521  11.227  68.867  1.00  0.00    -0.123 A  
ENDBRANCH   4  22
TORSDOF 1
ENDMDL
MODEL       45
REMARK 921   NORMALIZED FREE ENERGY PREDICTED BY IDOCK:   -5.06 KCAL/MOL
REMARK 922        TOTAL FREE ENERGY PREDICTED BY IDOCK:   -5.18 KCAL/MOL
REMARK 923 INTER-LIGAND FREE ENERGY PREDICTED BY IDOCK:   -5.62 KCAL/MOL
REMARK 924 INTRA-LIGAND FREE ENERGY PREDICTED BY IDOCK:    0.44 KCAL/MOL
REMARK 927      BINDING AFFINITY PREDICTED BY RF-SCORE:    0.00 PKD
ROOT
HETATM    1  C   UNL     1     -11.106  11.369  68.914  1.00  0.00    -0.290 C  
HETATM    2  C   UNL     1     -12.153  11.351  67.936  1.00  0.00     0.067 C  
HETATM    3  C   UNL     1     -10.762  11.604  67.452  1.00  0.00    -0.277 C  
HETATM    4  C   UNL     1      -9.520  11.248  68.381  1.00  0.00    -0.192 C  
HETATM    5  C   UNL     1      -8.248  15.447  68.620  1.00  0.00    -0.158 C  
HETATM    6  C   UNL     1     -10.097  10.179  67.810  1.00  0.00    -0.216 C  
HETATM    7  C   UNL     1     -10.373   8.736  68.130  1.00  0.00    -0.266 C  
HETATM    8  C   UNL     1      -9.379  15.288  67.591  1.00  0.00    -0.199 C  
HETATM    9  C   UNL     1      -9.008  10.797  66.439  1.00  0.00    -0.179 C  
HETATM   10  C   UNL     1      -8.916  15.869  66.230  1.00  0.00    -0.381 C  
HETATM   11  C   UNL     1      -8.723  12.643  66.522  1.00  0.00    -0.011 C  
HETATM   12  C   UNL     1      -9.796  13.760  67.438  1.00  0.00    -0.238 C  
HETATM   13  H   UNL     1     -10.121  18.840  64.862  1.00  0.00     0.000 HD 
HETATM   14  C   UNL     1     -10.580  13.213  68.945  1.00  0.00    -0.159 C  
HETATM   15  C   UNL     1      -8.631  17.378  66.270  1.00  0.00    -0.246 C  
HETATM   16  C   UNL     1     -11.781  14.134  69.213  1.00  0.00    -0.368 C  
HETATM   17  O   UNL     1     -10.650  18.463  65.555  1.00  0.00    -0.627 OA 
HETATM   18  C   UNL     1     -11.602  15.562  68.808  1.00  0.00    -0.390 C  
HETATM   19  C   UNL     1     -10.591  16.101  68.097  1.00  0.00    -0.290 C  
HETATM   20  C   UNL     1     -10.689  17.595  67.823  1.00  0.00    -0.336 C  
HETATM   21  C   UNL     1      -9.835  18.203  66.703  1.00  0.00    -0.350 C  
ENDROOT
BRANCH   4  22
HETATM   22  C   UNL     1      -8.102  10.989  68.931  1.00  0.00    -0.135 A  
HETATM   23  N   UNL     1      -6.531   9.417  70.064  1.00  0.00    -0.051 NA 
HETATM   24  C   UNL     1      -5.514  10.232  69.775  1.00  0.00    -0.038 A  
HETATM   25  C   UNL     1      -5.703  11.445  69.142  1.00  0.00    -0.045 A  
HETATM   26  C   UNL     1      -7.005  11.832  68.758  1.00  0.00    -0.103 A  
HETATM   27  C   UNL     1      -7.765   9.819  69.648  1.00  0.00    -0.136 A  
ENDBRANCH   4  22
TORSDOF 1
ENDMDL
MODEL       46
REMARK 921   NORMALIZED FREE ENERGY PREDICTED BY IDOCK:   -5.01 KCAL/MOL
REMARK 922        TOTAL FREE ENERGY PREDICTED BY IDOCK:   -5.13 KCAL/MOL
REMARK 923 INTER-LIGAND FREE ENERGY PREDICTED BY IDOCK:   -5.32 KCAL/MOL
REMARK 924 INTRA-LIGAND FREE ENERGY PREDICTED BY IDOCK:    0.19 KCAL/MOL
REMARK 927      BINDING AFFINITY PREDICTED BY RF-SCORE:    0.00 PKD
ROOT
HETATM    1  C   UNL     1      -8.009   8.302  66.926  1.00  0.00    -0.099 C  
HETATM    2  C   UNL     1      -9.043   8.014  65.977  1.00  0.00    -0.193 C  
HETATM    3  C   UNL     1      -9.239   9.194  66.874  1.00  0.00    -0.183 C  
HETATM    4  C   UNL     1      -7.999   9.812  67.655  1.00  0.00    -0.105 C  
HETATM    5  C   UNL     1      -9.740   8.848  71.573  1.00  0.00    -0.372 C  
HETATM    6  C   UNL     1      -8.031  10.124  66.351  1.00  0.00    -0.120 C  
HETATM    7  C   UNL     1      -7.068  10.374  65.224  1.00  0.00    -0.098 C  
HETATM    8  C   UNL     1     -10.761   8.584  70.454  1.00  0.00    -0.246 C  
HETATM    9  C   UNL     1      -9.213  11.366  67.063  1.00  0.00    -0.174 C  
HETATM   10  C   UNL     1     -12.064   9.367  70.757  1.00  0.00    -0.270 C  
HETATM   11  C   UNL     1     -10.062  10.747  68.610  1.00  0.00    -0.194 C  
HETATM   12  C   UNL     1     -10.170   9.003  69.037  1.00  0.00    -0.216 C  
HETATM   13  H   UNL     1     -15.046   7.875  71.775  1.00  0.00     0.000 HD 
HETATM   14  C   UNL     1      -8.843   7.891  68.605  1.00  0.00    -0.134 C  
HETATM   15  C   UNL     1     -12.768   8.914  72.045  1.00  0.00    -0.456 C  
HETATM   16  C   UNL     1      -9.402   6.460  68.617  1.00  0.00    -0.124 C  
HETATM   17  O   UNL     1     -14.409   7.291  71.381  1.00  0.00    -0.431 OA 
HETATM   18  C   UNL     1     -10.450   6.186  69.649  1.00  0.00    -0.312 C  
HETATM   19  C   UNL     1     -11.073   7.071  70.452  1.00  0.00    -0.323 C  
HETATM   20  C   UNL     1     -12.115   6.496  71.400  1.00  0.00    -0.344 C  
HETATM   21  C   UNL     1     -13.144   7.439  72.036  1.00  0.00    -0.149 C  
ENDROOT
BRANCH   4  22
HETATM   22  C   UNL     1      -7.076  10.712  68.504  1.00  0.00    -0.069 A  
HETATM   23  N   UNL     1      -6.042  11.176  70.727  1.00  0.00    -0.358 NA 
HETATM   24  C   UNL     1      -5.243  12.082  70.160  1.00  0.00    -0.092 A  
HETATM   25  C   UNL     1      -5.334  12.406  68.821  1.00  0.00    -0.054 A  
HETATM   26  C   UNL     1      -6.279  11.743  68.009  1.00  0.00    -0.052 A  
HETATM   27  C   UNL     1      -6.918  10.540  69.898  1.00  0.00    -0.150 A  
ENDBRANCH   4  22
TORSDOF 1
ENDMDL
MODEL       47
REMARK 921   NORMALIZED FREE ENERGY PREDICTED BY IDOCK:   -5.01 KCAL/MOL
REMARK 922        TOTAL FREE ENERGY PREDICTED BY IDOCK:   -5.13 KCAL/MOL
REMARK 923 INTER-LIGAND FREE ENERGY PREDICTED BY IDOCK:   -5.31 KCAL/MOL
REMARK 924 INTRA-LIGAND FREE ENERGY PREDICTED BY IDOCK:    0.19 KCAL/MOL
REMARK 927      BINDING AFFINITY PREDICTED BY RF-SCORE:    0.00 PKD
ROOT
HETATM    1  C   UNL     1      -6.919   9.595  69.068  1.00  0.00    -0.058 C  
HETATM    2  C   UNL     1      -6.520  10.481  70.120  1.00  0.00    -0.144 C  
HETATM    3  C   UNL     1      -7.970  10.133  70.026  1.00  0.00    -0.108 C  
HETATM    4  C   UNL     1      -8.431   8.874  69.168  1.00  0.00    -0.132 C  
HETATM    5  C   UNL     1     -10.723  11.373  66.374  1.00  0.00    -0.325 C  
HETATM    6  C   UNL     1      -7.883   8.556  70.351  1.00  0.00    -0.089 C  
HETATM    7  C   UNL     1      -7.036   7.466  70.949  1.00  0.00    -0.063 C  
HETATM    8  C   UNL     1     -10.234  12.213  67.565  1.00  0.00    -0.209 C  
HETATM    9  C   UNL     1      -9.624   8.970  70.843  1.00  0.00    -0.328 C  
HETATM   10  C   UNL     1     -11.446  12.919  68.224  1.00  0.00    -0.348 C  
HETATM   11  C   UNL     1     -10.417  10.219  69.700  1.00  0.00    -0.286 C  
HETATM   12  C   UNL     1      -9.468  11.304  68.623  1.00  0.00    -0.179 C  
HETATM   13  H   UNL     1     -12.072  16.341  68.000  1.00  0.00     0.000 HD 
HETATM   14  C   UNL     1      -7.935  10.737  67.908  1.00  0.00    -0.110 C  
HETATM   15  C   UNL     1     -12.150  13.924  67.299  1.00  0.00    -0.403 C  
HETATM   16  C   UNL     1      -7.124  11.973  67.489  1.00  0.00    -0.129 C  
HETATM   17  O   UNL     1     -11.189  16.071  67.780  1.00  0.00    -0.315 OA 
HETATM   18  C   UNL     1      -7.926  13.132  66.991  1.00  0.00     0.001 C  
HETATM   19  C   UNL     1      -9.266  13.285  67.017  1.00  0.00    -0.237 C  
HETATM   20  C   UNL     1      -9.801  14.590  66.447  1.00  0.00    -0.306 C  
HETATM   21  C   UNL     1     -11.228  15.027  66.801  1.00  0.00    -0.322 C  
ENDROOT
BRANCH   4  22
HETATM   22  C   UNL     1      -9.247   7.738  68.517  1.00  0.00    -0.137 A  
HETATM   23  N   UNL     1     -10.073   5.387  68.650  1.00  0.00    -0.174 NA 
HETATM   24  C   UNL     1     -10.886   5.620  67.618  1.00  0.00    -0.089 A  
HETATM   25  C   UNL     1     -10.898   6.828  66.950  1.00  0.00    -0.402 A  
HETATM   26  C   UNL     1     -10.048   7.869  67.384  1.00  0.00    -0.292 A  
HETATM   27  C   UNL     1      -9.292   6.430  69.051  1.00  0.00    -0.127 A  
ENDBRANCH   4  22
TORSDOF 1
ENDMDL
MODEL       48
REMARK 921   NORMALIZED FREE ENERGY PREDICTED BY IDOCK:   -5.00 KCAL/MOL
REMARK 922        TOTAL FREE ENERGY PREDICTED BY IDOCK:   -5.12 KCAL/MOL
REMARK 923 INTER-LIGAND FREE ENERGY PREDICTED BY IDOCK:   -5.30 KCAL/MOL
REMARK 924 INTRA-LIGAND FREE ENERGY PREDICTED BY IDOCK:    0.18 KCAL/MOL
REMARK 927      BINDING AFFINITY PREDICTED BY RF-SCORE:    0.00 PKD
ROOT
HETATM    1  C   UNL     1      -8.134  11.013  68.825  1.00  0.00    -0.145 C  
HETATM    2  C   UNL     1      -7.511  11.236  67.554  1.00  0.00    -0.106 C  
HETATM    3  C   UNL     1      -8.873  10.622  67.555  1.00  0.00    -0.132 C  
HETATM    4  C   UNL     1      -9.784  10.711  68.857  1.00  0.00    -0.210 C  
HETATM    5  C   UNL     1      -9.812   6.347  69.372  1.00  0.00    -0.170 C  
HETATM    6  C   UNL     1      -9.716  11.856  68.160  1.00  0.00    -0.194 C  
HETATM    7  C   UNL     1      -9.720  13.338  68.416  1.00  0.00    -0.198 C  
HETATM    8  C   UNL     1      -9.164   6.724  68.029  1.00  0.00    -0.117 C  
HETATM    9  C   UNL     1     -11.007  10.916  67.213  1.00  0.00    -0.355 C  
HETATM   10  C   UNL     1      -9.892   5.974  66.884  1.00  0.00    -0.190 C  
HETATM   11  C   UNL     1     -10.777   9.063  67.328  1.00  0.00    -0.222 C  
HETATM   12  C   UNL     1      -9.218   8.297  67.795  1.00  0.00    -0.144 C  
HETATM   13  H   UNL     1      -8.505   3.321  65.096  1.00  0.00     0.000 HD 
HETATM   14  C   UNL     1      -8.141   9.101  68.969  1.00  0.00    -0.102 C  
HETATM   15  C   UNL     1      -9.760   4.445  66.968  1.00  0.00    -0.232 C  
HETATM   16  C   UNL     1      -6.730   8.520  68.791  1.00  0.00    -0.058 C  
HETATM   17  O   UNL     1      -7.889   3.853  65.584  1.00  0.00    -0.088 OA 
HETATM   18  C   UNL     1      -6.670   7.072  68.423  1.00  0.00    -0.064 C  
HETATM   19  C   UNL     1      -7.691   6.263  68.074  1.00  0.00    -0.103 C  
HETATM   20  C   UNL     1      -7.319   4.827  67.735  1.00  0.00    -0.070 C  
HETATM   21  C   UNL     1      -8.315   3.967  66.947  1.00  0.00    -0.100 C  
ENDROOT
BRANCH   4  22
HETATM   22  C   UNL     1     -10.956  10.642  69.858  1.00  0.00    -0.337 A  
HETATM   23  N   UNL     1     -12.061   9.424  71.734  1.00  0.00    -0.374 NA 
HETATM   24  C   UNL     1     -12.877  10.464  71.922  1.00  0.00    -0.415 A  
HETATM   25  C   UNL     1     -12.847  11.577  71.106  1.00  0.00    -0.414 A  
HETATM   26  C   UNL     1     -11.909  11.641  70.053  1.00  0.00    -0.435 A  
HETATM   27  C   UNL     1     -11.153   9.543  70.724  1.00  0.00    -0.323 A  
ENDBRANCH   4  22
TORSDOF 1
ENDMDL
MODEL       49
REMARK 921   NORMALIZED FREE ENERGY PREDICTED BY IDOCK:   -4.99 KCAL/MOL
REMARK 922        TOTAL FREE ENERGY PREDICTED BY IDOCK:   -5.10 KCAL/MOL
REMARK 923 INTER-LIGAND FREE ENERGY PREDICTED BY IDOCK:   -5.27 KCAL/MOL
REMARK 924 INTRA-LIGAND FREE ENERGY PREDICTED BY IDOCK:    0.17 KCAL/MOL
REMARK 927      BINDING AFFINITY PREDICTED BY RF-SCORE:    0.00 PKD
ROOT
HETATM    1  C   UNL     1     -11.267  10.258  68.802  1.00  0.00    -0.260 C  
HETATM    2  C   UNL     1     -10.924  10.329  70.192  1.00  0.00    -0.377 C  
HETATM    3  C   UNL     1      -9.862  10.680  69.201  1.00  0.00    -0.217 C  
HETATM    4  C   UNL     1     -10.258  11.016  67.697  1.00  0.00    -0.211 C  
HETATM    5  C   UNL     1      -8.015   7.574  66.136  1.00  0.00    -0.111 C  
HETATM    6  C   UNL     1     -10.526  12.004  68.564  1.00  0.00    -0.244 C  
HETATM    7  C   UNL     1     -11.550  13.087  68.763  1.00  0.00    -0.350 C  
HETATM    8  C   UNL     1      -7.730   7.763  67.635  1.00  0.00    -0.121 C  
HETATM    9  C   UNL     1      -8.717  12.269  68.240  1.00  0.00    -0.178 C  
HETATM   10  C   UNL     1      -6.199   7.877  67.853  1.00  0.00    -0.050 C  
HETATM   11  C   UNL     1      -7.825  10.684  67.803  1.00  0.00    -0.108 C  
HETATM   12  C   UNL     1      -8.475   9.053  68.196  1.00  0.00    -0.129 C  
HETATM   13  H   UNL     1      -4.248   5.394  69.330  1.00  0.00     0.000 HD 
HETATM   14  C   UNL     1     -10.236   8.764  68.182  1.00  0.00    -0.250 C  
HETATM   15  C   UNL     1      -5.427   6.607  67.464  1.00  0.00    -0.008 C  
HETATM   16  C   UNL     1     -10.515   7.506  69.018  1.00  0.00    -0.216 C  
HETATM   17  O   UNL     1      -5.183   5.323  69.479  1.00  0.00    -0.003 OA 
HETATM   18  C   UNL     1      -9.469   6.439  68.946  1.00  0.00    -0.128 C  
HETATM   19  C   UNL     1      -8.251   6.510  68.373  1.00  0.00    -0.114 C  
HETATM   20  C   UNL     1      -7.392   5.258  68.472  1.00  0.00    -0.071 C  
HETATM   21  C   UNL     1      -5.881   5.372  68.230  1.00  0.00    -0.017 C  
ENDROOT
BRANCH   4  22
HETATM   22  C   UNL     1     -10.237  11.453  66.217  1.00  0.00    -0.274 A  
HETATM   23  N   UNL     1     -10.176  10.776  63.817  1.00  0.00    -0.332 NA 
HETATM   24  C   UNL     1     -10.440  12.035  63.460  1.00  0.00    -0.464 A  
HETATM   25  C   UNL     1     -10.551  13.052  64.387  1.00  0.00    -0.429 A  
HETATM   26  C   UNL     1     -10.410  12.758  65.760  1.00  0.00    -0.297 A  
HETATM   27  C   UNL     1     -10.078  10.535  65.155  1.00  0.00    -0.314 A  
ENDBRANCH   4  22
TORSDOF 1
ENDMDL
MODEL       50
REMARK 921   NORMALIZED FREE ENERGY PREDICTED BY IDOCK:   -4.92 KCAL/MOL
REMARK 922        TOTAL FREE ENERGY PREDICTED BY IDOCK:   -5.04 KCAL/MOL
REMARK 923 INTER-LIGAND FREE ENERGY PREDICTED BY IDOCK:   -5.31 KCAL/MOL
REMARK 924 INTRA-LIGAND FREE ENERGY PREDICTED BY IDOCK:    0.28 KCAL/MOL
REMARK 927      BINDING AFFINITY PREDICTED BY RF-SCORE:    0.00 PKD
ROOT
HETATM    1  C   UNL     1      -7.828   9.580  70.332  1.00  0.00    -0.190 C  
HETATM    2  C   UNL     1      -6.932   8.981  69.388  1.00  0.00    -0.052 C  
HETATM    3  C   UNL     1      -8.348   8.500  69.396  1.00  0.00    -0.119 C  
HETATM    4  C   UNL     1      -9.477   9.368  70.107  1.00  0.00    -0.276 C  
HETATM    5  C   UNL     1     -10.311   6.218  73.056  1.00  0.00    -0.230 C  
HETATM    6  C   UNL     1      -9.086   9.852  68.918  1.00  0.00    -0.156 C  
HETATM    7  C   UNL     1      -8.902  11.183  68.244  1.00  0.00    -0.155 C  
HETATM    8  C   UNL     1      -9.353   5.697  71.973  1.00  0.00    -0.165 C  
HETATM    9  C   UNL     1     -10.292   8.536  68.409  1.00  0.00    -0.241 C  
HETATM   10  C   UNL     1      -9.944   4.408  71.345  1.00  0.00    -0.248 C  
HETATM   11  C   UNL     1     -10.391   7.134  69.644  1.00  0.00    -0.224 C  
HETATM   12  C   UNL     1      -9.103   6.803  70.856  1.00  0.00    -0.153 C  
HETATM   13  H   UNL     1      -8.670   1.209  71.889  1.00  0.00     0.000 HD 
HETATM   14  C   UNL     1      -8.172   8.151  71.564  1.00  0.00    -0.150 C  
HETATM   15  C   UNL     1     -10.080   3.246  72.341  1.00  0.00    -0.226 C  
HETATM   16  C   UNL     1      -6.866   7.575  72.132  1.00  0.00    -0.059 C  
HETATM   17  O   UNL     1      -8.087   1.926  72.111  1.00  0.00    -0.047 OA 
HETATM   18  C   UNL     1      -6.967   6.202  72.716  1.00  0.00    -0.076 C  
HETATM   19  C   UNL     1      -8.013   5.352  72.659  1.00  0.00    -0.103 C  
HETATM   20  C   UNL     1      -7.816   4.004  73.338  1.00  0.00    -0.085 C  
HETATM   21  C   UNL     1      -8.757   2.847  72.980  1.00  0.00    -0.079 C  
ENDROOT
BRANCH   4  22
HETATM   22  C   UNL     1     -10.823   9.927  70.612  1.00  0.00    -0.400 A  
HETATM   23  N   UNL     1     -12.662   9.806  72.294  1.00  0.00    -0.306 NA 
HETATM   24  C   UNL     1     -13.151  10.960  71.834  1.00  0.00    -0.432 A  
HETATM   25  C   UNL     1     -12.594  11.615  70.754  1.00  0.00    -0.365 A  
HETATM   26  C   UNL     1     -11.453  11.072  70.126  1.00  0.00    -0.383 A  
HETATM   27  C   UNL     1     -11.542   9.336  71.675  1.00  0.00    -0.393 A  
ENDBRANCH   4  22
TORSDOF 1
ENDMDL
MODEL       51
REMARK 921   NORMALIZED FREE ENERGY PREDICTED BY IDOCK:   -4.92 KCAL/MOL
REMARK 922        TOTAL FREE ENERGY PREDICTED BY IDOCK:   -5.03 KCAL/MOL
REMARK 923 INTER-LIGAND FREE ENERGY PREDICTED BY IDOCK:   -5.23 KCAL/MOL
REMARK 924 INTRA-LIGAND FREE ENERGY PREDICTED BY IDOCK:    0.21 KCAL/MOL
REMARK 927      BINDING AFFINITY PREDICTED BY RF-SCORE:    0.00 PKD
ROOT
HETATM    1  C   UNL     1     -10.598  12.536  64.846  1.00  0.00    -0.330 C  
HETATM    2  C   UNL     1     -11.528  11.456  64.695  1.00  0.00    -0.090 C  
HETATM    3  C   UNL     1     -11.277  11.961  66.079  1.00  0.00    -0.377 C  
HETATM    4  C   UNL     1     -10.592  13.381  66.294  1.00  0.00    -0.292 C  
HETATM    5  C   UNL     1      -7.090  11.608  68.269  1.00  0.00    -0.078 C  
HETATM    6  C   UNL     1     -11.881  13.449  65.929  1.00  0.00    -0.414 C  
HETATM    7  C   UNL     1     -12.781  14.337  65.115  1.00  0.00    -0.332 C  
HETATM    8  C   UNL     1      -8.177  10.543  68.049  1.00  0.00    -0.112 C  
HETATM    9  C   UNL     1     -12.024  13.141  67.754  1.00  0.00    -0.352 C  
HETATM   10  C   UNL     1      -8.511   9.868  69.404  1.00  0.00    -0.169 C  
HETATM   11  C   UNL     1     -10.573  12.178  68.437  1.00  0.00    -0.243 C  
HETATM   12  C   UNL     1      -9.481  11.188  67.406  1.00  0.00    -0.176 C  
HETATM   13  H   UNL     1      -7.601   6.608  70.239  1.00  0.00     0.000 HD 
HETATM   14  C   UNL     1      -9.117  11.703  65.736  1.00  0.00    -0.128 C  
HETATM   15  C   UNL     1      -7.329   9.101  70.017  1.00  0.00    -0.070 C  
HETATM   16  C   UNL     1      -8.617  10.474  64.961  1.00  0.00    -0.184 C  
HETATM   17  O   UNL     1      -7.569   6.818  69.313  1.00  0.00    -0.092 OA 
HETATM   18  C   UNL     1      -7.808   9.497  65.754  1.00  0.00    -0.104 C  
HETATM   19  C   UNL     1      -7.603   9.480  67.087  1.00  0.00    -0.091 C  
HETATM   20  C   UNL     1      -6.740   8.344  67.615  1.00  0.00    -0.066 C  
HETATM   21  C   UNL     1      -6.792   8.004  69.110  1.00  0.00    -0.052 C  
ENDROOT
BRANCH   4  22
HETATM   22  C   UNL     1     -10.033  14.684  66.903  1.00  0.00    -0.254 A  
HETATM   23  N   UNL     1      -8.044  16.123  67.347  1.00  0.00    -0.150 NA 
HETATM   24  C   UNL     1      -8.852  17.113  67.734  1.00  0.00    -0.225 A  
HETATM   25  C   UNL     1     -10.223  16.958  67.797  1.00  0.00    -0.308 A  
HETATM   26  C   UNL     1     -10.801  15.728  67.416  1.00  0.00    -0.306 A  
HETATM   27  C   UNL     1      -8.649  14.965  66.961  1.00  0.00    -0.238 A  
ENDBRANCH   4  22
TORSDOF 1
ENDMDL
MODEL       52
REMARK 921   NORMALIZED FREE ENERGY PREDICTED BY IDOCK:   -4.90 KCAL/MOL
REMARK 922        TOTAL FREE ENERGY PREDICTED BY IDOCK:   -5.01 KCAL/MOL
REMARK 923 INTER-LIGAND FREE ENERGY PREDICTED BY IDOCK:   -5.19 KCAL/MOL
REMARK 924 INTRA-LIGAND FREE ENERGY PREDICTED BY IDOCK:    0.18 KCAL/MOL
REMARK 927      BINDING AFFINITY PREDICTED BY RF-SCORE:    0.00 PKD
ROOT
HETATM    1  C   UNL     1     -10.010  16.979  66.594  1.00  0.00    -0.307 C  
HETATM    2  C   UNL     1     -10.972  16.684  67.614  1.00  0.00    -0.193 C  
HETATM    3  C   UNL     1      -9.624  17.155  68.055  1.00  0.00    -0.267 C  
HETATM    4  C   UNL     1      -8.656  17.875  67.017  1.00  0.00    -0.248 C  
HETATM    5  C   UNL     1      -5.635  14.701  67.339  1.00  0.00     0.338 C  
HETATM    6  C   UNL     1      -9.660  18.651  67.453  1.00  0.00    -0.317 C  
HETATM    7  C   UNL     1     -10.547  19.750  66.937  1.00  0.00    -0.588 C  
HETATM    8  C   UNL     1      -6.736  14.500  68.392  1.00  0.00    -0.105 C  
HETATM    9  C   UNL     1      -8.436  18.807  68.840  1.00  0.00    -0.233 C  
HETATM   10  C   UNL     1      -6.088  14.408  69.798  1.00  0.00    -0.131 C  
HETATM   11  C   UNL     1      -7.354  17.292  69.018  1.00  0.00    -0.209 C  
HETATM   12  C   UNL     1      -7.796  15.686  68.338  1.00  0.00    -0.127 C  
HETATM   13  H   UNL     1      -5.862  11.468  71.656  1.00  0.00     0.000 HD 
HETATM   14  C   UNL     1      -8.714  15.582  66.811  1.00  0.00    -0.302 C  
HETATM   15  C   UNL     1      -5.157  13.198  69.968  1.00  0.00    -0.088 C  
HETATM   16  C   UNL     1      -9.370  14.194  66.749  1.00  0.00    -0.295 C  
HETATM   17  O   UNL     1      -6.490  11.455  70.944  1.00  0.00    -0.115 OA 
HETATM   18  C   UNL     1      -8.578  13.078  67.352  1.00  0.00    -0.199 C  
HETATM   19  C   UNL     1      -7.446  13.165  68.079  1.00  0.00    -0.132 C  
HETATM   20  C   UNL     1      -6.871  11.847  68.578  1.00  0.00    -0.076 C  
HETATM   21  C   UNL     1      -5.856  11.867  69.728  1.00  0.00    -0.120 C  
ENDROOT
BRANCH   4  22
HETATM   22  C   UNL     1      -7.493  18.647  66.359  1.00  0.00    -0.275 A  
HETATM   23  N   UNL     1      -5.373  18.555  65.047  1.00  0.00    -0.176 NA 
HETATM   24  C   UNL     1      -5.421  19.879  64.886  1.00  0.00    -0.171 A  
HETATM   25  C   UNL     1      -6.406  20.654  65.466  1.00  0.00    -0.274 A  
HETATM   26  C   UNL     1      -7.416  20.033  66.232  1.00  0.00    -0.323 A  
HETATM   27  C   UNL     1      -6.386  17.997  65.769  1.00  0.00    -0.252 A  
ENDBRANCH   4  22
TORSDOF 1
ENDMDL
MODEL       53
REMARK 921   NORMALIZED FREE ENERGY PREDICTED BY IDOCK:   -4.85 KCAL/MOL
REMARK 922        TOTAL FREE ENERGY PREDICTED BY IDOCK:   -4.96 KCAL/MOL
REMARK 923 INTER-LIGAND FREE ENERGY PREDICTED BY IDOCK:   -5.35 KCAL/MOL
REMARK 924 INTRA-LIGAND FREE ENERGY PREDICTED BY IDOCK:    0.39 KCAL/MOL
REMARK 927      BINDING AFFINITY PREDICTED BY RF-SCORE:    0.00 PKD
ROOT
HETATM    1  C   UNL     1      -6.794  12.083  67.324  1.00  0.00    -0.150 C  
HETATM    2  C   UNL     1      -6.299  11.763  68.630  1.00  0.00    -0.057 C  
HETATM    3  C   UNL     1      -7.691  11.334  68.296  1.00  0.00    -0.122 C  
HETATM    4  C   UNL     1      -8.165  11.286  66.778  1.00  0.00    -0.158 C  
HETATM    5  C   UNL     1     -11.225  14.370  67.435  1.00  0.00    -0.337 C  
HETATM    6  C   UNL     1      -7.365  10.269  67.130  1.00  0.00    -0.091 C  
HETATM    7  C   UNL     1      -6.300   9.402  66.516  1.00  0.00    -0.066 C  
HETATM    8  C   UNL     1     -10.611  13.932  68.774  1.00  0.00    -0.258 C  
HETATM    9  C   UNL     1      -9.012   9.685  67.756  1.00  0.00    -0.122 C  
HETATM   10  C   UNL     1     -11.743  13.481  69.732  1.00  0.00    -0.363 C  
HETATM   11  C   UNL     1     -10.149  11.096  68.216  1.00  0.00    -0.196 C  
HETATM   12  C   UNL     1      -9.556  12.760  68.558  1.00  0.00    -0.113 C  
HETATM   13  H   UNL     1     -12.783  15.297  72.520  1.00  0.00     0.000 HD 
HETATM   14  C   UNL     1      -8.138  13.402  67.686  1.00  0.00    -0.175 C  
HETATM   15  C   UNL     1     -12.723  14.606  70.099  1.00  0.00    -0.268 C  
HETATM   16  C   UNL     1      -7.569  14.571  68.506  1.00  0.00    -0.123 C  
HETATM   17  O   UNL     1     -11.935  15.537  72.168  1.00  0.00    -0.360 OA 
HETATM   18  C   UNL     1      -8.579  15.402  69.231  1.00  0.00    -0.252 C  
HETATM   19  C   UNL     1      -9.896  15.158  69.385  1.00  0.00    -0.216 C  
HETATM   20  C   UNL     1     -10.675  16.184  70.194  1.00  0.00    -0.289 C  
HETATM   21  C   UNL     1     -12.046  15.796  70.764  1.00  0.00    -0.408 C  
ENDROOT
BRANCH   4  22
HETATM   22  C   UNL     1      -8.959  11.051  65.476  1.00  0.00    -0.208 A  
HETATM   23  N   UNL     1     -10.942  11.634  64.078  1.00  0.00    -0.363 NA 
HETATM   24  C   UNL     1     -10.419  10.948  63.059  1.00  0.00     0.105 A  
HETATM   25  C   UNL     1      -9.235  10.247  63.177  1.00  0.00    -0.311 A  
HETATM   26  C   UNL     1      -8.532  10.274  64.400  1.00  0.00    -0.182 A  
HETATM   27  C   UNL     1     -10.213  11.655  65.230  1.00  0.00    -0.272 A  
ENDBRANCH   4  22
TORSDOF 1
ENDMDL
MODEL       54
REMARK 921   NORMALIZED FREE ENERGY PREDICTED BY IDOCK:   -4.84 KCAL/MOL
REMARK 922        TOTAL FREE ENERGY PREDICTED BY IDOCK:   -4.95 KCAL/MOL
REMARK 923 INTER-LIGAND FREE ENERGY PREDICTED BY IDOCK:   -5.21 KCAL/MOL
REMARK 924 INTRA-LIGAND FREE ENERGY PREDICTED BY IDOCK:    0.26 KCAL/MOL
REMARK 927      BINDING AFFINITY PREDICTED BY RF-SCORE:    0.00 PKD
ROOT
HETATM    1  C   UNL     1     -10.609   9.463  67.425  1.00  0.00    -0.326 C  
HETATM    2  C   UNL     1     -10.162  10.795  67.704  1.00  0.00    -0.221 C  
HETATM    3  C   UNL     1      -9.135   9.709  67.705  1.00  0.00    -0.132 C  
HETATM    4  C   UNL     1      -9.460   8.308  67.025  1.00  0.00    -0.226 C  
HETATM    5  C   UNL     1      -9.095   6.153  70.837  1.00  0.00    -0.155 C  
HETATM    6  C   UNL     1      -9.196   9.290  66.149  1.00  0.00    -0.249 C  
HETATM    7  C   UNL     1      -9.619   9.722  64.773  1.00  0.00    -0.284 C  
HETATM    8  C   UNL     1      -8.638   7.611  71.000  1.00  0.00    -0.131 C  
HETATM    9  C   UNL     1      -7.488   8.755  66.641  1.00  0.00    -0.085 C  
HETATM   10  C   UNL     1      -7.202   7.634  71.584  1.00  0.00    -0.064 C  
HETATM   11  C   UNL     1      -7.423   8.059  68.376  1.00  0.00    -0.103 C  
HETATM   12  C   UNL     1      -8.692   8.382  69.610  1.00  0.00    -0.133 C  
HETATM   13  H   UNL     1      -6.435   8.603  74.844  1.00  0.00     0.000 HD 
HETATM   14  C   UNL     1     -10.395   8.576  69.112  1.00  0.00    -0.227 C  
HETATM   15  C   UNL     1      -7.103   7.031  72.994  1.00  0.00    -0.073 C  
HETATM   16  C   UNL     1     -11.132   9.323  70.235  1.00  0.00    -0.289 C  
HETATM   17  O   UNL     1      -7.290   8.869  74.528  1.00  0.00    -0.409 OA 
HETATM   18  C   UNL     1     -10.674   9.014  71.624  1.00  0.00    -0.441 C  
HETATM   19  C   UNL     1      -9.598   8.294  72.001  1.00  0.00    -0.316 C  
HETATM   20  C   UNL     1      -9.374   8.161  73.500  1.00  0.00    -0.210 C  
HETATM   21  C   UNL     1      -7.992   7.733  74.010  1.00  0.00    -0.192 C  
ENDROOT
BRANCH   4  22
HETATM   22  C   UNL     1      -9.366   6.885  66.434  1.00  0.00    -0.183 A  
HETATM   23  N   UNL     1     -10.198   4.533  66.452  1.00  0.00    -0.250 NA 
HETATM   24  C   UNL     1      -9.521   4.291  65.327  1.00  0.00    -0.173 A  
HETATM   25  C   UNL     1      -8.711   5.241  64.739  1.00  0.00    -0.109 A  
HETATM   26  C   UNL     1      -8.611   6.523  65.320  1.00  0.00    -0.036 A  
HETATM   27  C   UNL     1     -10.094   5.794  66.960  1.00  0.00    -0.187 A  
ENDBRANCH   4  22
TORSDOF 1
ENDMDL
MODEL       55
REMARK 921   NORMALIZED FREE ENERGY PREDICTED BY IDOCK:   -4.79 KCAL/MOL
REMARK 922        TOTAL FREE ENERGY PREDICTED BY IDOCK:   -4.89 KCAL/MOL
REMARK 923 INTER-LIGAND FREE ENERGY PREDICTED BY IDOCK:   -5.10 KCAL/MOL
REMARK 924 INTRA-LIGAND FREE ENERGY PREDICTED BY IDOCK:    0.21 KCAL/MOL
REMARK 927      BINDING AFFINITY PREDICTED BY RF-SCORE:    0.00 PKD
ROOT
HETATM    1  C   UNL     1     -12.232  13.825  69.224  1.00  0.00    -0.307 C  
HETATM    2  C   UNL     1     -12.014  12.999  70.374  1.00  0.00    -0.337 C  
HETATM    3  C   UNL     1     -10.816  13.634  69.745  1.00  0.00     0.215 C  
HETATM    4  C   UNL     1     -11.000  14.856  68.743  1.00  0.00    -0.259 C  
HETATM    5  C   UNL     1      -9.303  12.601  65.375  1.00  0.00     0.253 C  
HETATM    6  C   UNL     1     -11.158  15.183  70.035  1.00  0.00    -0.297 C  
HETATM    7  C   UNL     1     -11.976  16.128  70.871  1.00  0.00    -0.269 C  
HETATM    8  C   UNL     1      -9.129  11.817  66.686  1.00  0.00    -0.194 C  
HETATM    9  C   UNL     1      -9.310  15.206  69.867  1.00  0.00     0.084 C  
HETATM   10  C   UNL     1      -7.632  11.463  66.875  1.00  0.00    -0.151 C  
HETATM   11  C   UNL     1      -8.693  14.033  68.548  1.00  0.00    -0.156 C  
HETATM   12  C   UNL     1      -9.670  12.656  67.925  1.00  0.00    -0.216 C  
HETATM   13  H   UNL     1      -6.326   8.249  66.533  1.00  0.00     0.000 HD 
HETATM   14  C   UNL     1     -11.444  12.801  67.806  1.00  0.00    -0.376 C  
HETATM   15  C   UNL     1      -7.077  10.533  65.785  1.00  0.00    -0.124 C  
HETATM   16  C   UNL     1     -12.031  11.381  67.748  1.00  0.00    -0.073 C  
HETATM   17  O   UNL     1      -7.268   8.299  66.645  1.00  0.00    -0.078 OA 
HETATM   18  C   UNL     1     -11.201  10.370  67.023  1.00  0.00    -0.015 C  
HETATM   19  C   UNL     1      -9.942  10.509  66.561  1.00  0.00    -0.266 C  
HETATM   20  C   UNL     1      -9.345   9.291  65.871  1.00  0.00    -0.297 C  
HETATM   21  C   UNL     1      -7.824   9.210  65.690  1.00  0.00    -0.095 C  
ENDROOT
BRANCH   4  22
HETATM   22  C   UNL     1     -10.759  16.059  67.807  1.00  0.00    -0.323 A  
HETATM   23  N   UNL     1     -10.381  16.882  65.482  1.00  0.00    -0.614 NA 
HETATM   24  C   UNL     1     -10.556  18.136  65.903  1.00  0.00    -0.234 A  
HETATM   25  C   UNL     1     -10.765  18.442  67.233  1.00  0.00    -0.389 A  
HETATM   26  C   UNL     1     -10.828  17.399  68.183  1.00  0.00    -0.273 A  
HETATM   27  C   UNL     1     -10.479  15.907  66.430  1.00  0.00    -0.308 A  
ENDBRANCH   4  22
TORSDOF 1
ENDMDL
MODEL       56
REMARK 921   NORMALIZED FREE ENERGY PREDICTED BY IDOCK:   -4.75 KCAL/MOL
REMARK 922        TOTAL FREE ENERGY PREDICTED BY IDOCK:   -4.85 KCAL/MOL
REMARK 923 INTER-LIGAND FREE ENERGY PREDICTED BY IDOCK:   -5.05 KCAL/MOL
REMARK 924 INTRA-LIGAND FREE ENERGY PREDICTED BY IDOCK:    0.20 KCAL/MOL
REMARK 927      BINDING AFFINITY PREDICTED BY RF-SCORE:    0.00 PKD
ROOT
HETATM    1  C   UNL     1      -7.329  10.111  68.342  1.00  0.00    -0.081 C  
HETATM    2  C   UNL     1      -8.184  10.407  69.453  1.00  0.00    -0.158 C  
HETATM    3  C   UNL     1      -8.779   9.655  68.307  1.00  0.00    -0.120 C  
HETATM    4  C   UNL     1      -7.831   8.947  67.243  1.00  0.00    -0.096 C  
HETATM    5  C   UNL     1      -9.291  11.483  63.966  1.00  0.00    -0.031 C  
HETATM    6  C   UNL     1      -7.920   8.294  68.412  1.00  0.00    -0.119 C  
HETATM    7  C   UNL     1      -7.054   7.450  69.306  1.00  0.00    -0.075 C  
HETATM    8  C   UNL     1     -10.135  11.705  65.231  1.00  0.00    -0.305 C  
HETATM    9  C   UNL     1      -9.462   7.728  67.547  1.00  0.00    -0.170 C  
HETATM   10  C   UNL     1     -11.631  11.474  64.894  1.00  0.00    -0.054 C  
HETATM   11  C   UNL     1     -10.114   8.995  66.336  1.00  0.00    -0.351 C  
HETATM   12  C   UNL     1      -9.667  10.736  66.403  1.00  0.00    -0.241 C  
HETATM   13  H   UNL     1     -14.002  14.021  64.682  1.00  0.00     0.000 HD 
HETATM   14  C   UNL     1      -8.038  11.222  66.948  1.00  0.00    -0.155 C  
HETATM   15  C   UNL     1     -12.191  12.471  63.868  1.00  0.00    -0.590 C  
HETATM   16  C   UNL     1      -8.106  12.693  67.385  1.00  0.00    -0.182 C  
HETATM   17  O   UNL     1     -13.198  14.246  65.135  1.00  0.00    -0.686 OA 
HETATM   18  C   UNL     1      -9.041  13.557  66.599  1.00  0.00    -0.182 C  
HETATM   19  C   UNL     1      -9.942  13.173  65.672  1.00  0.00    -0.237 C  
HETATM   20  C   UNL     1     -10.771  14.284  65.047  1.00  0.00    -0.435 C  
HETATM   21  C   UNL     1     -12.070  13.922  64.315  1.00  0.00    -0.440 C  
ENDROOT
BRANCH   4  22
HETATM   22  C   UNL     1      -7.276   8.099  66.080  1.00  0.00    -0.066 A  
HETATM   23  N   UNL     1      -6.105   8.045  63.878  1.00  0.00    -0.061 NA 
HETATM   24  C   UNL     1      -5.983   6.720  63.981  1.00  0.00    -0.035 A  
HETATM   25  C   UNL     1      -6.521   6.013  65.038  1.00  0.00    -0.038 A  
HETATM   26  C   UNL     1      -7.198   6.707  66.064  1.00  0.00    -0.071 A  
HETATM   27  C   UNL     1      -6.740   8.675  64.906  1.00  0.00    -0.068 A  
ENDBRANCH   4  22
TORSDOF 1
ENDMDL
MODEL       57
REMARK 921   NORMALIZED FREE ENERGY PREDICTED BY IDOCK:   -4.72 KCAL/MOL
REMARK 922        TOTAL FREE ENERGY PREDICTED BY IDOCK:   -4.82 KCAL/MOL
REMARK 923 INTER-LIGAND FREE ENERGY PREDICTED BY IDOCK:   -4.99 KCAL/MOL
REMARK 924 INTRA-LIGAND FREE ENERGY PREDICTED BY IDOCK:    0.17 KCAL/MOL
REMARK 927      BINDING AFFINITY PREDICTED BY RF-SCORE:    0.00 PKD
ROOT
HETATM    1  C   UNL     1     -10.266   5.264  67.654  1.00  0.00    -0.223 C  
HETATM    2  C   UNL     1      -9.393   5.181  66.521  1.00  0.00    -0.142 C  
HETATM    3  C   UNL     1      -8.778   5.514  67.841  1.00  0.00    -0.106 C  
HETATM    4  C   UNL     1      -9.581   5.234  69.186  1.00  0.00    -0.201 C  
HETATM    5  C   UNL     1      -9.706   9.502  70.226  1.00  0.00    -0.314 C  
HETATM    6  C   UNL     1      -9.066   4.132  68.620  1.00  0.00    -0.185 C  
HETATM    7  C   UNL     1      -9.408   2.677  68.462  1.00  0.00    -0.251 C  
HETATM    8  C   UNL     1      -8.790   9.273  69.013  1.00  0.00    -0.136 C  
HETATM    9  C   UNL     1      -7.598   4.808  69.534  1.00  0.00    -0.059 C  
HETATM   10  C   UNL     1      -7.392   9.875  69.307  1.00  0.00    -0.084 C  
HETATM   11  C   UNL     1      -7.657   6.668  69.716  1.00  0.00    -0.104 C  
HETATM   12  C   UNL     1      -8.675   7.723  68.673  1.00  0.00    -0.128 C  
HETATM   13  H   UNL     1      -6.154  12.766  67.803  1.00  0.00     0.000 HD 
HETATM   14  C   UNL     1     -10.249   7.136  68.072  1.00  0.00    -0.223 C  
HETATM   15  C   UNL     1      -7.408  11.399  69.505  1.00  0.00     0.077 C  
HETATM   16  C   UNL     1     -10.634   7.986  66.850  1.00  0.00    -0.324 C  
HETATM   17  O   UNL     1      -6.894  12.362  67.366  1.00  0.00    -0.129 OA 
HETATM   18  C   UNL     1     -10.217   9.421  66.906  1.00  0.00    -0.318 C  
HETATM   19  C   UNL     1      -9.413  10.016  67.810  1.00  0.00    -0.157 C  
HETATM   20  C   UNL     1      -9.153  11.500  67.598  1.00  0.00    -0.168 C  
HETATM   21  C   UNL     1      -7.958  12.154  68.303  1.00  0.00    -0.163 C  
ENDROOT
BRANCH   4  22
HETATM   22  C   UNL     1      -9.991   5.062  70.663  1.00  0.00    -0.300 A  
HETATM   23  N   UNL     1     -11.198   5.986  72.642  1.00  0.00    -0.278 NA 
HETATM   24  C   UNL     1     -11.046   4.820  73.273  1.00  0.00    -0.333 A  
HETATM   25  C   UNL     1     -10.343   3.770  72.716  1.00  0.00    -0.238 A  
HETATM   26  C   UNL     1      -9.787   3.913  71.427  1.00  0.00    -0.243 A  
HETATM   27  C   UNL     1     -10.669   6.068  71.388  1.00  0.00    -0.259 A  
ENDBRANCH   4  22
TORSDOF 1
ENDMDL
MODEL       58
REMARK 921   NORMALIZED FREE ENERGY PREDICTED BY IDOCK:   -4.69 KCAL/MOL
REMARK 922        TOTAL FREE ENERGY PREDICTED BY IDOCK:   -4.79 KCAL/MOL
REMARK 923 INTER-LIGAND FREE ENERGY PREDICTED BY IDOCK:   -5.03 KCAL/MOL
REMARK 924 INTRA-LIGAND FREE ENERGY PREDICTED BY IDOCK:    0.24 KCAL/MOL
REMARK 927      BINDING AFFINITY PREDICTED BY RF-SCORE:    0.00 PKD
ROOT
HETATM    1  C   UNL     1     -10.204   9.531  70.451  1.00  0.00    -0.337 C  
HETATM    2  C   UNL     1     -11.110  10.044  69.466  1.00  0.00    -0.279 C  
HETATM    3  C   UNL     1     -11.156   8.576  69.747  1.00  0.00    -0.067 C  
HETATM    4  C   UNL     1     -10.493   8.001  71.074  1.00  0.00    -0.229 C  
HETATM    5  C   UNL     1      -7.569   5.624  68.813  1.00  0.00    -0.088 C  
HETATM    6  C   UNL     1     -11.667   8.618  71.276  1.00  0.00    -0.341 C  
HETATM    7  C   UNL     1     -12.338   9.457  72.328  1.00  0.00    -0.298 C  
HETATM    8  C   UNL     1      -8.612   6.235  67.863  1.00  0.00    -0.115 C  
HETATM    9  C   UNL     1     -12.219   6.937  70.715  1.00  0.00    -0.364 C  
HETATM   10  C   UNL     1      -9.258   5.105  67.020  1.00  0.00    -0.117 C  
HETATM   11  C   UNL     1     -10.985   6.118  69.573  1.00  0.00    -0.463 C  
HETATM   12  C   UNL     1      -9.722   7.034  68.677  1.00  0.00    -0.139 C  
HETATM   13  H   UNL     1      -8.653   4.615  63.622  1.00  0.00     0.000 HD 
HETATM   14  C   UNL     1      -8.982   8.485  69.405  1.00  0.00    -0.149 C  
HETATM   15  C   UNL     1      -8.264   4.381  66.099  1.00  0.00    -0.102 C  
HETATM   16  C   UNL     1      -8.360   9.317  68.273  1.00  0.00    -0.120 C  
HETATM   17  O   UNL     1      -8.411   5.467  63.962  1.00  0.00    -0.132 OA 
HETATM   18  C   UNL     1      -7.777   8.532  67.142  1.00  0.00    -0.097 C  
HETATM   19  C   UNL     1      -7.872   7.206  66.917  1.00  0.00    -0.107 C  
HETATM   20  C   UNL     1      -7.182   6.689  65.664  1.00  0.00    -0.070 C  
HETATM   21  C   UNL     1      -7.573   5.312  65.113  1.00  0.00    -0.082 C  
ENDROOT
BRANCH   4  22
HETATM   22  C   UNL     1     -10.043   7.090  72.236  1.00  0.00    -0.195 A  
HETATM   23  N   UNL     1      -8.373   5.459  73.115  1.00  0.00    -0.118 NA 
HETATM   24  C   UNL     1      -8.922   5.557  74.328  1.00  0.00    -0.121 A  
HETATM   25  C   UNL     1     -10.044   6.326  74.565  1.00  0.00    -0.353 A  
HETATM   26  C   UNL     1     -10.620   7.060  73.505  1.00  0.00    -0.405 A  
HETATM   27  C   UNL     1      -8.945   6.208  72.130  1.00  0.00    -0.142 A  
ENDBRANCH   4  22
TORSDOF 1
ENDMDL
MODEL       59
REMARK 921   NORMALIZED FREE ENERGY PREDICTED BY IDOCK:   -4.63 KCAL/MOL
REMARK 922        TOTAL FREE ENERGY PREDICTED BY IDOCK:   -4.72 KCAL/MOL
REMARK 923 INTER-LIGAND FREE ENERGY PREDICTED BY IDOCK:   -4.89 KCAL/MOL
REMARK 924 INTRA-LIGAND FREE ENERGY PREDICTED BY IDOCK:    0.17 KCAL/MOL
REMARK 927      BINDING AFFINITY PREDICTED BY RF-SCORE:    0.00 PKD
ROOT
HETATM    1  C   UNL     1      -9.267   9.338  66.975  1.00  0.00    -0.169 C  
HETATM    2  C   UNL     1      -8.374  10.256  67.618  1.00  0.00    -0.114 C  
HETATM    3  C   UNL     1      -8.079   8.797  67.754  1.00  0.00    -0.107 C  
HETATM    4  C   UNL     1      -8.760   7.753  66.765  1.00  0.00    -0.143 C  
HETATM    5  C   UNL     1     -10.907   5.761  70.041  1.00  0.00    -0.403 C  
HETATM    6  C   UNL     1      -7.756   8.451  66.213  1.00  0.00    -0.094 C  
HETATM    7  C   UNL     1      -7.378   9.022  64.874  1.00  0.00    -0.100 C  
HETATM    8  C   UNL     1      -9.903   6.781  70.602  1.00  0.00    -0.191 C  
HETATM    9  C   UNL     1      -6.834   7.122  67.123  1.00  0.00    -0.076 C  
HETATM   10  C   UNL     1      -8.964   6.071  71.610  1.00  0.00    -0.143 C  
HETATM   11  C   UNL     1      -7.755   6.511  68.632  1.00  0.00    -0.102 C  
HETATM   12  C   UNL     1      -9.063   7.454  69.429  1.00  0.00    -0.139 C  
HETATM   13  H   UNL     1      -9.086   6.548  75.062  1.00  0.00     0.000 HD 
HETATM   14  C   UNL     1     -10.143   8.487  68.454  1.00  0.00    -0.221 C  
HETATM   15  C   UNL     1      -9.693   5.518  72.845  1.00  0.00    -0.170 C  
HETATM   16  C   UNL     1     -10.785   9.519  69.395  1.00  0.00    -0.244 C  
HETATM   17  O   UNL     1      -9.523   7.210  74.541  1.00  0.00    -0.191 OA 
HETATM   18  C   UNL     1     -11.079   9.035  70.779  1.00  0.00    -0.328 C  
HETATM   19  C   UNL     1     -10.707   7.870  71.346  1.00  0.00    -0.258 C  
HETATM   20  C   UNL     1     -11.143   7.659  72.788  1.00  0.00    -0.437 C  
HETATM   21  C   UNL     1     -10.437   6.589  73.630  1.00  0.00    -0.311 C  
ENDROOT
BRANCH   4  22
HETATM   22  C   UNL     1      -9.152   6.477  65.992  1.00  0.00    -0.111 A  
HETATM   23  N   UNL     1      -8.634   4.889  64.138  1.00  0.00    -0.137 NA 
HETATM   24  C   UNL     1      -9.556   4.047  64.610  1.00  0.00    -0.175 A  
HETATM   25  C   UNL     1     -10.347   4.357  65.698  1.00  0.00    -0.252 A  
HETATM   26  C   UNL     1     -10.163   5.590  66.360  1.00  0.00    -0.247 A  
HETATM   27  C   UNL     1      -8.473   6.054  64.827  1.00  0.00    -0.031 A  
ENDBRANCH   4  22
TORSDOF 1
ENDMDL
MODEL       60
REMARK 921   NORMALIZED FREE ENERGY PREDICTED BY IDOCK:   -4.62 KCAL/MOL
REMARK 922        TOTAL FREE ENERGY PREDICTED BY IDOCK:   -4.71 KCAL/MOL
REMARK 923 INTER-LIGAND FREE ENERGY PREDICTED BY IDOCK:   -4.89 KCAL/MOL
REMARK 924 INTRA-LIGAND FREE ENERGY PREDICTED BY IDOCK:    0.17 KCAL/MOL
REMARK 927      BINDING AFFINITY PREDICTED BY RF-SCORE:    0.00 PKD
ROOT
HETATM    1  C   UNL     1      -7.753   8.642  69.533  1.00  0.00    -0.090 C  
HETATM    2  C   UNL     1      -8.483   9.070  70.690  1.00  0.00    -0.229 C  
HETATM    3  C   UNL     1      -9.273   8.662  69.488  1.00  0.00    -0.150 C  
HETATM    4  C   UNL     1      -8.582   7.811  68.335  1.00  0.00    -0.128 C  
HETATM    5  C   UNL     1      -9.161  11.002  65.369  1.00  0.00    -0.232 C  
HETATM    6  C   UNL     1      -8.878   7.100  69.433  1.00  0.00    -0.136 C  
HETATM    7  C   UNL     1      -8.322   5.941  70.214  1.00  0.00    -0.122 C  
HETATM    8  C   UNL     1      -9.905  11.340  66.671  1.00  0.00    -0.235 C  
HETATM    9  C   UNL     1     -10.512   7.130  68.554  1.00  0.00    -0.229 C  
HETATM   10  C   UNL     1     -11.396  11.618  66.350  1.00  0.00    -0.312 C  
HETATM   11  C   UNL     1     -10.731   8.655  67.494  1.00  0.00    -0.209 C  
HETATM   12  C   UNL     1      -9.768  10.157  67.727  1.00  0.00    -0.176 C  
HETATM   13  H   UNL     1     -12.862  14.779  66.458  1.00  0.00     0.000 HD 
HETATM   14  C   UNL     1      -8.073  10.057  68.277  1.00  0.00    -0.104 C  
HETATM   15  C   UNL     1     -11.613  12.840  65.446  1.00  0.00    -0.393 C  
HETATM   16  C   UNL     1      -7.686  11.424  68.862  1.00  0.00    -0.108 C  
HETATM   17  O   UNL     1     -12.031  14.697  66.911  1.00  0.00    -0.373 OA 
HETATM   18  C   UNL     1      -8.302  12.610  68.192  1.00  0.00    -0.175 C  
HETATM   19  C   UNL     1      -9.270  12.622  67.254  1.00  0.00    -0.195 C  
HETATM   20  C   UNL     1      -9.711  13.994  66.766  1.00  0.00    -0.283 C  
HETATM   21  C   UNL     1     -11.052  14.128  66.034  1.00  0.00    -0.314 C  
ENDROOT
BRANCH   4  22
HETATM   22  C   UNL     1      -8.308   6.959  67.078  1.00  0.00    -0.121 A  
HETATM   23  N   UNL     1      -8.309   4.702  66.016  1.00  0.00    -0.113 NA 
HETATM   24  C   UNL     1      -8.102   5.268  64.825  1.00  0.00    -0.124 A  
HETATM   25  C   UNL     1      -7.925   6.629  64.680  1.00  0.00    -0.113 A  
HETATM   26  C   UNL     1      -7.992   7.463  65.816  1.00  0.00    -0.118 A  
HETATM   27  C   UNL     1      -8.395   5.549  67.080  1.00  0.00    -0.104 A  
ENDBRANCH   4  22
TORSDOF 1
ENDMDL
MODEL       61
REMARK 921   NORMALIZED FREE ENERGY PREDICTED BY IDOCK:   -4.61 KCAL/MOL
REMARK 922        TOTAL FREE ENERGY PREDICTED BY IDOCK:   -4.70 KCAL/MOL
REMARK 923 INTER-LIGAND FREE ENERGY PREDICTED BY IDOCK:   -5.47 KCAL/MOL
REMARK 924 INTRA-LIGAND FREE ENERGY PREDICTED BY IDOCK:    0.77 KCAL/MOL
REMARK 927      BINDING AFFINITY PREDICTED BY RF-SCORE:    0.00 PKD
ROOT
HETATM    1  C   UNL     1      -8.863  11.281  68.881  1.00  0.00    -0.055 C  
HETATM    2  C   UNL     1      -7.570  11.032  69.446  1.00  0.00    -0.058 C  
HETATM    3  C   UNL     1      -7.831  10.517  68.067  1.00  0.00    -0.105 C  
HETATM    4  C   UNL     1      -9.057  11.083  67.226  1.00  0.00    -0.142 C  
HETATM    5  C   UNL     1     -11.026   7.156  67.092  1.00  0.00    -0.342 C  
HETATM    6  C   UNL     1      -8.011  11.920  67.293  1.00  0.00    -0.171 C  
HETATM    7  C   UNL     1      -7.748  13.400  67.348  1.00  0.00    -0.146 C  
HETATM    8  C   UNL     1      -9.613   7.027  67.682  1.00  0.00    -0.151 C  
HETATM    9  C   UNL     1      -7.489  10.775  65.929  1.00  0.00    -0.099 C  
HETATM   10  C   UNL     1      -8.818   5.968  66.876  1.00  0.00    -0.116 C  
HETATM   11  C   UNL     1      -8.217   9.062  66.108  1.00  0.00    -0.115 C  
HETATM   12  C   UNL     1      -8.859   8.428  67.665  1.00  0.00    -0.138 C  
HETATM   13  H   UNL     1      -7.988   2.806  68.089  1.00  0.00     0.000 HD 
HETATM   14  C   UNL     1      -9.650   9.532  68.823  1.00  0.00    -0.159 C  
HETATM   15  C   UNL     1      -9.412   4.553  66.965  1.00  0.00    -0.186 C  
HETATM   16  C   UNL     1      -9.627   8.862  70.205  1.00  0.00    -0.212 C  
HETATM   17  O   UNL     1      -8.243   3.444  68.746  1.00  0.00    -0.060 OA 
HETATM   18  C   UNL     1      -9.772   7.373  70.203  1.00  0.00    -0.175 C  
HETATM   19  C   UNL     1      -9.757   6.541  69.142  1.00  0.00    -0.143 C  
HETATM   20  C   UNL     1      -9.913   5.060  69.452  1.00  0.00    -0.290 C  
HETATM   21  C   UNL     1      -9.501   4.031  68.392  1.00  0.00    -0.149 C  
ENDROOT
BRANCH   4  22
HETATM   22  C   UNL     1     -10.065  11.410  66.104  1.00  0.00    -0.271 A  
HETATM   23  N   UNL     1     -12.289  12.346  65.471  1.00  0.00    -0.624 NA 
HETATM   24  C   UNL     1     -11.934  12.306  64.185  1.00  0.00    -0.432 A  
HETATM   25  C   UNL     1     -10.722  11.787  63.774  1.00  0.00    -0.480 A  
HETATM   26  C   UNL     1      -9.810  11.307  64.738  1.00  0.00    -0.312 A  
HETATM   27  C   UNL     1     -11.365  11.898  66.367  1.00  0.00    -0.339 A  
ENDBRANCH   4  22
TORSDOF 1
ENDMDL
MODEL       62
REMARK 921   NORMALIZED FREE ENERGY PREDICTED BY IDOCK:   -4.42 KCAL/MOL
REMARK 922        TOTAL FREE ENERGY PREDICTED BY IDOCK:   -4.50 KCAL/MOL
REMARK 923 INTER-LIGAND FREE ENERGY PREDICTED BY IDOCK:   -4.68 KCAL/MOL
REMARK 924 INTRA-LIGAND FREE ENERGY PREDICTED BY IDOCK:    0.18 KCAL/MOL
REMARK 927      BINDING AFFINITY PREDICTED BY RF-SCORE:    0.00 PKD
ROOT
HETATM    1  C   UNL     1     -10.017   9.250  70.917  1.00  0.00    -0.367 C  
HETATM    2  C   UNL     1     -11.052  10.016  70.287  1.00  0.00    -0.381 C  
HETATM    3  C   UNL     1     -10.929   8.576  69.904  1.00  0.00    -0.165 C  
HETATM    4  C   UNL     1     -10.100   7.577  70.824  1.00  0.00    -0.192 C  
HETATM    5  C   UNL     1      -7.166   6.783  67.650  1.00  0.00    -0.094 C  
HETATM    6  C   UNL     1     -11.306   7.896  71.316  1.00  0.00    -0.289 C  
HETATM    7  C   UNL     1     -11.962   8.114  72.652  1.00  0.00    -0.353 C  
HETATM    8  C   UNL     1      -8.342   7.604  67.098  1.00  0.00    -0.121 C  
HETATM    9  C   UNL     1     -11.738   6.561  70.101  1.00  0.00    -0.419 C  
HETATM   10  C   UNL     1      -8.946   6.872  65.872  1.00  0.00    -0.092 C  
HETATM   11  C   UNL     1     -10.534   6.471  68.673  1.00  0.00    -0.252 C  
HETATM   12  C   UNL     1      -9.450   7.833  68.218  1.00  0.00    -0.150 C  
HETATM   13  H   UNL     1      -8.595   7.960  62.579  1.00  0.00     0.000 HD 
HETATM   14  C   UNL     1      -8.795   8.915  69.477  1.00  0.00    -0.144 C  
HETATM   15  C   UNL     1      -7.970   6.742  64.693  1.00  0.00    -0.117 C  
HETATM   16  C   UNL     1      -8.359  10.221  68.797  1.00  0.00    -0.125 C  
HETATM   17  O   UNL     1      -8.408   8.609  63.247  1.00  0.00    -0.182 OA 
HETATM   18  C   UNL     1      -7.802  10.075  67.417  1.00  0.00    -0.099 C  
HETATM   19  C   UNL     1      -7.786   8.972  66.642  1.00  0.00    -0.100 C  
HETATM   20  C   UNL     1      -7.161   9.131  65.265  1.00  0.00    -0.088 C  
HETATM   21  C   UNL     1      -7.462   8.084  64.185  1.00  0.00    -0.107 C  
ENDROOT
BRANCH   4  22
HETATM   22  C   UNL     1      -9.464   6.323  71.458  1.00  0.00    -0.162 A  
HETATM   23  N   UNL     1      -7.393   5.012  71.923  1.00  0.00    -0.082 NA 
HETATM   24  C   UNL     1      -8.082   4.229  72.757  1.00  0.00    -0.093 A  
HETATM   25  C   UNL     1      -9.442   4.375  72.946  1.00  0.00    -0.155 A  
HETATM   26  C   UNL     1     -10.131   5.401  72.263  1.00  0.00    -0.231 A  
HETATM   27  C   UNL     1      -8.095   6.006  71.310  1.00  0.00    -0.118 A  
ENDBRANCH   4  22
TORSDOF 1
ENDMDL
MODEL       63
REMARK 921   NORMALIZED FREE ENERGY PREDICTED BY IDOCK:   -4.41 KCAL/MOL
REMARK 922        TOTAL FREE ENERGY PREDICTED BY IDOCK:   -4.49 KCAL/MOL
REMARK 923 INTER-LIGAND FREE ENERGY PREDICTED BY IDOCK:   -4.77 KCAL/MOL
REMARK 924 INTRA-LIGAND FREE ENERGY PREDICTED BY IDOCK:    0.28 KCAL/MOL
REMARK 927      BINDING AFFINITY PREDICTED BY RF-SCORE:    0.00 PKD
ROOT
HETATM    1  C   UNL     1     -10.174  16.996  66.266  1.00  0.00    -0.336 C  
HETATM    2  C   UNL     1     -11.594  16.808  66.288  1.00  0.00     1.299 C  
HETATM    3  C   UNL     1     -10.823  16.383  67.496  1.00  0.00    -0.249 C  
HETATM    4  C   UNL     1      -9.339  16.912  67.718  1.00  0.00    -0.235 C  
HETATM    5  C   UNL     1      -7.651  12.863  67.464  1.00  0.00    -0.164 C  
HETATM    6  C   UNL     1     -10.288  17.822  67.985  1.00  0.00    -0.395 C  
HETATM    7  C   UNL     1     -10.487  19.310  67.888  1.00  0.00    -0.514 C  
HETATM    8  C   UNL     1      -9.187  12.801  67.500  1.00  0.00    -0.191 C  
HETATM    9  C   UNL     1     -10.265  16.832  69.555  1.00  0.00    -0.166 C  
HETATM   10  C   UNL     1      -9.634  11.875  68.660  1.00  0.00    -0.101 C  
HETATM   11  C   UNL     1      -9.743  15.058  69.279  1.00  0.00    -0.192 C  
HETATM   12  C   UNL     1      -9.809  14.256  67.670  1.00  0.00    -0.224 C  
HETATM   13  H   UNL     1     -11.015   8.706  68.207  1.00  0.00     0.000 HD 
HETATM   14  C   UNL     1      -9.505  15.200  66.186  1.00  0.00    -0.354 C  
HETATM   15  C   UNL     1      -9.187  10.415  68.488  1.00  0.00    -0.145 C  
HETATM   16  C   UNL     1     -10.111  14.428  65.004  1.00  0.00    -0.322 C  
HETATM   17  O   UNL     1     -11.019   9.268  67.442  1.00  0.00    -0.188 OA 
HETATM   18  C   UNL     1     -10.040  12.938  65.102  1.00  0.00    -0.241 C  
HETATM   19  C   UNL     1      -9.663  12.194  66.161  1.00  0.00    -0.254 C  
HETATM   20  C   UNL     1      -9.708  10.686  65.969  1.00  0.00    -0.258 C  
HETATM   21  C   UNL     1      -9.701   9.778  67.205  1.00  0.00    -0.169 C  
ENDROOT
BRANCH   4  22
HETATM   22  C   UNL     1      -7.953  17.243  68.308  1.00  0.00    -0.244 A  
HETATM   23  N   UNL     1      -6.414  18.969  69.246  1.00  0.00    -0.284 NA 
HETATM   24  C   UNL     1      -5.574  18.005  69.629  1.00  0.00    -0.220 A  
HETATM   25  C   UNL     1      -5.805  16.674  69.344  1.00  0.00    -0.171 A  
HETATM   26  C   UNL     1      -6.978  16.306  68.650  1.00  0.00    -0.148 A  
HETATM   27  C   UNL     1      -7.547  18.563  68.605  1.00  0.00    -0.307 A  
ENDBRANCH   4  22
TORSDOF 1
ENDMDL
MODEL       64
REMARK 921   NORMALIZED FREE ENERGY PREDICTED BY IDOCK:   -4.39 KCAL/MOL
REMARK 922        TOTAL FREE ENERGY PREDICTED BY IDOCK:   -4.47 KCAL/MOL
REMARK 923 INTER-LIGAND FREE ENERGY PREDICTED BY IDOCK:   -4.64 KCAL/MOL
REMARK 924 INTRA-LIGAND FREE ENERGY PREDICTED BY IDOCK:    0.18 KCAL/MOL
REMARK 927      BINDING AFFINITY PREDICTED BY RF-SCORE:    0.00 PKD
ROOT
HETATM    1  C   UNL     1     -10.589   7.807  67.294  1.00  0.00    -0.376 C  
HETATM    2  C   UNL     1     -10.291   9.013  68.009  1.00  0.00    -0.275 C  
HETATM    3  C   UNL     1      -9.225   7.968  67.945  1.00  0.00    -0.137 C  
HETATM    4  C   UNL     1      -9.315   6.806  66.862  1.00  0.00    -0.176 C  
HETATM    5  C   UNL     1      -9.633   3.692  69.946  1.00  0.00    -0.238 C  
HETATM    6  C   UNL     1      -8.932   7.989  66.360  1.00  0.00    -0.204 C  
HETATM    7  C   UNL     1      -9.080   8.781  65.090  1.00  0.00    -0.104 C  
HETATM    8  C   UNL     1      -9.309   5.050  70.588  1.00  0.00    -0.216 C  
HETATM    9  C   UNL     1      -7.336   7.341  67.053  1.00  0.00    -0.093 C  
HETATM   10  C   UNL     1      -8.032   4.912  71.457  1.00  0.00    -0.110 C  
HETATM   11  C   UNL     1      -7.597   6.198  68.510  1.00  0.00    -0.092 C  
HETATM   12  C   UNL     1      -9.114   6.172  69.476  1.00  0.00    -0.140 C  
HETATM   13  H   UNL     1      -8.027   4.955  74.943  1.00  0.00     0.000 HD 
HETATM   14  C   UNL     1     -10.683   6.494  68.688  1.00  0.00    -0.323 C  
HETATM   15  C   UNL     1      -8.195   3.947  72.641  1.00  0.00    -0.094 C  
HETATM   16  C   UNL     1     -11.683   6.905  69.779  1.00  0.00    -0.142 C  
HETATM   17  O   UNL     1      -8.811   5.296  74.530  1.00  0.00    -0.113 OA 
HETATM   18  C   UNL     1     -11.510   6.228  71.102  1.00  0.00    -0.362 C  
HETATM   19  C   UNL     1     -10.496   5.433  71.499  1.00  0.00    -0.289 C  
HETATM   20  C   UNL     1     -10.585   4.897  72.920  1.00  0.00    -0.276 C  
HETATM   21  C   UNL     1      -9.319   4.345  73.587  1.00  0.00    -0.113 C  
ENDROOT
BRANCH   4  22
HETATM   22  C   UNL     1      -9.014   5.598  65.949  1.00  0.00    -0.160 A  
HETATM   23  N   UNL     1      -7.840   4.717  63.932  1.00  0.00    -0.082 NA 
HETATM   24  C   UNL     1      -8.147   3.472  64.303  1.00  0.00    -0.086 A  
HETATM   25  C   UNL     1      -8.919   3.208  65.417  1.00  0.00    -0.142 A  
HETATM   26  C   UNL     1      -9.379   4.279  66.213  1.00  0.00    -0.165 A  
HETATM   27  C   UNL     1      -8.281   5.717  64.747  1.00  0.00    -0.134 A  
ENDBRANCH   4  22
TORSDOF 1
ENDMDL
MODEL       65
REMARK 921   NORMALIZED FREE ENERGY PREDICTED BY IDOCK:   -4.36 KCAL/MOL
REMARK 922        TOTAL FREE ENERGY PREDICTED BY IDOCK:   -4.44 KCAL/MOL
REMARK 923 INTER-LIGAND FREE ENERGY PREDICTED BY IDOCK:   -4.74 KCAL/MOL
REMARK 924 INTRA-LIGAND FREE ENERGY PREDICTED BY IDOCK:    0.29 KCAL/MOL
REMARK 927      BINDING AFFINITY PREDICTED BY RF-SCORE:    0.00 PKD
ROOT
HETATM    1  C   UNL     1      -8.598  12.288  68.393  1.00  0.00    -0.136 C  
HETATM    2  C   UNL     1      -8.183  12.367  67.024  1.00  0.00    -0.141 C  
HETATM    3  C   UNL     1      -9.272  11.400  67.360  1.00  0.00    -0.164 C  
HETATM    4  C   UNL     1     -10.056  11.533  68.738  1.00  0.00    -0.191 C  
HETATM    5  C   UNL     1      -8.642   7.616  70.141  1.00  0.00    -0.140 C  
HETATM    6  C   UNL     1     -10.415  12.441  67.818  1.00  0.00    -0.231 C  
HETATM    7  C   UNL     1     -10.872  13.873  67.760  1.00  0.00    -0.261 C  
HETATM    8  C   UNL     1      -8.260   7.827  68.667  1.00  0.00    -0.128 C  
HETATM    9  C   UNL     1     -11.408  10.963  67.294  1.00  0.00    -0.230 C  
HETATM   10  C   UNL     1      -8.798   6.641  67.826  1.00  0.00    -0.114 C  
HETATM   11  C   UNL     1     -10.588   9.346  67.752  1.00  0.00    -0.317 C  
HETATM   12  C   UNL     1      -8.833   9.208  68.124  1.00  0.00    -0.129 C  
HETATM   13  H   UNL     1      -6.784   4.159  66.435  1.00  0.00     0.000 HD 
HETATM   14  C   UNL     1      -7.980  10.553  68.929  1.00  0.00    -0.128 C  
HETATM   15  C   UNL     1      -8.177   5.287  68.203  1.00  0.00    -0.098 C  
HETATM   16  C   UNL     1      -6.476  10.387  68.661  1.00  0.00    -0.051 C  
HETATM   17  O   UNL     1      -6.333   4.951  66.702  1.00  0.00    -0.037 OA 
HETATM   18  C   UNL     1      -5.986   8.976  68.596  1.00  0.00    -0.045 C  
HETATM   19  C   UNL     1      -6.718   7.843  68.581  1.00  0.00    -0.058 C  
HETATM   20  C   UNL     1      -5.934   6.542  68.493  1.00  0.00    -0.021 C  
HETATM   21  C   UNL     1      -6.662   5.263  68.061  1.00  0.00    -0.055 C  
ENDROOT
BRANCH   4  22
HETATM   22  C   UNL     1     -11.059  11.369  69.899  1.00  0.00    -0.134 A  
HETATM   23  N   UNL     1     -12.939  12.345  71.217  1.00  0.00    -0.276 NA 
HETATM   24  C   UNL     1     -13.129  11.164  71.811  1.00  0.00    -0.431 A  
HETATM   25  C   UNL     1     -12.311  10.079  71.564  1.00  0.00    -0.513 A  
HETATM   26  C   UNL     1     -11.256  10.202  70.635  1.00  0.00    -0.418 A  
HETATM   27  C   UNL     1     -11.927  12.407  70.306  1.00  0.00    -0.289 A  
ENDBRANCH   4  22
TORSDOF 1
ENDMDL
MODEL       66
REMARK 921   NORMALIZED FREE ENERGY PREDICTED BY IDOCK:   -4.26 KCAL/MOL
REMARK 922        TOTAL FREE ENERGY PREDICTED BY IDOCK:   -4.33 KCAL/MOL
REMARK 923 INTER-LIGAND FREE ENERGY PREDICTED BY IDOCK:   -4.87 KCAL/MOL
REMARK 924 INTRA-LIGAND FREE ENERGY PREDICTED BY IDOCK:    0.54 KCAL/MOL
REMARK 927      BINDING AFFINITY PREDICTED BY RF-SCORE:    0.00 PKD
ROOT
HETATM    1  C   UNL     1      -9.953  18.573  67.116  1.00  0.00    -0.357 C  
HETATM    2  C   UNL     1     -11.339  18.934  67.162  1.00  0.00     0.435 C  
HETATM    3  C   UNL     1     -10.910  17.745  67.960  1.00  0.00    -0.217 C  
HETATM    4  C   UNL     1      -9.368  17.521  68.285  1.00  0.00    -0.281 C  
HETATM    5  C   UNL     1      -9.239  13.759  66.017  1.00  0.00     0.059 C  
HETATM    6  C   UNL     1      -9.947  18.478  69.025  1.00  0.00    -0.323 C  
HETATM    7  C   UNL     1      -9.585  19.794  69.657  1.00  0.00     0.145 C  
HETATM    8  C   UNL     1     -10.687  14.259  66.143  1.00  0.00    -0.295 C  
HETATM    9  C   UNL     1     -10.454  16.942  69.935  1.00  0.00     0.018 C  
HETATM   10  C   UNL     1     -11.562  13.138  66.761  1.00  0.00    -0.414 C  
HETATM   11  C   UNL     1     -10.582  15.451  68.814  1.00  0.00    -0.235 C  
HETATM   12  C   UNL     1     -10.757  15.579  67.028  1.00  0.00    -0.321 C  
HETATM   13  H   UNL     1     -13.936  11.308  64.980  1.00  0.00     0.000 HD 
HETATM   14  C   UNL     1      -9.973  16.918  66.146  1.00  0.00    -0.332 C  
HETATM   15  C   UNL     1     -11.656  11.879  65.886  1.00  0.00    -0.291 C  
HETATM   16  C   UNL     1     -10.684  17.072  64.792  1.00  0.00     0.347 C  
HETATM   17  O   UNL     1     -13.653  12.118  64.573  1.00  0.00    -0.477 OA 
HETATM   18  C   UNL     1     -11.168  15.800  64.170  1.00  0.00     0.072 C  
HETATM   19  C   UNL     1     -11.201  14.569  64.720  1.00  0.00    -0.395 C  
HETATM   20  C   UNL     1     -11.767  13.462  63.843  1.00  0.00    -0.455 C  
HETATM   21  C   UNL     1     -12.223  12.153  64.500  1.00  0.00    -0.319 C  
ENDROOT
BRANCH   4  22
HETATM   22  C   UNL     1      -8.029  17.001  68.848  1.00  0.00    -0.217 A  
HETATM   23  N   UNL     1      -5.793  17.542  69.813  1.00  0.00    -0.236 NA 
HETATM   24  C   UNL     1      -5.624  16.256  70.129  1.00  0.00    -0.184 A  
HETATM   25  C   UNL     1      -6.551  15.290  69.793  1.00  0.00    -0.177 A  
HETATM   26  C   UNL     1      -7.733  15.667  69.119  1.00  0.00    -0.212 A  
HETATM   27  C   UNL     1      -6.962  17.862  69.189  1.00  0.00    -0.207 A  
ENDBRANCH   4  22
TORSDOF 1
ENDMDL
MODEL       67
REMARK 921   NORMALIZED FREE ENERGY PREDICTED BY IDOCK:   -4.20 KCAL/MOL
REMARK 922        TOTAL FREE ENERGY PREDICTED BY IDOCK:   -4.27 KCAL/MOL
REMARK 923 INTER-LIGAND FREE ENERGY PREDICTED BY IDOCK:   -4.44 KCAL/MOL
REMARK 924 INTRA-LIGAND FREE ENERGY PREDICTED BY IDOCK:    0.17 KCAL/MOL
REMARK 927      BINDING AFFINITY PREDICTED BY RF-SCORE:    0.00 PKD
ROOT
HETATM    1  C   UNL     1     -10.712  15.325  69.145  1.00  0.00    -0.251 C  
HETATM    2  C   UNL     1     -11.754  16.023  68.451  1.00  0.00    -0.196 C  
HETATM    3  C   UNL     1     -10.603  15.520  67.641  1.00  0.00    -0.291 C  
HETATM    4  C   UNL     1      -9.631  14.413  68.242  1.00  0.00    -0.211 C  
HETATM    5  C   UNL     1      -6.168  17.116  68.129  1.00  0.00    -0.136 C  
HETATM    6  C   UNL     1     -10.817  13.934  67.838  1.00  0.00    -0.256 C  
HETATM    7  C   UNL     1     -11.797  12.862  68.228  1.00  0.00    -0.372 C  
HETATM    8  C   UNL     1      -7.367  17.752  67.407  1.00  0.00    -0.202 C  
HETATM    9  C   UNL     1      -9.879  14.015  66.238  1.00  0.00    -0.318 C  
HETATM   10  C   UNL     1      -6.946  18.150  65.970  1.00  0.00    -0.327 C  
HETATM   11  C   UNL     1      -8.579  15.360  66.234  1.00  0.00    -0.148 C  
HETATM   12  C   UNL     1      -8.605  16.752  67.373  1.00  0.00    -0.206 C  
HETATM   13  H   UNL     1      -6.482  21.439  64.911  1.00  0.00     0.000 HD 
HETATM   14  C   UNL     1      -9.233  16.540  69.030  1.00  0.00    -0.237 C  
HETATM   15  C   UNL     1      -5.847  19.224  65.926  1.00  0.00    -0.191 C  
HETATM   16  C   UNL     1      -9.604  17.928  69.575  1.00  0.00     0.384 C  
HETATM   17  O   UNL     1      -6.976  21.333  65.716  1.00  0.00     0.153 OA 
HETATM   18  C   UNL     1      -8.727  19.053  69.127  1.00  0.00    -0.098 C  
HETATM   19  C   UNL     1      -7.761  19.026  68.186  1.00  0.00    -0.326 C  
HETATM   20  C   UNL     1      -7.040  20.342  67.932  1.00  0.00    -0.327 C  
HETATM   21  C   UNL     1      -6.242  20.513  66.633  1.00  0.00    -0.204 C  
ENDROOT
BRANCH   4  22
HETATM   22  C   UNL     1      -8.540  13.338  68.433  1.00  0.00    -0.130 A  
HETATM   23  N   UNL     1      -6.296  12.747  69.348  1.00  0.00    -0.109 NA 
HETATM   24  C   UNL     1      -6.539  11.459  69.097  1.00  0.00    -0.095 A  
HETATM   25  C   UNL     1      -7.696  11.038  68.473  1.00  0.00    -0.122 A  
HETATM   26  C   UNL     1      -8.675  11.989  68.111  1.00  0.00    -0.177 A  
HETATM   27  C   UNL     1      -7.282  13.625  69.007  1.00  0.00    -0.049 A  
ENDBRANCH   4  22
TORSDOF 1
ENDMDL
MODEL       68
REMARK 921   NORMALIZED FREE ENERGY PREDICTED BY IDOCK:   -4.18 KCAL/MOL
REMARK 922        TOTAL FREE ENERGY PREDICTED BY IDOCK:   -4.25 KCAL/MOL
REMARK 923 INTER-LIGAND FREE ENERGY PREDICTED BY IDOCK:   -4.48 KCAL/MOL
REMARK 924 INTRA-LIGAND FREE ENERGY PREDICTED BY IDOCK:    0.23 KCAL/MOL
REMARK 927      BINDING AFFINITY PREDICTED BY RF-SCORE:    0.00 PKD
ROOT
HETATM    1  C   UNL     1      -9.328   8.821  68.894  1.00  0.00    -0.145 C  
HETATM    2  C   UNL     1     -10.215   9.035  67.789  1.00  0.00    -0.284 C  
HETATM    3  C   UNL     1     -10.483   7.858  68.670  1.00  0.00    -0.196 C  
HETATM    4  C   UNL     1      -9.816   7.777  70.113  1.00  0.00    -0.184 C  
HETATM    5  C   UNL     1      -7.537   4.168  69.070  1.00  0.00    -0.054 C  
HETATM    6  C   UNL     1     -10.848   8.631  70.037  1.00  0.00    -0.226 C  
HETATM    7  C   UNL     1     -11.276   9.944  70.633  1.00  0.00    -0.416 C  
HETATM    8  C   UNL     1      -8.539   4.509  67.956  1.00  0.00    -0.109 C  
HETATM    9  C   UNL     1     -11.720   7.007  70.252  1.00  0.00    -0.284 C  
HETATM   10  C   UNL     1      -9.435   3.274  67.679  1.00  0.00    -0.214 C  
HETATM   11  C   UNL     1     -10.743   5.569  69.563  1.00  0.00    -0.332 C  
HETATM   12  C   UNL     1      -9.425   5.769  68.355  1.00  0.00    -0.137 C  
HETATM   13  H   UNL     1      -9.213   1.301  64.814  1.00  0.00     0.000 HD 
HETATM   14  C   UNL     1      -8.393   7.224  68.389  1.00  0.00    -0.125 C  
HETATM   15  C   UNL     1      -8.659   2.057  67.151  1.00  0.00    -0.115 C  
HETATM   16  C   UNL     1      -7.738   7.371  67.007  1.00  0.00    -0.111 C  
HETATM   17  O   UNL     1      -8.802   2.155  64.756  1.00  0.00    -0.104 OA 
HETATM   18  C   UNL     1      -7.393   6.090  66.317  1.00  0.00    -0.081 C  
HETATM   19  C   UNL     1      -7.729   4.836  66.681  1.00  0.00    -0.095 C  
HETATM   20  C   UNL     1      -7.245   3.722  65.766  1.00  0.00    -0.071 C  
HETATM   21  C   UNL     1      -7.907   2.342  65.859  1.00  0.00    -0.080 C  
ENDROOT
BRANCH   4  22
HETATM   22  C   UNL     1      -9.429   7.371  71.550  1.00  0.00    -0.162 A  
HETATM   23  N   UNL     1     -10.131   7.099  73.929  1.00  0.00    -0.336 NA 
HETATM   24  C   UNL     1      -8.994   6.446  74.184  1.00  0.00    -0.149 A  
HETATM   25  C   UNL     1      -8.016   6.273  73.225  1.00  0.00    -0.105 A  
HETATM   26  C   UNL     1      -8.226   6.771  71.922  1.00  0.00    -0.102 A  
HETATM   27  C   UNL     1     -10.302   7.536  72.649  1.00  0.00    -0.259 A  
ENDBRANCH   4  22
TORSDOF 1
ENDMDL
MODEL       69
REMARK 921   NORMALIZED FREE ENERGY PREDICTED BY IDOCK:   -4.12 KCAL/MOL
REMARK 922        TOTAL FREE ENERGY PREDICTED BY IDOCK:   -4.18 KCAL/MOL
REMARK 923 INTER-LIGAND FREE ENERGY PREDICTED BY IDOCK:   -4.36 KCAL/MOL
REMARK 924 INTRA-LIGAND FREE ENERGY PREDICTED BY IDOCK:    0.18 KCAL/MOL
REMARK 927      BINDING AFFINITY PREDICTED BY RF-SCORE:    0.00 PKD
ROOT
HETATM    1  C   UNL     1     -10.171  11.020  69.307  1.00  0.00    -0.153 C  
HETATM    2  C   UNL     1     -11.249  11.012  68.363  1.00  0.00    -0.337 C  
HETATM    3  C   UNL     1     -10.635   9.697  68.721  1.00  0.00    -0.242 C  
HETATM    4  C   UNL     1      -9.734   9.569  70.026  1.00  0.00    -0.271 C  
HETATM    5  C   UNL     1      -6.158   8.537  67.691  1.00  0.00    -0.048 C  
HETATM    6  C   UNL     1     -11.051   9.628  70.277  1.00  0.00    -0.327 C  
HETATM    7  C   UNL     1     -11.979  10.169  71.329  1.00  0.00    -0.473 C  
HETATM    8  C   UNL     1      -7.400   8.559  66.786  1.00  0.00    -0.082 C  
HETATM    9  C   UNL     1     -10.831   7.836  69.842  1.00  0.00    -0.228 C  
HETATM   10  C   UNL     1      -7.518   7.200  66.048  1.00  0.00    -0.080 C  
HETATM   11  C   UNL     1      -9.410   7.552  68.660  1.00  0.00    -0.143 C  
HETATM   12  C   UNL     1      -8.714   8.855  67.633  1.00  0.00    -0.124 C  
HETATM   13  H   UNL     1      -6.897   6.765  62.646  1.00  0.00     0.000 HD 
HETATM   14  C   UNL     1      -8.658  10.534  68.234  1.00  0.00    -0.127 C  
HETATM   15  C   UNL     1      -6.345   6.912  65.098  1.00  0.00    -0.039 C  
HETATM   16  C   UNL     1      -8.510  11.465  67.020  1.00  0.00    -0.159 C  
HETATM   17  O   UNL     1      -7.039   7.661  62.925  1.00  0.00    -0.073 OA 
HETATM   18  C   UNL     1      -7.687  10.929  65.893  1.00  0.00    -0.073 C  
HETATM   19  C   UNL     1      -7.200   9.680  65.743  1.00  0.00    -0.100 C  
HETATM   20  C   UNL     1      -6.404   9.422  64.472  1.00  0.00    -0.080 C  
HETATM   21  C   UNL     1      -6.173   7.974  64.021  1.00  0.00    -0.062 C  
ENDROOT
BRANCH   4  22
HETATM   22  C   UNL     1      -8.885   9.036  71.199  1.00  0.00    -0.282 A  
HETATM   23  N   UNL     1      -8.829   7.923  73.431  1.00  0.00    -0.235 NA 
HETATM   24  C   UNL     1      -7.506   7.785  73.324  1.00  0.00    -0.115 A  
HETATM   25  C   UNL     1      -6.800   8.289  72.249  1.00  0.00    -0.096 A  
HETATM   26  C   UNL     1      -7.494   8.946  71.210  1.00  0.00    -0.127 A  
HETATM   27  C   UNL     1      -9.459   8.537  72.390  1.00  0.00    -0.280 A  
ENDBRANCH   4  22
TORSDOF 1
ENDMDL
MODEL       70
REMARK 921   NORMALIZED FREE ENERGY PREDICTED BY IDOCK:   -4.06 KCAL/MOL
REMARK 922        TOTAL FREE ENERGY PREDICTED BY IDOCK:   -4.12 KCAL/MOL
REMARK 923 INTER-LIGAND FREE ENERGY PREDICTED BY IDOCK:   -4.34 KCAL/MOL
REMARK 924 INTRA-LIGAND FREE ENERGY PREDICTED BY IDOCK:    0.22 KCAL/MOL
REMARK 927      BINDING AFFINITY PREDICTED BY RF-SCORE:    0.00 PKD
ROOT
HETATM    1  C   UNL     1     -11.553   6.945  69.592  1.00  0.00    -0.150 C  
HETATM    2  C   UNL     1     -11.124   6.188  70.731  1.00  0.00    -0.375 C  
HETATM    3  C   UNL     1     -10.153   7.161  70.143  1.00  0.00    -0.195 C  
HETATM    4  C   UNL     1     -10.668   8.302  69.162  1.00  0.00    -0.117 C  
HETATM    5  C   UNL     1      -8.330   6.727  65.792  1.00  0.00    -0.143 C  
HETATM    6  C   UNL     1     -10.937   8.535  70.456  1.00  0.00    -0.263 C  
HETATM    7  C   UNL     1     -12.010   9.179  71.290  1.00  0.00    -0.394 C  
HETATM    8  C   UNL     1      -7.957   5.994  67.090  1.00  0.00    -0.102 C  
HETATM    9  C   UNL     1      -9.174   9.100  70.332  1.00  0.00    -0.271 C  
HETATM   10  C   UNL     1      -6.425   6.088  67.308  1.00  0.00    -0.047 C  
HETATM   11  C   UNL     1      -8.218   8.192  69.005  1.00  0.00    -0.127 C  
HETATM   12  C   UNL     1      -8.740   6.607  68.332  1.00  0.00    -0.122 C  
HETATM   13  H   UNL     1      -4.232   3.404  66.934  1.00  0.00     0.000 HD 
HETATM   14  C   UNL     1     -10.477   6.231  68.174  1.00  0.00    -0.278 C  
HETATM   15  C   UNL     1      -5.605   5.388  66.213  1.00  0.00    -0.017 C  
HETATM   16  C   UNL     1     -10.622   4.705  68.074  1.00  0.00     0.404 C  
HETATM   17  O   UNL     1      -5.149   3.174  67.024  1.00  0.00    -0.007 OA 
HETATM   18  C   UNL     1      -9.521   3.998  67.349  1.00  0.00    -0.231 C  
HETATM   19  C   UNL     1      -8.350   4.510  66.920  1.00  0.00    -0.105 C  
HETATM   20  C   UNL     1      -7.412   3.537  66.221  1.00  0.00    -0.077 C  
HETATM   21  C   UNL     1      -5.931   3.907  66.075  1.00  0.00    -0.027 C  
ENDROOT
BRANCH   4  22
HETATM   22  C   UNL     1     -10.773   9.547  68.255  1.00  0.00    -0.241 A  
HETATM   23  N   UNL     1     -11.441  11.939  68.022  1.00  0.00    -0.299 NA 
HETATM   24  C   UNL     1     -10.824  11.991  66.840  1.00  0.00    -0.259 A  
HETATM   25  C   UNL     1     -10.227  10.882  66.274  1.00  0.00    -0.300 A  
HETATM   26  C   UNL     1     -10.239   9.656  66.972  1.00  0.00    -0.308 A  
HETATM   27  C   UNL     1     -11.402  10.741  68.672  1.00  0.00    -0.291 A  
ENDBRANCH   4  22
TORSDOF 1
ENDMDL
MODEL       71
REMARK 921   NORMALIZED FREE ENERGY PREDICTED BY IDOCK:   -4.02 KCAL/MOL
REMARK 922        TOTAL FREE ENERGY PREDICTED BY IDOCK:   -4.08 KCAL/MOL
REMARK 923 INTER-LIGAND FREE ENERGY PREDICTED BY IDOCK:   -4.26 KCAL/MOL
REMARK 924 INTRA-LIGAND FREE ENERGY PREDICTED BY IDOCK:    0.18 KCAL/MOL
REMARK 927      BINDING AFFINITY PREDICTED BY RF-SCORE:    0.00 PKD
ROOT
HETATM    1  C   UNL     1     -10.854   7.284  70.445  1.00  0.00    -0.265 C  
HETATM    2  C   UNL     1     -12.026   6.467  70.557  1.00  0.00    -0.322 C  
HETATM    3  C   UNL     1     -10.701   5.803  70.751  1.00  0.00    -0.342 C  
HETATM    4  C   UNL     1      -9.407   6.682  71.042  1.00  0.00    -0.161 C  
HETATM    5  C   UNL     1      -7.458   5.388  67.322  1.00  0.00    -0.084 C  
HETATM    6  C   UNL     1     -10.227   6.554  72.096  1.00  0.00    -0.203 C  
HETATM    7  C   UNL     1     -10.679   7.362  73.282  1.00  0.00    -0.441 C  
HETATM    8  C   UNL     1      -8.741   4.577  67.564  1.00  0.00    -0.109 C  
HETATM    9  C   UNL     1      -9.272   4.964  72.169  1.00  0.00    -0.159 C  
HETATM   10  C   UNL     1      -8.402   3.065  67.541  1.00  0.00    -0.092 C  
HETATM   11  C   UNL     1      -8.686   4.400  70.485  1.00  0.00    -0.119 C  
HETATM   12  C   UNL     1      -9.416   4.982  68.947  1.00  0.00    -0.195 C  
HETATM   13  H   UNL     1      -9.308   0.897  64.966  1.00  0.00     0.000 HD 
HETATM   14  C   UNL     1     -10.042   6.649  68.828  1.00  0.00    -0.168 C  
HETATM   15  C   UNL     1      -7.876   2.573  66.184  1.00  0.00    -0.081 C  
HETATM   16  C   UNL     1     -11.025   6.701  67.649  1.00  0.00    -0.392 C  
HETATM   17  O   UNL     1      -9.780   1.721  64.993  1.00  0.00     0.030 OA 
HETATM   18  C   UNL     1     -10.683   5.828  66.484  1.00  0.00    -0.274 C  
HETATM   19  C   UNL     1      -9.717   4.890  66.408  1.00  0.00    -0.200 C  
HETATM   20  C   UNL     1      -9.615   4.142  65.086  1.00  0.00    -0.185 C  
HETATM   21  C   UNL     1      -8.853   2.812  65.041  1.00  0.00    -0.122 C  
ENDROOT
BRANCH   4  22
HETATM   22  C   UNL     1      -7.982   7.156  71.395  1.00  0.00    -0.102 A  
HETATM   23  N   UNL     1      -6.340   7.768  73.170  1.00  0.00    -0.062 NA 
HETATM   24  C   UNL     1      -5.365   7.780  72.258  1.00  0.00    -0.036 A  
HETATM   25  C   UNL     1      -5.612   7.562  70.918  1.00  0.00    -0.030 A  
HETATM   26  C   UNL     1      -6.929   7.288  70.490  1.00  0.00    -0.057 A  
HETATM   27  C   UNL     1      -7.590   7.471  72.715  1.00  0.00    -0.088 A  
ENDBRANCH   4  22
TORSDOF 1
ENDMDL
MODEL       72
REMARK 921   NORMALIZED FREE ENERGY PREDICTED BY IDOCK:   -3.91 KCAL/MOL
REMARK 922        TOTAL FREE ENERGY PREDICTED BY IDOCK:   -3.97 KCAL/MOL
REMARK 923 INTER-LIGAND FREE ENERGY PREDICTED BY IDOCK:   -4.19 KCAL/MOL
REMARK 924 INTRA-LIGAND FREE ENERGY PREDICTED BY IDOCK:    0.23 KCAL/MOL
REMARK 927      BINDING AFFINITY PREDICTED BY RF-SCORE:    0.00 PKD
ROOT
HETATM    1  C   UNL     1     -11.288  10.285  68.487  1.00  0.00    -0.231 C  
HETATM    2  C   UNL     1     -11.408  11.088  69.667  1.00  0.00    -0.363 C  
HETATM    3  C   UNL     1     -10.030  10.716  69.223  1.00  0.00    -0.215 C  
HETATM    4  C   UNL     1      -9.789  10.187  67.742  1.00  0.00    -0.190 C  
HETATM    5  C   UNL     1      -8.417   6.261  69.161  1.00  0.00    -0.120 C  
HETATM    6  C   UNL     1      -9.983  11.512  67.822  1.00  0.00    -0.195 C  
HETATM    7  C   UNL     1     -10.604  12.615  67.010  1.00  0.00    -0.255 C  
HETATM    8  C   UNL     1      -8.584   7.229  70.344  1.00  0.00    -0.144 C  
HETATM    9  C   UNL     1      -8.185  11.369  68.261  1.00  0.00    -0.150 C  
HETATM   10  C   UNL     1      -7.257   7.293  71.142  1.00  0.00    -0.072 C  
HETATM   11  C   UNL     1      -7.769   9.733  69.066  1.00  0.00    -0.085 C  
HETATM   12  C   UNL     1      -9.005   8.677  69.836  1.00  0.00    -0.149 C  
HETATM   13  H   UNL     1      -6.808   5.888  74.301  1.00  0.00     0.000 HD 
HETATM   14  C   UNL     1     -10.661   8.607  69.172  1.00  0.00    -0.193 C  
HETATM   15  C   UNL     1      -6.860   5.955  71.784  1.00  0.00    -0.068 C  
HETATM   16  C   UNL     1     -11.588   8.069  70.273  1.00  0.00    -0.003 C  
HETATM   17  O   UNL     1      -7.710   6.007  74.029  1.00  0.00    -0.098 OA 
HETATM   18  C   UNL     1     -10.984   7.048  71.183  1.00  0.00    -0.275 C  
HETATM   19  C   UNL     1      -9.694   6.665  71.259  1.00  0.00    -0.183 C  
HETATM   20  C   UNL     1      -9.371   5.606  72.303  1.00  0.00    -0.157 C  
HETATM   21  C   UNL     1      -7.913   5.414  72.741  1.00  0.00    -0.102 C  
ENDROOT
BRANCH   4  22
HETATM   22  C   UNL     1      -9.152   9.714  66.418  1.00  0.00    -0.191 A  
HETATM   23  N   UNL     1      -8.449  10.281  64.093  1.00  0.00    -0.174 NA 
HETATM   24  C   UNL     1      -7.799   9.118  64.011  1.00  0.00    -0.129 A  
HETATM   25  C   UNL     1      -7.826   8.189  65.032  1.00  0.00    -0.128 A  
HETATM   26  C   UNL     1      -8.536   8.480  66.216  1.00  0.00    -0.130 A  
HETATM   27  C   UNL     1      -9.096  10.531  65.266  1.00  0.00    -0.190 A  
ENDBRANCH   4  22
TORSDOF 1
ENDMDL
MODEL       73
REMARK 921   NORMALIZED FREE ENERGY PREDICTED BY IDOCK:   -3.90 KCAL/MOL
REMARK 922        TOTAL FREE ENERGY PREDICTED BY IDOCK:   -3.95 KCAL/MOL
REMARK 923 INTER-LIGAND FREE ENERGY PREDICTED BY IDOCK:   -4.15 KCAL/MOL
REMARK 924 INTRA-LIGAND FREE ENERGY PREDICTED BY IDOCK:    0.20 KCAL/MOL
REMARK 927      BINDING AFFINITY PREDICTED BY RF-SCORE:    0.00 PKD
ROOT
HETATM    1  C   UNL     1      -6.015  10.553  68.966  1.00  0.00    -0.040 C  
HETATM    2  C   UNL     1      -6.141  10.919  70.345  1.00  0.00    -0.129 C  
HETATM    3  C   UNL     1      -7.344  10.341  69.673  1.00  0.00    -0.150 C  
HETATM    4  C   UNL     1      -7.184   9.551  68.301  1.00  0.00    -0.076 C  
HETATM    5  C   UNL     1      -9.626  12.475  66.111  1.00  0.00    -0.230 C  
HETATM    6  C   UNL     1      -6.790   8.855  69.378  1.00  0.00    -0.049 C  
HETATM    7  C   UNL     1      -5.751   7.832  69.746  1.00  0.00    -0.023 C  
HETATM    8  C   UNL     1      -9.679  12.757  67.621  1.00  0.00    -0.205 C  
HETATM    9  C   UNL     1      -8.628   8.597  69.416  1.00  0.00    -0.127 C  
HETATM   10  C   UNL     1     -11.159  12.791  68.082  1.00  0.00    -0.288 C  
HETATM   11  C   UNL     1      -9.570  10.020  68.652  1.00  0.00    -0.158 C  
HETATM   12  C   UNL     1      -8.862  11.659  68.433  1.00  0.00    -0.161 C  
HETATM   13  H   UNL     1     -12.853  15.696  69.002  1.00  0.00     0.000 HD 
HETATM   14  C   UNL     1      -7.123  11.842  68.077  1.00  0.00    -0.084 C  
HETATM   15  C   UNL     1     -11.977  13.923  67.443  1.00  0.00    -0.436 C  
HETATM   16  C   UNL     1      -6.715  13.278  68.443  1.00  0.00    -0.096 C  
HETATM   17  O   UNL     1     -11.905  15.761  68.987  1.00  0.00    -0.391 OA 
HETATM   18  C   UNL     1      -7.755  14.325  68.202  1.00  0.00    -0.141 C  
HETATM   19  C   UNL     1      -9.048  14.146  67.861  1.00  0.00    -0.189 C  
HETATM   20  C   UNL     1      -9.877  15.412  67.698  1.00  0.00    -0.220 C  
HETATM   21  C   UNL     1     -11.407  15.306  67.723  1.00  0.00    -0.326 C  
ENDROOT
BRANCH   4  22
HETATM   22  C   UNL     1      -7.432   8.693  67.043  1.00  0.00    -0.084 A  
HETATM   23  N   UNL     1      -7.868   6.432  66.082  1.00  0.00    -0.099 NA 
HETATM   24  C   UNL     1      -8.142   6.992  64.901  1.00  0.00    -0.107 A  
HETATM   25  C   UNL     1      -8.026   8.351  64.689  1.00  0.00    -0.147 A  
HETATM   26  C   UNL     1      -7.634   9.189  65.756  1.00  0.00    -0.091 A  
HETATM   27  C   UNL     1      -7.523   7.283  67.089  1.00  0.00    -0.105 A  
ENDBRANCH   4  22
TORSDOF 1
ENDMDL
MODEL       74
REMARK 921   NORMALIZED FREE ENERGY PREDICTED BY IDOCK:   -3.83 KCAL/MOL
REMARK 922        TOTAL FREE ENERGY PREDICTED BY IDOCK:   -3.88 KCAL/MOL
REMARK 923 INTER-LIGAND FREE ENERGY PREDICTED BY IDOCK:   -4.50 KCAL/MOL
REMARK 924 INTRA-LIGAND FREE ENERGY PREDICTED BY IDOCK:    0.62 KCAL/MOL
REMARK 927      BINDING AFFINITY PREDICTED BY RF-SCORE:    0.00 PKD
ROOT
HETATM    1  C   UNL     1      -9.989   8.840  69.189  1.00  0.00    -0.193 C  
HETATM    2  C   UNL     1     -10.501   8.371  67.936  1.00  0.00    -0.255 C  
HETATM    3  C   UNL     1      -9.246   9.183  67.907  1.00  0.00    -0.144 C  
HETATM    4  C   UNL     1      -8.407   9.394  69.242  1.00  0.00    -0.131 C  
HETATM    5  C   UNL     1      -9.052  13.740  69.188  1.00  0.00     0.417 C  
HETATM    6  C   UNL     1      -8.266   8.176  68.697  1.00  0.00    -0.125 C  
HETATM    7  C   UNL     1      -8.058   6.755  69.143  1.00  0.00    -0.120 C  
HETATM    8  C   UNL     1      -9.561  13.108  67.883  1.00  0.00    -0.218 C  
HETATM    9  C   UNL     1      -7.077   9.180  67.685  1.00  0.00    -0.082 C  
HETATM   10  C   UNL     1      -8.889  13.814  66.678  1.00  0.00    -0.089 C  
HETATM   11  C   UNL     1      -7.584  10.975  67.550  1.00  0.00    -0.106 C  
HETATM   12  C   UNL     1      -9.263  11.545  67.856  1.00  0.00    -0.168 C  
HETATM   13  H   UNL     1     -10.551  15.984  64.512  1.00  0.00     0.000 HD 
HETATM   14  C   UNL     1     -10.272  10.735  69.085  1.00  0.00    -0.229 C  
HETATM   15  C   UNL     1      -9.250  15.303  66.559  1.00  0.00    -0.321 C  
HETATM   16  C   UNL     1     -11.742  11.065  68.781  1.00  0.00    -0.383 C  
HETATM   17  O   UNL     1     -11.108  15.427  65.043  1.00  0.00    -0.388 OA 
HETATM   18  C   UNL     1     -11.994  12.432  68.228  1.00  0.00    -0.270 C  
HETATM   19  C   UNL     1     -11.087  13.339  67.814  1.00  0.00    -0.289 C  
HETATM   20  C   UNL     1     -11.647  14.648  67.279  1.00  0.00    -0.404 C  
HETATM   21  C   UNL     1     -10.746  15.548  66.423  1.00  0.00    -0.303 C  
ENDROOT
BRANCH   4  22
HETATM   22  C   UNL     1      -7.315   9.764  70.267  1.00  0.00    -0.165 A  
HETATM   23  N   UNL     1      -6.097   9.170  72.362  1.00  0.00    -0.260 NA 
HETATM   24  C   UNL     1      -5.208  10.134  72.113  1.00  0.00     0.027 A  
HETATM   25  C   UNL     1      -5.328  10.981  71.029  1.00  0.00    -0.100 A  
HETATM   26  C   UNL     1      -6.405  10.813  70.133  1.00  0.00    -0.147 A  
HETATM   27  C   UNL     1      -7.103   9.026  71.454  1.00  0.00    -0.050 A  
ENDBRANCH   4  22
TORSDOF 1
ENDMDL
MODEL       75
REMARK 921   NORMALIZED FREE ENERGY PREDICTED BY IDOCK:   -3.78 KCAL/MOL
REMARK 922        TOTAL FREE ENERGY PREDICTED BY IDOCK:   -3.82 KCAL/MOL
REMARK 923 INTER-LIGAND FREE ENERGY PREDICTED BY IDOCK:   -4.14 KCAL/MOL
REMARK 924 INTRA-LIGAND FREE ENERGY PREDICTED BY IDOCK:    0.32 KCAL/MOL
REMARK 927      BINDING AFFINITY PREDICTED BY RF-SCORE:    0.00 PKD
ROOT
HETATM    1  C   UNL     1      -7.206   7.760  69.606  1.00  0.00    -0.075 C  
HETATM    2  C   UNL     1      -6.601   8.908  70.214  1.00  0.00    -0.042 C  
HETATM    3  C   UNL     1      -7.443   8.031  71.083  1.00  0.00    -0.070 C  
HETATM    4  C   UNL     1      -7.809   6.557  70.607  1.00  0.00    -0.106 C  
HETATM    5  C   UNL     1     -12.108   7.458  70.481  1.00  0.00    -0.089 C  
HETATM    6  C   UNL     1      -6.548   6.690  71.046  1.00  0.00    -0.053 C  
HETATM    7  C   UNL     1      -5.184   6.127  70.757  1.00  0.00    -0.014 C  
HETATM    8  C   UNL     1     -11.336   8.622  71.122  1.00  0.00    -0.329 C  
HETATM    9  C   UNL     1      -7.483   6.503  72.639  1.00  0.00    -0.094 C  
HETATM   10  C   UNL     1     -11.941   8.930  72.515  1.00  0.00    -0.219 C  
HETATM   11  C   UNL     1      -9.240   7.132  72.520  1.00  0.00    -0.159 C  
HETATM   12  C   UNL     1      -9.787   8.277  71.244  1.00  0.00    -0.225 C  
HETATM   13  H   UNL     1     -13.838  11.764  73.239  1.00  0.00     0.000 HD 
HETATM   14  C   UNL     1      -9.072   8.205  69.611  1.00  0.00    -0.151 C  
HETATM   15  C   UNL     1     -13.399   9.410  72.460  1.00  0.00    -0.420 C  
HETATM   16  C   UNL     1      -9.327   9.556  68.924  1.00  0.00    -0.149 C  
HETATM   17  O   UNL     1     -13.319  11.810  72.444  1.00  0.00    -0.343 OA 
HETATM   18  C   UNL     1     -10.624  10.218  69.265  1.00  0.00    -0.254 C  
HETATM   19  C   UNL     1     -11.514   9.859  70.213  1.00  0.00    -0.349 C  
HETATM   20  C   UNL     1     -12.747  10.740  70.340  1.00  0.00    -0.346 C  
HETATM   21  C   UNL     1     -13.585  10.667  71.623  1.00  0.00    -0.031 C  
ENDROOT
BRANCH   4  22
HETATM   22  C   UNL     1      -8.310   5.099  70.538  1.00  0.00    -0.110 A  
HETATM   23  N   UNL     1      -9.660   3.386  69.327  1.00  0.00    -0.138 NA 
HETATM   24  C   UNL     1      -9.132   2.433  70.098  1.00  0.00    -0.109 A  
HETATM   25  C   UNL     1      -8.260   2.721  71.128  1.00  0.00    -0.073 A  
HETATM   26  C   UNL     1      -7.884   4.061  71.364  1.00  0.00    -0.071 A  
HETATM   27  C   UNL     1      -9.245   4.661  69.573  1.00  0.00    -0.122 A  
ENDBRANCH   4  22
TORSDOF 1
ENDMDL
MODEL       76
REMARK 921   NORMALIZED FREE ENERGY PREDICTED BY IDOCK:   -3.78 KCAL/MOL
REMARK 922        TOTAL FREE ENERGY PREDICTED BY IDOCK:   -3.82 KCAL/MOL
REMARK 923 INTER-LIGAND FREE ENERGY PREDICTED BY IDOCK:   -4.01 KCAL/MOL
REMARK 924 INTRA-LIGAND FREE ENERGY PREDICTED BY IDOCK:    0.18 KCAL/MOL
REMARK 927      BINDING AFFINITY PREDICTED BY RF-SCORE:    0.00 PKD
ROOT
HETATM    1  C   UNL     1      -7.127  10.436  69.939  1.00  0.00    -0.160 C  
HETATM    2  C   UNL     1      -5.820   9.957  69.601  1.00  0.00    -0.041 C  
HETATM    3  C   UNL     1      -6.791  10.157  68.483  1.00  0.00    -0.058 C  
HETATM    4  C   UNL     1      -8.091  11.046  68.710  1.00  0.00    -0.145 C  
HETATM    5  C   UNL     1     -10.778   7.642  68.004  1.00  0.00    -0.152 C  
HETATM    6  C   UNL     1      -6.963  11.758  68.568  1.00  0.00    -0.083 C  
HETATM    7  C   UNL     1      -6.359  13.036  69.082  1.00  0.00    -0.105 C  
HETATM    8  C   UNL     1      -9.328   7.256  67.672  1.00  0.00    -0.139 C  
HETATM    9  C   UNL     1      -7.406  11.402  66.801  1.00  0.00    -0.135 C  
HETATM   10  C   UNL     1      -9.264   6.712  66.222  1.00  0.00    -0.158 C  
HETATM   11  C   UNL     1      -8.358   9.804  66.606  1.00  0.00    -0.124 C  
HETATM   12  C   UNL     1      -8.355   8.503  67.849  1.00  0.00    -0.126 C  
HETATM   13  H   UNL     1      -8.755   3.360  65.414  1.00  0.00     0.000 HD 
HETATM   14  C   UNL     1      -8.246   8.920  69.581  1.00  0.00    -0.114 C  
HETATM   15  C   UNL     1     -10.070   5.422  66.013  1.00  0.00    -0.115 C  
HETATM   16  C   UNL     1      -7.759   7.673  70.336  1.00  0.00    -0.090 C  
HETATM   17  O   UNL     1      -8.524   3.607  66.301  1.00  0.00    -0.107 OA 
HETATM   18  C   UNL     1      -8.239   6.364  69.797  1.00  0.00    -0.126 C  
HETATM   19  C   UNL     1      -8.906   6.135  68.647  1.00  0.00    -0.114 C  
HETATM   20  C   UNL     1      -9.252   4.683  68.353  1.00  0.00    -0.170 C  
HETATM   21  C   UNL     1      -9.624   4.283  66.920  1.00  0.00    -0.203 C  
ENDROOT
BRANCH   4  22
HETATM   22  C   UNL     1      -9.387  11.860  68.514  1.00  0.00    -0.142 A  
HETATM   23  N   UNL     1     -10.459  13.959  67.695  1.00  0.00    -0.244 NA 
HETATM   24  C   UNL     1     -11.661  13.398  67.846  1.00  0.00    -0.339 A  
HETATM   25  C   UNL     1     -11.819  12.132  68.372  1.00  0.00    -0.360 A  
HETATM   26  C   UNL     1     -10.679  11.385  68.738  1.00  0.00    -0.240 A  
HETATM   27  C   UNL     1      -9.386  13.189  68.034  1.00  0.00    -0.219 A  
ENDBRANCH   4  22
TORSDOF 1
ENDMDL
MODEL       77
REMARK 921   NORMALIZED FREE ENERGY PREDICTED BY IDOCK:   -3.73 KCAL/MOL
REMARK 922        TOTAL FREE ENERGY PREDICTED BY IDOCK:   -3.77 KCAL/MOL
REMARK 923 INTER-LIGAND FREE ENERGY PREDICTED BY IDOCK:   -3.94 KCAL/MOL
REMARK 924 INTRA-LIGAND FREE ENERGY PREDICTED BY IDOCK:    0.17 KCAL/MOL
REMARK 927      BINDING AFFINITY PREDICTED BY RF-SCORE:    0.00 PKD
ROOT
HETATM    1  C   UNL     1      -7.416   7.290  68.267  1.00  0.00    -0.102 C  
HETATM    2  C   UNL     1      -6.494   7.904  67.357  1.00  0.00    -0.056 C  
HETATM    3  C   UNL     1      -6.862   8.670  68.587  1.00  0.00    -0.063 C  
HETATM    4  C   UNL     1      -7.539   7.920  69.816  1.00  0.00    -0.090 C  
HETATM    5  C   UNL     1     -11.236  10.268  69.459  1.00  0.00    -0.314 C  
HETATM    6  C   UNL     1      -6.221   7.697  69.702  1.00  0.00    -0.031 C  
HETATM    7  C   UNL     1      -5.236   6.589  69.951  1.00  0.00    -0.014 C  
HETATM    8  C   UNL     1     -10.152  10.831  68.527  1.00  0.00    -0.187 C  
HETATM    9  C   UNL     1      -6.251   9.337  70.571  1.00  0.00    -0.058 C  
HETATM   10  C   UNL     1      -9.954  12.340  68.826  1.00  0.00    -0.048 C  
HETATM   11  C   UNL     1      -7.774  10.342  70.160  1.00  0.00     0.007 C  
HETATM   12  C   UNL     1      -8.784  10.039  68.703  1.00  0.00    -0.127 C  
HETATM   13  H   UNL     1     -10.992  14.905  66.706  1.00  0.00     0.000 HD 
HETATM   14  C   UNL     1      -8.986   8.377  68.084  1.00  0.00    -0.139 C  
HETATM   15  C   UNL     1     -11.200  13.192  68.540  1.00  0.00    -0.307 C  
HETATM   16  C   UNL     1      -9.434   8.471  66.617  1.00  0.00    -0.268 C  
HETATM   17  O   UNL     1     -10.936  14.044  66.310  1.00  0.00    -0.296 OA 
HETATM   18  C   UNL     1     -10.328   9.624  66.288  1.00  0.00    -0.230 C  
HETATM   19  C   UNL     1     -10.654  10.670  67.074  1.00  0.00    -0.317 C  
HETATM   20  C   UNL     1     -11.581  11.707  66.457  1.00  0.00    -0.166 C  
HETATM   21  C   UNL     1     -11.671  13.098  67.096  1.00  0.00    -0.377 C  
ENDROOT
BRANCH   4  22
HETATM   22  C   UNL     1      -8.130   7.563  71.197  1.00  0.00    -0.100 A  
HETATM   23  N   UNL     1     -10.165   7.222  72.598  1.00  0.00    -0.197 NA 
HETATM   24  C   UNL     1      -9.406   6.700  73.564  1.00  0.00    -0.145 A  
HETATM   25  C   UNL     1      -8.031   6.633  73.462  1.00  0.00    -0.097 A  
HETATM   26  C   UNL     1      -7.399   7.101  72.290  1.00  0.00    -0.080 A  
HETATM   27  C   UNL     1      -9.513   7.634  71.474  1.00  0.00    -0.143 A  
ENDBRANCH   4  22
TORSDOF 1
ENDMDL
MODEL       78
REMARK 921   NORMALIZED FREE ENERGY PREDICTED BY IDOCK:   -3.66 KCAL/MOL
REMARK 922        TOTAL FREE ENERGY PREDICTED BY IDOCK:   -3.70 KCAL/MOL
REMARK 923 INTER-LIGAND FREE ENERGY PREDICTED BY IDOCK:   -4.74 KCAL/MOL
REMARK 924 INTRA-LIGAND FREE ENERGY PREDICTED BY IDOCK:    1.04 KCAL/MOL
REMARK 927      BINDING AFFINITY PREDICTED BY RF-SCORE:    0.00 PKD
ROOT
HETATM    1  C   UNL     1      -8.452   5.602  70.381  1.00  0.00    -0.127 C  
HETATM    2  C   UNL     1      -7.020   5.564  70.375  1.00  0.00    -0.057 C  
HETATM    3  C   UNL     1      -7.674   6.907  70.437  1.00  0.00    -0.100 C  
HETATM    4  C   UNL     1      -9.207   7.026  70.847  1.00  0.00    -0.156 C  
HETATM    5  C   UNL     1     -10.323   8.686  66.934  1.00  0.00    -0.355 C  
HETATM    6  C   UNL     1      -8.384   6.787  71.879  1.00  0.00    -0.109 C  
HETATM    7  C   UNL     1      -8.397   6.047  73.188  1.00  0.00    -0.116 C  
HETATM    8  C   UNL     1      -8.794   8.594  67.060  1.00  0.00    -0.143 C  
HETATM    9  C   UNL     1      -8.204   8.623  71.674  1.00  0.00    -0.199 C  
HETATM   10  C   UNL     1      -8.175   9.989  66.784  1.00  0.00    -0.121 C  
HETATM   11  C   UNL     1      -8.484   9.180  69.911  1.00  0.00    -0.151 C  
HETATM   12  C   UNL     1      -8.374   8.068  68.501  1.00  0.00    -0.127 C  
HETATM   13  H   UNL     1      -6.386  10.796  63.902  1.00  0.00     0.000 HD 
HETATM   14  C   UNL     1      -8.867   6.361  68.668  1.00  0.00    -0.120 C  
HETATM   15  C   UNL     1      -8.421  10.499  65.356  1.00  0.00    -0.173 C  
HETATM   16  C   UNL     1      -8.209   5.566  67.530  1.00  0.00    -0.101 C  
HETATM   17  O   UNL     1      -6.492   9.867  64.072  1.00  0.00    -0.114 OA 
HETATM   18  C   UNL     1      -8.068   6.296  66.232  1.00  0.00    -0.114 C  
HETATM   19  C   UNL     1      -8.294   7.602  65.987  1.00  0.00    -0.135 C  
HETATM   20  C   UNL     1      -8.047   8.066  64.559  1.00  0.00    -0.132 C  
HETATM   21  C   UNL     1      -7.876   9.566  64.284  1.00  0.00    -0.129 C  
ENDROOT
BRANCH   4  22
HETATM   22  C   UNL     1     -10.600   7.552  71.250  1.00  0.00    -0.230 A  
HETATM   23  N   UNL     1     -12.135   9.505  71.479  1.00  0.00    -0.364 NA 
HETATM   24  C   UNL     1     -13.154   8.672  71.701  1.00  0.00    -0.346 A  
HETATM   25  C   UNL     1     -12.981   7.305  71.778  1.00  0.00    -0.368 A  
HETATM   26  C   UNL     1     -11.694   6.756  71.588  1.00  0.00    -0.357 A  
HETATM   27  C   UNL     1     -10.917   8.928  71.273  1.00  0.00    -0.293 A  
ENDBRANCH   4  22
TORSDOF 1
ENDMDL
MODEL       79
REMARK 921   NORMALIZED FREE ENERGY PREDICTED BY IDOCK:   -3.54 KCAL/MOL
REMARK 922        TOTAL FREE ENERGY PREDICTED BY IDOCK:   -3.57 KCAL/MOL
REMARK 923 INTER-LIGAND FREE ENERGY PREDICTED BY IDOCK:   -3.91 KCAL/MOL
REMARK 924 INTRA-LIGAND FREE ENERGY PREDICTED BY IDOCK:    0.33 KCAL/MOL
REMARK 927      BINDING AFFINITY PREDICTED BY RF-SCORE:    0.00 PKD
ROOT
HETATM    1  C   UNL     1      -8.679  10.402  68.861  1.00  0.00    -0.157 C  
HETATM    2  C   UNL     1      -7.531  10.362  69.719  1.00  0.00    -0.155 C  
HETATM    3  C   UNL     1      -7.301  10.199  68.251  1.00  0.00    -0.081 C  
HETATM    4  C   UNL     1      -8.433  10.624  67.217  1.00  0.00    -0.126 C  
HETATM    5  C   UNL     1      -8.908   6.510  65.748  1.00  0.00    -0.097 C  
HETATM    6  C   UNL     1      -7.765  11.659  67.749  1.00  0.00    -0.126 C  
HETATM    7  C   UNL     1      -8.026  13.080  68.166  1.00  0.00    -0.154 C  
HETATM    8  C   UNL     1      -7.695   6.606  66.688  1.00  0.00    -0.102 C  
HETATM    9  C   UNL     1      -6.610  11.120  66.399  1.00  0.00    -0.108 C  
HETATM   10  C   UNL     1      -6.439   6.065  65.957  1.00  0.00    -0.046 C  
HETATM   11  C   UNL     1      -6.749   9.294  66.019  1.00  0.00    -0.077 C  
HETATM   12  C   UNL     1      -7.465   8.106  67.165  1.00  0.00    -0.089 C  
HETATM   13  H   UNL     1      -4.891   3.035  66.716  1.00  0.00     0.000 HD 
HETATM   14  C   UNL     1      -8.808   8.593  68.235  1.00  0.00    -0.142 C  
HETATM   15  C   UNL     1      -6.535   4.576  65.591  1.00  0.00    -0.040 C  
HETATM   16  C   UNL     1      -8.863   7.598  69.405  1.00  0.00    -0.139 C  
HETATM   17  O   UNL     1      -5.479   3.373  67.381  1.00  0.00    -0.018 OA 
HETATM   18  C   UNL     1      -8.502   6.186  69.069  1.00  0.00    -0.118 C  
HETATM   19  C   UNL     1      -7.982   5.716  67.917  1.00  0.00    -0.097 C  
HETATM   20  C   UNL     1      -7.701   4.222  67.872  1.00  0.00    -0.079 C  
HETATM   21  C   UNL     1      -6.752   3.675  66.798  1.00  0.00    -0.046 C  
ENDROOT
BRANCH   4  22
HETATM   22  C   UNL     1      -9.224  10.966  65.937  1.00  0.00    -0.214 A  
HETATM   23  N   UNL     1     -10.394  12.700  64.578  1.00  0.00    -0.341 NA 
HETATM   24  C   UNL     1     -10.466  11.844  63.556  1.00  0.00    -0.459 A  
HETATM   25  C   UNL     1     -10.013  10.543  63.655  1.00  0.00    -0.299 A  
HETATM   26  C   UNL     1      -9.428  10.102  64.861  1.00  0.00    -0.349 A  
HETATM   27  C   UNL     1      -9.795  12.238  65.712  1.00  0.00    -0.244 A  
ENDBRANCH   4  22
TORSDOF 1
ENDMDL
MODEL       80
REMARK 921   NORMALIZED FREE ENERGY PREDICTED BY IDOCK:   -3.43 KCAL/MOL
REMARK 922        TOTAL FREE ENERGY PREDICTED BY IDOCK:   -3.45 KCAL/MOL
REMARK 923 INTER-LIGAND FREE ENERGY PREDICTED BY IDOCK:   -3.66 KCAL/MOL
REMARK 924 INTRA-LIGAND FREE ENERGY PREDICTED BY IDOCK:    0.21 KCAL/MOL
REMARK 927      BINDING AFFINITY PREDICTED BY RF-SCORE:    0.00 PKD
ROOT
HETATM    1  C   UNL     1      -8.991   7.557  71.844  1.00  0.00    -0.144 C  
HETATM    2  C   UNL     1      -9.028   6.221  72.362  1.00  0.00    -0.138 C  
HETATM    3  C   UNL     1      -7.927   6.562  71.410  1.00  0.00    -0.108 C  
HETATM    4  C   UNL     1      -7.578   8.085  71.111  1.00  0.00    -0.082 C  
HETATM    5  C   UNL     1      -8.657   7.701  66.869  1.00  0.00    -0.123 C  
HETATM    6  C   UNL     1      -7.137   7.649  72.301  1.00  0.00    -0.071 C  
HETATM    7  C   UNL     1      -6.921   8.180  73.691  1.00  0.00    -0.157 C  
HETATM    8  C   UNL     1      -8.656   6.322  67.548  1.00  0.00    -0.107 C  
HETATM    9  C   UNL     1      -5.811   7.029  71.160  1.00  0.00    -0.036 C  
HETATM   10  C   UNL     1      -7.724   5.365  66.761  1.00  0.00    -0.100 C  
HETATM   11  C   UNL     1      -6.449   6.687  69.435  1.00  0.00    -0.043 C  
HETATM   12  C   UNL     1      -8.191   6.437  69.066  1.00  0.00    -0.115 C  
HETATM   13  H   UNL     1      -8.854   2.725  64.785  1.00  0.00     0.000 HD 
HETATM   14  C   UNL     1      -9.438   7.312  69.995  1.00  0.00    -0.161 C  
HETATM   15  C   UNL     1      -8.194   5.094  65.323  1.00  0.00    -0.126 C  
HETATM   16  C   UNL     1     -10.765   6.554  69.835  1.00  0.00    -0.310 C  
HETATM   17  O   UNL     1      -9.483   3.070  65.406  1.00  0.00    -0.143 OA 
HETATM   18  C   UNL     1     -10.983   5.908  68.504  1.00  0.00    -0.277 C  
HETATM   19  C   UNL     1     -10.099   5.772  67.495  1.00  0.00    -0.204 C  
HETATM   20  C   UNL     1     -10.606   5.049  66.256  1.00  0.00    -0.332 C  
HETATM   21  C   UNL     1      -9.589   4.490  65.253  1.00  0.00    -0.172 C  
ENDROOT
BRANCH   4  22
HETATM   22  C   UNL     1      -6.912   9.389  70.623  1.00  0.00    -0.115 A  
HETATM   23  N   UNL     1      -7.080  11.452  69.231  1.00  0.00    -0.118 NA 
HETATM   24  C   UNL     1      -5.974  11.926  69.809  1.00  0.00    -0.132 A  
HETATM   25  C   UNL     1      -5.255  11.191  70.730  1.00  0.00    -0.114 A  
HETATM   26  C   UNL     1      -5.711   9.908  71.103  1.00  0.00    -0.071 A  
HETATM   27  C   UNL     1      -7.498  10.222  69.645  1.00  0.00    -0.158 A  
ENDBRANCH   4  22
TORSDOF 1
ENDMDL
MODEL       81
REMARK 921   NORMALIZED FREE ENERGY PREDICTED BY IDOCK:   -3.34 KCAL/MOL
REMARK 922        TOTAL FREE ENERGY PREDICTED BY IDOCK:   -3.36 KCAL/MOL
REMARK 923 INTER-LIGAND FREE ENERGY PREDICTED BY IDOCK:   -4.09 KCAL/MOL
REMARK 924 INTRA-LIGAND FREE ENERGY PREDICTED BY IDOCK:    0.73 KCAL/MOL
REMARK 927      BINDING AFFINITY PREDICTED BY RF-SCORE:    0.00 PKD
ROOT
HETATM    1  C   UNL     1     -10.714   7.326  70.561  1.00  0.00    -0.249 C  
HETATM    2  C   UNL     1     -11.699   6.572  69.845  1.00  0.00    -0.349 C  
HETATM    3  C   UNL     1     -10.287   6.085  69.794  1.00  0.00    -0.290 C  
HETATM    4  C   UNL     1      -9.227   6.609  70.858  1.00  0.00    -0.157 C  
HETATM    5  C   UNL     1      -6.761   8.506  67.755  1.00  0.00    -0.066 C  
HETATM    6  C   UNL     1     -10.085   5.701  71.347  1.00  0.00    -0.254 C  
HETATM    7  C   UNL     1     -10.787   5.389  72.640  1.00  0.00    -0.307 C  
HETATM    8  C   UNL     1      -7.868   7.654  67.113  1.00  0.00    -0.117 C  
HETATM    9  C   UNL     1      -8.836   4.619  70.502  1.00  0.00    -0.141 C  
HETATM   10  C   UNL     1      -7.226   6.639  66.131  1.00  0.00    -0.071 C  
HETATM   11  C   UNL     1      -8.013   5.467  69.052  1.00  0.00    -0.094 C  
HETATM   12  C   UNL     1      -8.720   6.899  68.224  1.00  0.00    -0.123 C  
HETATM   13  H   UNL     1      -7.462   6.863  62.660  1.00  0.00     0.000 HD 
HETATM   14  C   UNL     1      -9.661   8.097  69.155  1.00  0.00    -0.157 C  
HETATM   15  C   UNL     1      -6.504   7.301  64.948  1.00  0.00    -0.037 C  
HETATM   16  C   UNL     1     -10.536   8.882  68.165  1.00  0.00    -0.254 C  
HETATM   17  O   UNL     1      -8.092   7.380  63.148  1.00  0.00    -0.116 OA 
HETATM   18  C   UNL     1      -9.930   9.124  66.820  1.00  0.00    -0.322 C  
HETATM   19  C   UNL     1      -8.790   8.605  66.319  1.00  0.00    -0.187 C  
HETATM   20  C   UNL     1      -8.432   9.026  64.901  1.00  0.00    -0.195 C  
HETATM   21  C   UNL     1      -7.414   8.192  64.113  1.00  0.00    -0.106 C  
ENDROOT
BRANCH   4  22
HETATM   22  C   UNL     1      -7.962   6.817  71.717  1.00  0.00    -0.101 A  
HETATM   23  N   UNL     1      -6.672   8.303  73.251  1.00  0.00    -0.113 NA 
HETATM   24  C   UNL     1      -5.847   7.291  73.529  1.00  0.00    -0.053 A  
HETATM   25  C   UNL     1      -5.962   6.060  72.915  1.00  0.00    -0.038 A  
HETATM   26  C   UNL     1      -6.999   5.844  71.982  1.00  0.00    -0.078 A  
HETATM   27  C   UNL     1      -7.675   8.039  72.367  1.00  0.00    -0.114 A  
ENDBRANCH   4  22
TORSDOF 1
ENDMDL
MODEL       82
REMARK 921   NORMALIZED FREE ENERGY PREDICTED BY IDOCK:   -3.32 KCAL/MOL
REMARK 922        TOTAL FREE ENERGY PREDICTED BY IDOCK:   -3.33 KCAL/MOL
REMARK 923 INTER-LIGAND FREE ENERGY PREDICTED BY IDOCK:   -3.51 KCAL/MOL
REMARK 924 INTRA-LIGAND FREE ENERGY PREDICTED BY IDOCK:    0.18 KCAL/MOL
REMARK 927      BINDING AFFINITY PREDICTED BY RF-SCORE:    0.00 PKD
ROOT
HETATM    1  C   UNL     1     -10.139   8.556  66.463  1.00  0.00    -0.328 C  
HETATM    2  C   UNL     1     -10.596   9.823  66.952  1.00  0.00    -0.243 C  
HETATM    3  C   UNL     1      -9.131   9.537  67.039  1.00  0.00    -0.154 C  
HETATM    4  C   UNL     1      -8.499   8.362  66.174  1.00  0.00    -0.139 C  
HETATM    5  C   UNL     1      -7.292   6.116  69.753  1.00  0.00    -0.079 C  
HETATM    6  C   UNL     1      -8.785   9.465  65.466  1.00  0.00    -0.190 C  
HETATM    7  C   UNL     1      -9.249   9.834  64.084  1.00  0.00    -0.277 C  
HETATM    8  C   UNL     1      -7.804   7.512  70.144  1.00  0.00    -0.098 C  
HETATM    9  C   UNL     1      -7.147   9.915  66.216  1.00  0.00    -0.101 C  
HETATM   10  C   UNL     1      -6.723   8.235  70.988  1.00  0.00    -0.045 C  
HETATM   11  C   UNL     1      -6.848   9.063  67.854  1.00  0.00    -0.070 C  
HETATM   12  C   UNL     1      -8.172   8.364  68.852  1.00  0.00    -0.115 C  
HETATM   13  H   UNL     1      -6.990   8.824  74.414  1.00  0.00     0.000 HD 
HETATM   14  C   UNL     1      -9.603   7.646  68.064  1.00  0.00    -0.159 C  
HETATM   15  C   UNL     1      -6.419   7.539  72.324  1.00  0.00    -0.050 C  
HETATM   16  C   UNL     1     -10.741   7.609  69.095  1.00  0.00    -0.153 C  
HETATM   17  O   UNL     1      -7.802   8.610  73.970  1.00  0.00    -0.404 OA 
HETATM   18  C   UNL     1     -10.322   7.357  70.509  1.00  0.00    -0.220 C  
HETATM   19  C   UNL     1      -9.070   7.321  71.008  1.00  0.00    -0.153 C  
HETATM   20  C   UNL     1      -8.955   7.056  72.502  1.00  0.00    -0.144 C  
HETATM   21  C   UNL     1      -7.643   7.401  73.219  1.00  0.00    -0.092 C  
ENDROOT
BRANCH   4  22
HETATM   22  C   UNL     1      -7.526   7.390  65.474  1.00  0.00    -0.088 A  
HETATM   23  N   UNL     1      -6.078   6.908  63.499  1.00  0.00    -0.042 NA 
HETATM   24  C   UNL     1      -5.548   5.869  64.148  1.00  0.00    -0.017 A  
HETATM   25  C   UNL     1      -5.982   5.488  65.402  1.00  0.00    -0.025 A  
HETATM   26  C   UNL     1      -6.997   6.231  66.041  1.00  0.00    -0.065 A  
HETATM   27  C   UNL     1      -7.034   7.614  64.168  1.00  0.00    -0.061 A  
ENDBRANCH   4  22
TORSDOF 1
ENDMDL
MODEL       83
REMARK 921   NORMALIZED FREE ENERGY PREDICTED BY IDOCK:   -3.27 KCAL/MOL
REMARK 922        TOTAL FREE ENERGY PREDICTED BY IDOCK:   -3.28 KCAL/MOL
REMARK 923 INTER-LIGAND FREE ENERGY PREDICTED BY IDOCK:   -3.46 KCAL/MOL
REMARK 924 INTRA-LIGAND FREE ENERGY PREDICTED BY IDOCK:    0.18 KCAL/MOL
REMARK 927      BINDING AFFINITY PREDICTED BY RF-SCORE:    0.00 PKD
ROOT
HETATM    1  C   UNL     1      -7.656   9.928  64.724  1.00  0.00    -0.139 C  
HETATM    2  C   UNL     1      -7.918   8.532  64.530  1.00  0.00    -0.145 C  
HETATM    3  C   UNL     1      -8.713   9.244  65.577  1.00  0.00    -0.204 C  
HETATM    4  C   UNL     1      -8.777  10.833  65.581  1.00  0.00    -0.198 C  
HETATM    5  C   UNL     1      -6.805  11.095  69.499  1.00  0.00    -0.127 C  
HETATM    6  C   UNL     1      -9.536  10.261  64.634  1.00  0.00    -0.351 C  
HETATM    7  C   UNL     1      -9.996  10.541  63.230  1.00  0.00    -0.231 C  
HETATM    8  C   UNL     1      -7.146   9.633  69.168  1.00  0.00    -0.062 C  
HETATM    9  C   UNL     1     -10.631  10.123  66.127  1.00  0.00    -0.099 C  
HETATM   10  C   UNL     1      -7.989   9.032  70.322  1.00  0.00    -0.124 C  
HETATM   11  C   UNL     1      -9.662  10.015  67.723  1.00  0.00    -0.174 C  
HETATM   12  C   UNL     1      -7.931   9.532  67.788  1.00  0.00    -0.099 C  
HETATM   13  H   UNL     1      -6.793   6.667  72.588  1.00  0.00     0.000 HD 
HETATM   14  C   UNL     1      -6.829   9.971  66.454  1.00  0.00    -0.093 C  
HETATM   15  C   UNL     1      -7.239   8.966  71.662  1.00  0.00    -0.057 C  
HETATM   16  C   UNL     1      -5.613   9.033  66.518  1.00  0.00    -0.049 C  
HETATM   17  O   UNL     1      -6.284   6.767  71.792  1.00  0.00    -0.038 OA 
HETATM   18  C   UNL     1      -5.181   8.631  67.892  1.00  0.00    -0.035 C  
HETATM   19  C   UNL     1      -5.816   8.854  69.060  1.00  0.00    -0.040 C  
HETATM   20  C   UNL     1      -5.137   8.307  70.306  1.00  0.00    -0.023 C  
HETATM   21  C   UNL     1      -5.958   8.147  71.591  1.00  0.00    -0.037 C  
ENDROOT
BRANCH   4  22
HETATM   22  C   UNL     1      -9.133  12.305  65.879  1.00  0.00     0.044 A  
HETATM   23  N   UNL     1     -10.606  14.260  65.398  1.00  0.00    -0.331 NA 
HETATM   24  C   UNL     1     -10.094  14.899  66.453  1.00  0.00    -0.284 A  
HETATM   25  C   UNL     1      -9.079  14.358  67.217  1.00  0.00    -0.221 A  
HETATM   26  C   UNL     1      -8.579  13.077  66.900  1.00  0.00    -0.126 A  
HETATM   27  C   UNL     1     -10.113  13.014  65.149  1.00  0.00    -0.221 A  
ENDBRANCH   4  22
TORSDOF 1
ENDMDL
MODEL       84
REMARK 921   NORMALIZED FREE ENERGY PREDICTED BY IDOCK:   -3.18 KCAL/MOL
REMARK 922        TOTAL FREE ENERGY PREDICTED BY IDOCK:   -3.19 KCAL/MOL
REMARK 923 INTER-LIGAND FREE ENERGY PREDICTED BY IDOCK:   -3.94 KCAL/MOL
REMARK 924 INTRA-LIGAND FREE ENERGY PREDICTED BY IDOCK:    0.75 KCAL/MOL
REMARK 927      BINDING AFFINITY PREDICTED BY RF-SCORE:    0.00 PKD
ROOT
HETATM    1  C   UNL     1      -7.652  11.048  68.710  1.00  0.00    -0.127 C  
HETATM    2  C   UNL     1      -6.693  10.928  69.768  1.00  0.00    -0.144 C  
HETATM    3  C   UNL     1      -6.730   9.840  68.744  1.00  0.00    -0.050 C  
HETATM    4  C   UNL     1      -7.459  10.084  67.351  1.00  0.00    -0.091 C  
HETATM    5  C   UNL     1     -10.432   6.946  68.138  1.00  0.00    -0.243 C  
HETATM    6  C   UNL     1      -6.261  10.681  67.450  1.00  0.00    -0.057 C  
HETATM    7  C   UNL     1      -5.580  11.935  66.977  1.00  0.00    -0.126 C  
HETATM    8  C   UNL     1      -9.333   6.923  69.212  1.00  0.00    -0.144 C  
HETATM    9  C   UNL     1      -5.779   8.947  66.996  1.00  0.00    -0.045 C  
HETATM   10  C   UNL     1      -8.720   5.500  69.285  1.00  0.00    -0.107 C  
HETATM   11  C   UNL     1      -7.019   7.678  67.585  1.00  0.00    -0.081 C  
HETATM   12  C   UNL     1      -8.208   8.003  68.896  1.00  0.00    -0.125 C  
HETATM   13  H   UNL     1      -9.250   3.280  71.920  1.00  0.00     0.000 HD 
HETATM   14  C   UNL     1      -8.894   9.638  69.096  1.00  0.00    -0.157 C  
HETATM   15  C   UNL     1      -9.722   4.422  69.726  1.00  0.00    -0.291 C  
HETATM   16  C   UNL     1      -9.440   9.750  70.528  1.00  0.00    -0.140 C  
HETATM   17  O   UNL     1      -9.459   4.189  72.102  1.00  0.00    -0.122 OA 
HETATM   18  C   UNL     1     -10.030   8.496  71.092  1.00  0.00    -0.265 C  
HETATM   19  C   UNL     1      -9.995   7.255  70.567  1.00  0.00    -0.191 C  
HETATM   20  C   UNL     1     -10.674   6.165  71.384  1.00  0.00    -0.308 C  
HETATM   21  C   UNL     1     -10.337   4.698  71.091  1.00  0.00    -0.072 C  
ENDROOT
BRANCH   4  22
HETATM   22  C   UNL     1      -7.987   9.952  65.907  1.00  0.00    -0.115 A  
HETATM   23  N   UNL     1      -9.603  10.727  64.171  1.00  0.00    -0.257 NA 
HETATM   24  C   UNL     1      -8.932  10.036  63.246  1.00  0.00    -0.258 A  
HETATM   25  C   UNL     1      -7.847   9.245  63.565  1.00  0.00    -0.129 A  
HETATM   26  C   UNL     1      -7.404   9.180  64.903  1.00  0.00    -0.101 A  
HETATM   27  C   UNL     1      -9.122  10.656  65.444  1.00  0.00    -0.189 A  
ENDBRANCH   4  22
TORSDOF 1
ENDMDL
MODEL       85
REMARK 921   NORMALIZED FREE ENERGY PREDICTED BY IDOCK:   -3.04 KCAL/MOL
REMARK 922        TOTAL FREE ENERGY PREDICTED BY IDOCK:   -3.04 KCAL/MOL
REMARK 923 INTER-LIGAND FREE ENERGY PREDICTED BY IDOCK:   -3.23 KCAL/MOL
REMARK 924 INTRA-LIGAND FREE ENERGY PREDICTED BY IDOCK:    0.19 KCAL/MOL
REMARK 927      BINDING AFFINITY PREDICTED BY RF-SCORE:    0.00 PKD
ROOT
HETATM    1  C   UNL     1      -7.627  10.615  68.363  1.00  0.00    -0.100 C  
HETATM    2  C   UNL     1      -7.084  11.177  69.564  1.00  0.00    -0.088 C  
HETATM    3  C   UNL     1      -6.684   9.780  69.213  1.00  0.00    -0.053 C  
HETATM    4  C   UNL     1      -6.907   9.237  67.734  1.00  0.00    -0.079 C  
HETATM    5  C   UNL     1      -9.722   6.146  69.085  1.00  0.00    -0.164 C  
HETATM    6  C   UNL     1      -5.865  10.075  67.856  1.00  0.00    -0.038 C  
HETATM    7  C   UNL     1      -5.160  11.128  67.047  1.00  0.00    -0.061 C  
HETATM    8  C   UNL     1      -9.060   6.831  70.291  1.00  0.00    -0.153 C  
HETATM    9  C   UNL     1      -5.126   8.471  68.428  1.00  0.00    -0.033 C  
HETATM   10  C   UNL     1      -8.404   5.754  71.193  1.00  0.00    -0.123 C  
HETATM   11  C   UNL     1      -6.393   7.327  69.192  1.00  0.00    -0.036 C  
HETATM   12  C   UNL     1      -7.981   7.899  69.816  1.00  0.00    -0.114 C  
HETATM   13  H   UNL     1      -9.637   4.806  74.314  1.00  0.00     0.000 HD 
HETATM   14  C   UNL     1      -8.816   9.262  69.022  1.00  0.00    -0.136 C  
HETATM   15  C   UNL     1      -9.412   4.768  71.806  1.00  0.00    -0.201 C  
HETATM   16  C   UNL     1      -9.827   9.843  70.022  1.00  0.00    -0.291 C  
HETATM   17  O   UNL     1      -9.964   5.632  73.978  1.00  0.00    -0.176 OA 
HETATM   18  C   UNL     1     -10.478   8.850  70.932  1.00  0.00    -0.299 C  
HETATM   19  C   UNL     1     -10.171   7.547  71.091  1.00  0.00    -0.199 C  
HETATM   20  C   UNL     1     -11.004   6.784  72.110  1.00  0.00    -0.270 C  
HETATM   21  C   UNL     1     -10.477   5.450  72.653  1.00  0.00    -0.217 C  
ENDROOT
BRANCH   4  22
HETATM   22  C   UNL     1      -6.895   8.389  66.445  1.00  0.00    -0.070 A  
HETATM   23  N   UNL     1      -5.776   7.851  64.282  1.00  0.00    -0.048 NA 
HETATM   24  C   UNL     1      -6.559   6.777  64.149  1.00  0.00    -0.044 A  
HETATM   25  C   UNL     1      -7.554   6.478  65.059  1.00  0.00    -0.092 A  
HETATM   26  C   UNL     1      -7.739   7.310  66.184  1.00  0.00    -0.101 A  
HETATM   27  C   UNL     1      -5.973   8.608  65.398  1.00  0.00    -0.048 A  
ENDBRANCH   4  22
TORSDOF 1
ENDMDL
MODEL       86
REMARK 921   NORMALIZED FREE ENERGY PREDICTED BY IDOCK:   -2.98 KCAL/MOL
REMARK 922        TOTAL FREE ENERGY PREDICTED BY IDOCK:   -2.98 KCAL/MOL
REMARK 923 INTER-LIGAND FREE ENERGY PREDICTED BY IDOCK:   -3.18 KCAL/MOL
REMARK 924 INTRA-LIGAND FREE ENERGY PREDICTED BY IDOCK:    0.20 KCAL/MOL
REMARK 927      BINDING AFFINITY PREDICTED BY RF-SCORE:    0.00 PKD
ROOT
HETATM    1  C   UNL     1      -9.140   3.521  66.489  1.00  0.00    -0.172 C  
HETATM    2  C   UNL     1      -8.926   4.057  65.178  1.00  0.00    -0.133 C  
HETATM    3  C   UNL     1      -7.950   4.436  66.245  1.00  0.00    -0.099 C  
HETATM    4  C   UNL     1      -7.876   3.589  67.590  1.00  0.00    -0.077 C  
HETATM    5  C   UNL     1      -9.106   7.020  70.044  1.00  0.00    -0.145 C  
HETATM    6  C   UNL     1      -7.305   2.987  66.536  1.00  0.00    -0.074 C  
HETATM    7  C   UNL     1      -7.105   1.597  65.999  1.00  0.00    -0.050 C  
HETATM    8  C   UNL     1      -8.839   7.465  68.598  1.00  0.00    -0.126 C  
HETATM    9  C   UNL     1      -5.959   4.142  67.084  1.00  0.00    -0.024 C  
HETATM   10  C   UNL     1      -7.806   8.621  68.602  1.00  0.00    -0.107 C  
HETATM   11  C   UNL     1      -6.624   5.678  67.918  1.00  0.00    -0.053 C  
HETATM   12  C   UNL     1      -8.318   6.248  67.716  1.00  0.00    -0.117 C  
HETATM   13  H   UNL     1      -8.587  11.943  67.891  1.00  0.00     0.000 HD 
HETATM   14  C   UNL     1      -9.640   5.067  67.508  1.00  0.00    -0.169 C  
HETATM   15  C   UNL     1      -8.302   9.887  69.317  1.00  0.00    -0.151 C  
HETATM   16  C   UNL     1     -10.830   5.799  66.867  1.00  0.00    -0.337 C  
HETATM   17  O   UNL     1      -9.231  11.302  67.613  1.00  0.00    -0.153 OA 
HETATM   18  C   UNL     1     -11.009   7.224  67.282  1.00  0.00    -0.284 C  
HETATM   19  C   UNL     1     -10.172   7.986  68.014  1.00  0.00    -0.260 C  
HETATM   20  C   UNL     1     -10.618   9.419  68.265  1.00  0.00    -0.256 C  
HETATM   21  C   UNL     1      -9.579  10.454  68.713  1.00  0.00    -0.177 C  
ENDROOT
BRANCH   4  22
HETATM   22  C   UNL     1      -7.464   3.006  68.958  1.00  0.00    -0.048 A  
HETATM   23  N   UNL     1      -5.822   1.665  70.274  1.00  0.00    -0.017 NA 
HETATM   24  C   UNL     1      -6.411   2.062  71.404  1.00  0.00    -0.018 A  
HETATM   25  C   UNL     1      -7.540   2.856  71.403  1.00  0.00    -0.040 A  
HETATM   26  C   UNL     1      -8.081   3.293  70.175  1.00  0.00    -0.058 A  
HETATM   27  C   UNL     1      -6.362   2.135  69.114  1.00  0.00    -0.029 A  
ENDBRANCH   4  22
TORSDOF 1
ENDMDL
MODEL       87
REMARK 921   NORMALIZED FREE ENERGY PREDICTED BY IDOCK:   -2.89 KCAL/MOL
REMARK 922        TOTAL FREE ENERGY PREDICTED BY IDOCK:   -2.88 KCAL/MOL
REMARK 923 INTER-LIGAND FREE ENERGY PREDICTED BY IDOCK:   -3.09 KCAL/MOL
REMARK 924 INTRA-LIGAND FREE ENERGY PREDICTED BY IDOCK:    0.22 KCAL/MOL
REMARK 927      BINDING AFFINITY PREDICTED BY RF-SCORE:    0.00 PKD
ROOT
HETATM    1  C   UNL     1      -6.460   6.349  68.580  1.00  0.00    -0.049 C  
HETATM    2  C   UNL     1      -7.158   5.174  68.150  1.00  0.00    -0.062 C  
HETATM    3  C   UNL     1      -7.763   6.499  67.811  1.00  0.00    -0.107 C  
HETATM    4  C   UNL     1      -6.878   7.819  67.888  1.00  0.00    -0.068 C  
HETATM    5  C   UNL     1      -9.382   9.541  71.062  1.00  0.00    -0.071 C  
HETATM    6  C   UNL     1      -6.626   7.058  66.813  1.00  0.00    -0.055 C  
HETATM    7  C   UNL     1      -5.460   6.683  65.940  1.00  0.00    -0.018 C  
HETATM    8  C   UNL     1     -10.028   8.262  70.506  1.00  0.00    -0.198 C  
HETATM    9  C   UNL     1      -8.134   7.992  66.266  1.00  0.00    -0.112 C  
HETATM   10  C   UNL     1     -11.474   8.579  70.044  1.00  0.00     0.079 C  
HETATM   11  C   UNL     1      -9.238   8.476  67.696  1.00  0.00    -0.147 C  
HETATM   12  C   UNL     1      -9.171   7.671  69.303  1.00  0.00    -0.145 C  
HETATM   13  H   UNL     1     -14.337   7.501  71.715  1.00  0.00     0.000 HD 
HETATM   14  C   UNL     1      -7.616   7.063  69.934  1.00  0.00    -0.102 C  
HETATM   15  C   UNL     1     -12.401   9.021  71.187  1.00  0.00    -0.306 C  
HETATM   16  C   UNL     1      -7.924   6.016  71.017  1.00  0.00    -0.116 C  
HETATM   17  O   UNL     1     -13.536   7.043  71.938  1.00  0.00    -0.301 OA 
HETATM   18  C   UNL     1      -9.141   6.281  71.843  1.00  0.00    -0.143 C  
HETATM   19  C   UNL     1     -10.082   7.228  71.652  1.00  0.00    -0.196 C  
HETATM   20  C   UNL     1     -11.225   7.246  72.657  1.00  0.00    -0.355 C  
HETATM   21  C   UNL     1     -12.520   7.986  72.297  1.00  0.00    -0.261 C  
ENDROOT
BRANCH   4  22
HETATM   22  C   UNL     1      -6.359   9.268  67.780  1.00  0.00    -0.059 A  
HETATM   23  N   UNL     1      -5.541  11.311  68.955  1.00  0.00    -0.040 NA 
HETATM   24  C   UNL     1      -5.166  11.829  67.783  1.00  0.00    -0.057 A  
HETATM   25  C   UNL     1      -5.402  11.183  66.586  1.00  0.00    -0.106 A  
HETATM   26  C   UNL     1      -6.032   9.920  66.592  1.00  0.00    -0.055 A  
HETATM   27  C   UNL     1      -6.119  10.077  68.913  1.00  0.00    -0.040 A  
ENDBRANCH   4  22
TORSDOF 1
ENDMDL
MODEL       88
REMARK 921   NORMALIZED FREE ENERGY PREDICTED BY IDOCK:   -2.85 KCAL/MOL
REMARK 922        TOTAL FREE ENERGY PREDICTED BY IDOCK:   -2.84 KCAL/MOL
REMARK 923 INTER-LIGAND FREE ENERGY PREDICTED BY IDOCK:   -3.02 KCAL/MOL
REMARK 924 INTRA-LIGAND FREE ENERGY PREDICTED BY IDOCK:    0.18 KCAL/MOL
REMARK 927      BINDING AFFINITY PREDICTED BY RF-SCORE:    0.00 PKD
ROOT
HETATM    1  C   UNL     1      -8.981   7.820  64.910  1.00  0.00     0.439 C  
HETATM    2  C   UNL     1      -8.215   9.025  65.034  1.00  0.00    -0.154 C  
HETATM    3  C   UNL     1      -7.621   7.770  65.589  1.00  0.00    -0.085 C  
HETATM    4  C   UNL     1      -8.199   6.355  65.147  1.00  0.00    -0.134 C  
HETATM    5  C   UNL     1      -9.483   5.386  69.236  1.00  0.00    -0.179 C  
HETATM    6  C   UNL     1      -7.430   6.943  64.218  1.00  0.00    -0.101 C  
HETATM    7  C   UNL     1      -7.343   7.044  62.720  1.00  0.00    -0.077 C  
HETATM    8  C   UNL     1      -8.641   6.671  69.230  1.00  0.00    -0.131 C  
HETATM    9  C   UNL     1      -6.156   6.176  65.329  1.00  0.00    -0.030 C  
HETATM   10  C   UNL     1      -7.461   6.513  70.224  1.00  0.00    -0.094 C  
HETATM   11  C   UNL     1      -6.743   6.023  67.098  1.00  0.00    -0.061 C  
HETATM   12  C   UNL     1      -8.104   6.991  67.767  1.00  0.00    -0.114 C  
HETATM   13  H   UNL     1      -7.247   8.174  73.281  1.00  0.00     0.000 HD 
HETATM   14  C   UNL     1      -9.480   7.440  66.723  1.00  0.00    -0.226 C  
HETATM   15  C   UNL     1      -7.907   6.342  71.684  1.00  0.00    -0.101 C  
HETATM   16  C   UNL     1     -10.192   8.638  67.370  1.00  0.00    -0.329 C  
HETATM   17  O   UNL     1      -7.868   8.536  72.661  1.00  0.00    -0.289 OA 
HETATM   18  C   UNL     1     -10.211   8.646  68.866  1.00  0.00    -0.221 C  
HETATM   19  C   UNL     1      -9.547   7.828  69.707  1.00  0.00    -0.167 C  
HETATM   20  C   UNL     1      -9.750   8.089  71.192  1.00  0.00    -0.190 C  
HETATM   21  C   UNL     1      -8.746   7.505  72.194  1.00  0.00    -0.114 C  
ENDROOT
BRANCH   4  22
HETATM   22  C   UNL     1      -8.422   4.844  64.927  1.00  0.00    -0.144 A  
HETATM   23  N   UNL     1      -7.928   2.814  63.563  1.00  0.00    -0.072 NA 
HETATM   24  C   UNL     1      -8.503   2.053  64.497  1.00  0.00    -0.088 A  
HETATM   25  C   UNL     1      -9.105   2.594  65.616  1.00  0.00    -0.121 A  
HETATM   26  C   UNL     1      -9.092   3.992  65.804  1.00  0.00    -0.142 A  
HETATM   27  C   UNL     1      -7.914   4.156  63.802  1.00  0.00    -0.089 A  
ENDBRANCH   4  22
TORSDOF 1
ENDMDL
MODEL       89
REMARK 921   NORMALIZED FREE ENERGY PREDICTED BY IDOCK:   -2.84 KCAL/MOL
REMARK 922        TOTAL FREE ENERGY PREDICTED BY IDOCK:   -2.83 KCAL/MOL
REMARK 923 INTER-LIGAND FREE ENERGY PREDICTED BY IDOCK:   -3.00 KCAL/MOL
REMARK 924 INTRA-LIGAND FREE ENERGY PREDICTED BY IDOCK:    0.18 KCAL/MOL
REMARK 927      BINDING AFFINITY PREDICTED BY RF-SCORE:    0.00 PKD
ROOT
HETATM    1  C   UNL     1      -9.795   6.187  71.969  1.00  0.00    -0.174 C  
HETATM    2  C   UNL     1     -10.395   4.895  71.808  1.00  0.00    -0.249 C  
HETATM    3  C   UNL     1      -8.924   5.008  71.564  1.00  0.00    -0.157 C  
HETATM    4  C   UNL     1      -8.125   6.276  72.099  1.00  0.00    -0.109 C  
HETATM    5  C   UNL     1      -7.049   7.552  68.034  1.00  0.00    -0.084 C  
HETATM    6  C   UNL     1      -8.440   5.388  73.054  1.00  0.00    -0.118 C  
HETATM    7  C   UNL     1      -8.813   5.379  74.511  1.00  0.00    -0.116 C  
HETATM    8  C   UNL     1      -7.706   6.162  68.002  1.00  0.00    -0.102 C  
HETATM    9  C   UNL     1      -6.915   4.625  72.321  1.00  0.00    -0.061 C  
HETATM   10  C   UNL     1      -6.764   5.169  67.275  1.00  0.00    -0.055 C  
HETATM   11  C   UNL     1      -6.688   5.063  70.517  1.00  0.00    -0.040 C  
HETATM   12  C   UNL     1      -8.030   5.654  69.475  1.00  0.00    -0.092 C  
HETATM   13  H   UNL     1      -7.371   3.873  64.096  1.00  0.00     0.000 HD 
HETATM   14  C   UNL     1      -9.324   6.667  70.172  1.00  0.00    -0.159 C  
HETATM   15  C   UNL     1      -6.520   5.521  65.800  1.00  0.00    -0.040 C  
HETATM   16  C   UNL     1     -10.540   6.589  69.235  1.00  0.00    -0.292 C  
HETATM   17  O   UNL     1      -8.122   4.259  64.532  1.00  0.00    -0.091 OA 
HETATM   18  C   UNL     1     -10.225   6.483  67.777  1.00  0.00    -0.201 C  
HETATM   19  C   UNL     1      -9.021   6.284  67.202  1.00  0.00    -0.111 C  
HETATM   20  C   UNL     1      -9.012   6.203  65.683  1.00  0.00    -0.056 C  
HETATM   21  C   UNL     1      -7.800   5.581  64.978  1.00  0.00    -0.099 C  
ENDROOT
BRANCH   4  22
HETATM   22  C   UNL     1      -7.019   7.276  72.496  1.00  0.00    -0.067 A  
HETATM   23  N   UNL     1      -5.888   9.456  72.059  1.00  0.00    -0.222 NA 
HETATM   24  C   UNL     1      -5.227   9.339  73.213  1.00  0.00    -0.100 A  
HETATM   25  C   UNL     1      -5.348   8.223  74.018  1.00  0.00    -0.068 A  
HETATM   26  C   UNL     1      -6.218   7.181  73.633  1.00  0.00    -0.065 A  
HETATM   27  C   UNL     1      -6.738   8.438  71.743  1.00  0.00    -0.076 A  
ENDBRANCH   4  22
TORSDOF 1
ENDMDL
MODEL       90
REMARK 921   NORMALIZED FREE ENERGY PREDICTED BY IDOCK:   -2.70 KCAL/MOL
REMARK 922        TOTAL FREE ENERGY PREDICTED BY IDOCK:   -2.68 KCAL/MOL
REMARK 923 INTER-LIGAND FREE ENERGY PREDICTED BY IDOCK:   -2.88 KCAL/MOL
REMARK 924 INTRA-LIGAND FREE ENERGY PREDICTED BY IDOCK:    0.20 KCAL/MOL
REMARK 927      BINDING AFFINITY PREDICTED BY RF-SCORE:    0.00 PKD
ROOT
HETATM    1  C   UNL     1      -6.169  16.845  67.879  1.00  0.00    -0.145 C  
HETATM    2  C   UNL     1      -5.389  16.170  66.884  1.00  0.00     0.288 C  
HETATM    3  C   UNL     1      -6.764  16.612  66.499  1.00  0.00    -0.086 C  
HETATM    4  C   UNL     1      -7.526  17.695  67.381  1.00  0.00    -0.209 C  
HETATM    5  C   UNL     1     -10.712  14.865  68.451  1.00  0.00    -0.245 C  
HETATM    6  C   UNL     1      -6.564  18.208  66.599  1.00  0.00    -0.226 C  
HETATM    7  C   UNL     1      -5.556  19.324  66.631  1.00  0.00    -0.163 C  
HETATM    8  C   UNL     1      -9.796  14.258  67.377  1.00  0.00    -0.235 C  
HETATM    9  C   UNL     1      -7.976  18.057  65.404  1.00  0.00     1.052 C  
HETATM   10  C   UNL     1     -10.655  13.811  66.166  1.00  0.00    -0.291 C  
HETATM   11  C   UNL     1      -9.145  16.665  65.846  1.00  0.00    -0.155 C  
HETATM   12  C   UNL     1      -8.684  15.301  66.924  1.00  0.00    -0.288 C  
HETATM   13  H   UNL     1     -11.305  10.484  65.352  1.00  0.00     0.000 HD 
HETATM   14  C   UNL     1      -7.550  15.573  68.275  1.00  0.00    -0.115 C  
HETATM   15  C   UNL     1     -11.658  12.697  66.501  1.00  0.00    -0.441 C  
HETATM   16  C   UNL     1      -6.960  14.212  68.677  1.00  0.00    -0.107 C  
HETATM   17  O   UNL     1     -10.576  10.627  65.945  1.00  0.00    -0.199 OA 
HETATM   18  C   UNL     1      -7.888  13.046  68.557  1.00  0.00    -0.105 C  
HETATM   19  C   UNL     1      -9.112  13.016  67.992  1.00  0.00    -0.210 C  
HETATM   20  C   UNL     1      -9.821  11.670  68.004  1.00  0.00    -0.193 C  
HETATM   21  C   UNL     1     -10.997  11.439  67.047  1.00  0.00    -0.292 C  
ENDROOT
BRANCH   4  22
HETATM   22  C   UNL     1      -8.536  18.733  67.914  1.00  0.00    -0.316 A  
HETATM   23  N   UNL     1      -9.535  21.009  67.701  1.00  0.00    -0.174 NA 
HETATM   24  C   UNL     1     -10.482  20.670  68.579  1.00  0.00     0.350 A  
HETATM   25  C   UNL     1     -10.494  19.440  69.207  1.00  0.00     0.245 A  
HETATM   26  C   UNL     1      -9.496  18.492  68.896  1.00  0.00    -0.277 A  
HETATM   27  C   UNL     1      -8.610  20.051  67.411  1.00  0.00    -0.341 A  
ENDBRANCH   4  22
TORSDOF 1
ENDMDL
MODEL       91
REMARK 921   NORMALIZED FREE ENERGY PREDICTED BY IDOCK:   -2.55 KCAL/MOL
REMARK 922        TOTAL FREE ENERGY PREDICTED BY IDOCK:   -2.52 KCAL/MOL
REMARK 923 INTER-LIGAND FREE ENERGY PREDICTED BY IDOCK:   -2.72 KCAL/MOL
REMARK 924 INTRA-LIGAND FREE ENERGY PREDICTED BY IDOCK:    0.20 KCAL/MOL
REMARK 927      BINDING AFFINITY PREDICTED BY RF-SCORE:    0.00 PKD
ROOT
HETATM    1  C   UNL     1      -8.046  15.308  68.731  1.00  0.00    -0.165 C  
HETATM    2  C   UNL     1      -7.389  15.901  67.604  1.00  0.00    -0.180 C  
HETATM    3  C   UNL     1      -8.876  16.026  67.680  1.00  0.00    -0.190 C  
HETATM    4  C   UNL     1      -9.626  15.763  69.058  1.00  0.00    -0.243 C  
HETATM    5  C   UNL     1     -11.828  12.329  67.425  1.00  0.00    -0.327 C  
HETATM    6  C   UNL     1      -8.994  16.945  69.000  1.00  0.00    -0.167 C  
HETATM    7  C   UNL     1      -8.260  17.882  69.919  1.00  0.00     1.618 C  
HETATM    8  C   UNL     1     -11.074  13.063  66.305  1.00  0.00    -0.314 C  
HETATM    9  C   UNL     1     -10.578  17.322  68.107  1.00  0.00    -0.386 C  
HETATM   10  C   UNL     1     -12.073  13.449  65.184  1.00  0.00    -0.442 C  
HETATM   11  C   UNL     1     -11.302  15.819  67.261  1.00  0.00    -0.059 C  
HETATM   12  C   UNL     1     -10.335  14.354  66.869  1.00  0.00    -0.265 C  
HETATM   13  H   UNL     1     -12.186  11.919  62.054  1.00  0.00     0.000 HD 
HETATM   14  C   UNL     1      -9.006  13.844  67.946  1.00  0.00    -0.191 C  
HETATM   15  C   UNL     1     -12.721  12.239  64.494  1.00  0.00    -0.336 C  
HETATM   16  C   UNL     1      -8.071  12.929  67.141  1.00  0.00    -0.122 C  
HETATM   17  O   UNL     1     -11.389  11.780  62.550  1.00  0.00     0.721 OA 
HETATM   18  C   UNL     1      -8.740  12.053  66.129  1.00  0.00     0.042 C  
HETATM   19  C   UNL     1     -10.026  12.085  65.727  1.00  0.00    -0.266 C  
HETATM   20  C   UNL     1     -10.419  11.073  64.661  1.00  0.00    -0.398 C  
HETATM   21  C   UNL     1     -11.707  11.297  63.860  1.00  0.00     0.247 C  
ENDROOT
BRANCH   4  22
HETATM   22  C   UNL     1     -10.682  15.659  70.179  1.00  0.00    -0.355 A  
HETATM   23  N   UNL     1     -12.325  14.238  71.406  1.00  0.00    -0.347 NA 
HETATM   24  C   UNL     1     -12.457  15.195  72.327  1.00  0.00    -0.353 A  
HETATM   25  C   UNL     1     -11.808  16.409  72.222  1.00  0.00    -0.531 A  
HETATM   26  C   UNL     1     -10.952  16.646  71.126  1.00  0.00     0.492 A  
HETATM   27  C   UNL     1     -11.466  14.501  70.381  1.00  0.00    -0.203 A  
ENDBRANCH   4  22
TORSDOF 1
ENDMDL
MODEL       92
REMARK 921   NORMALIZED FREE ENERGY PREDICTED BY IDOCK:   -2.33 KCAL/MOL
REMARK 922        TOTAL FREE ENERGY PREDICTED BY IDOCK:   -2.28 KCAL/MOL
REMARK 923 INTER-LIGAND FREE ENERGY PREDICTED BY IDOCK:   -2.47 KCAL/MOL
REMARK 924 INTRA-LIGAND FREE ENERGY PREDICTED BY IDOCK:    0.18 KCAL/MOL
REMARK 927      BINDING AFFINITY PREDICTED BY RF-SCORE:    0.00 PKD
ROOT
HETATM    1  C   UNL     1      -7.805   8.766  71.163  1.00  0.00    -0.161 C  
HETATM    2  C   UNL     1      -8.965   9.585  70.974  1.00  0.00     0.051 C  
HETATM    3  C   UNL     1      -8.992   8.208  70.393  1.00  0.00    -0.146 C  
HETATM    4  C   UNL     1      -7.945   7.117  70.888  1.00  0.00    -0.096 C  
HETATM    5  C   UNL     1      -6.116   6.786  66.906  1.00  0.00    -0.036 C  
HETATM    6  C   UNL     1      -8.941   7.348  71.756  1.00  0.00    -0.135 C  
HETATM    7  C   UNL     1      -9.160   7.382  73.244  1.00  0.00    -0.220 C  
HETATM    8  C   UNL     1      -7.387   7.648  66.841  1.00  0.00    -0.090 C  
HETATM    9  C   UNL     1      -9.744   6.169  70.569  1.00  0.00    -0.203 C  
HETATM   10  C   UNL     1      -8.346   7.065  65.771  1.00  0.00    -0.143 C  
HETATM   11  C   UNL     1      -9.027   6.283  68.845  1.00  0.00    -0.126 C  
HETATM   12  C   UNL     1      -8.103   7.712  68.261  1.00  0.00    -0.124 C  
HETATM   13  H   UNL     1      -8.979   8.567  62.690  1.00  0.00     0.000 HD 
HETATM   14  C   UNL     1      -7.078   8.638  69.392  1.00  0.00    -0.053 C  
HETATM   15  C   UNL     1      -7.773   7.103  64.346  1.00  0.00    -0.117 C  
HETATM   16  C   UNL     1      -6.841  10.029  68.782  1.00  0.00    -0.057 C  
HETATM   17  O   UNL     1      -8.587   9.129  63.347  1.00  0.00    -0.201 OA 
HETATM   18  C   UNL     1      -6.727  10.068  67.292  1.00  0.00    -0.074 C  
HETATM   19  C   UNL     1      -6.967   9.072  66.415  1.00  0.00    -0.080 C  
HETATM   20  C   UNL     1      -6.781   9.416  64.945  1.00  0.00    -0.085 C  
HETATM   21  C   UNL     1      -7.413   8.508  63.883  1.00  0.00    -0.118 C  
ENDROOT
BRANCH   4  22
HETATM   22  C   UNL     1      -7.172   5.804  71.138  1.00  0.00    -0.074 A  
HETATM   23  N   UNL     1      -7.083   3.594  72.292  1.00  0.00    -0.045 NA 
HETATM   24  C   UNL     1      -6.041   3.246  71.534  1.00  0.00    -0.014 A  
HETATM   25  C   UNL     1      -5.473   4.115  70.623  1.00  0.00    -0.012 A  
HETATM   26  C   UNL     1      -6.022   5.405  70.459  1.00  0.00    -0.021 A  
HETATM   27  C   UNL     1      -7.597   4.838  72.077  1.00  0.00    -0.090 A  
ENDBRANCH   4  22
TORSDOF 1
ENDMDL
MODEL       93
REMARK 921   NORMALIZED FREE ENERGY PREDICTED BY IDOCK:   -2.05 KCAL/MOL
REMARK 922        TOTAL FREE ENERGY PREDICTED BY IDOCK:   -2.00 KCAL/MOL
REMARK 923 INTER-LIGAND FREE ENERGY PREDICTED BY IDOCK:   -2.40 KCAL/MOL
REMARK 924 INTRA-LIGAND FREE ENERGY PREDICTED BY IDOCK:    0.40 KCAL/MOL
REMARK 927      BINDING AFFINITY PREDICTED BY RF-SCORE:    0.00 PKD
ROOT
HETATM    1  C   UNL     1      -9.645   7.032  66.586  1.00  0.00    -0.220 C  
HETATM    2  C   UNL     1      -9.082   7.336  65.303  1.00  0.00     0.378 C  
HETATM    3  C   UNL     1      -8.202   7.503  66.499  1.00  0.00    -0.123 C  
HETATM    4  C   UNL     1      -8.599   6.821  67.880  1.00  0.00    -0.122 C  
HETATM    5  C   UNL     1      -8.999  10.700  69.904  1.00  0.00     0.435 C  
HETATM    6  C   UNL     1      -8.107   5.965  66.972  1.00  0.00    -0.102 C  
HETATM    7  C   UNL     1      -8.290   4.533  66.551  1.00  0.00    -0.106 C  
HETATM    8  C   UNL     1      -8.397  10.888  68.502  1.00  0.00    -0.142 C  
HETATM    9  C   UNL     1      -6.554   6.697  67.679  1.00  0.00    -0.054 C  
HETATM   10  C   UNL     1      -7.058  11.660  68.621  1.00  0.00    -0.099 C  
HETATM   11  C   UNL     1      -6.802   8.442  68.305  1.00  0.00    -0.066 C  
HETATM   12  C   UNL     1      -8.175   9.483  67.788  1.00  0.00    -0.114 C  
HETATM   13  H   UNL     1      -6.617  14.968  67.612  1.00  0.00     0.000 HD 
HETATM   14  C   UNL     1      -9.762   8.755  67.421  1.00  0.00    -0.225 C  
HETATM   15  C   UNL     1      -7.218  13.085  69.173  1.00  0.00     0.084 C  
HETATM   16  C   UNL     1     -10.547   9.748  66.549  1.00  0.00    -0.150 C  
HETATM   17  O   UNL     1      -7.385  14.533  67.264  1.00  0.00    -0.189 OA 
HETATM   18  C   UNL     1     -10.315  11.194  66.851  1.00  0.00    -0.272 C  
HETATM   19  C   UNL     1      -9.392  11.731  67.674  1.00  0.00    -0.180 C  
HETATM   20  C   UNL     1      -9.384  13.250  67.769  1.00  0.00    -0.209 C  
HETATM   21  C   UNL     1      -8.143  13.954  68.332  1.00  0.00    -0.145 C  
ENDROOT
BRANCH   4  22
HETATM   22  C   UNL     1      -8.599   6.285  69.327  1.00  0.00    -0.124 A  
HETATM   23  N   UNL     1      -8.603   6.799  71.769  1.00  0.00    -0.121 NA 
HETATM   24  C   UNL     1      -8.844   5.513  72.034  1.00  0.00    -0.135 A  
HETATM   25  C   UNL     1      -8.911   4.559  71.039  1.00  0.00    -0.151 A  
HETATM   26  C   UNL     1      -8.750   4.948  69.692  1.00  0.00    -0.109 A  
HETATM   27  C   UNL     1      -8.484   7.132  70.452  1.00  0.00    -0.140 A  
ENDBRANCH   4  22
TORSDOF 1
ENDMDL
MODEL       94
REMARK 921   NORMALIZED FREE ENERGY PREDICTED BY IDOCK:   -2.04 KCAL/MOL
REMARK 922        TOTAL FREE ENERGY PREDICTED BY IDOCK:   -1.99 KCAL/MOL
REMARK 923 INTER-LIGAND FREE ENERGY PREDICTED BY IDOCK:   -2.48 KCAL/MOL
REMARK 924 INTRA-LIGAND FREE ENERGY PREDICTED BY IDOCK:    0.50 KCAL/MOL
REMARK 927      BINDING AFFINITY PREDICTED BY RF-SCORE:    0.00 PKD
ROOT
HETATM    1  C   UNL     1     -11.154  16.968  68.242  1.00  0.00    -0.172 C  
HETATM    2  C   UNL     1     -11.785  16.644  69.487  1.00  0.00     0.455 C  
HETATM    3  C   UNL     1     -10.317  16.389  69.371  1.00  0.00    -0.290 C  
HETATM    4  C   UNL     1      -9.481  17.077  68.205  1.00  0.00    -0.265 C  
HETATM    5  C   UNL     1      -8.444  13.205  66.404  1.00  0.00     0.407 C  
HETATM    6  C   UNL     1      -9.800  17.908  69.209  1.00  0.00    -0.049 C  
HETATM    7  C   UNL     1     -10.148  19.357  69.411  1.00  0.00    -0.138 C  
HETATM    8  C   UNL     1      -9.132  12.996  67.762  1.00  0.00    -0.200 C  
HETATM    9  C   UNL     1      -8.305  17.047  69.895  1.00  0.00     1.469 C  
HETATM   10  C   UNL     1      -8.225  12.122  68.665  1.00  0.00    -0.033 C  
HETATM   11  C   UNL     1      -8.098  15.316  69.217  1.00  0.00    -0.236 C  
HETATM   12  C   UNL     1      -9.443  14.392  68.462  1.00  0.00    -0.212 C  
HETATM   13  H   UNL     1      -8.913   8.807  69.499  1.00  0.00     0.000 HD 
HETATM   14  C   UNL     1     -10.703  15.246  67.529  1.00  0.00    -0.285 C  
HETATM   15  C   UNL     1      -7.998  10.704  68.119  1.00  0.00    -0.113 C  
HETATM   16  C   UNL     1     -11.935  14.331  67.453  1.00  0.00    -0.426 C  
HETATM   17  O   UNL     1      -9.648   9.306  69.162  1.00  0.00    -0.156 OA 
HETATM   18  C   UNL     1     -11.647  12.866  67.364  1.00  0.00    -0.414 C  
HETATM   19  C   UNL     1     -10.458  12.246  67.505  1.00  0.00    -0.230 C  
HETATM   20  C   UNL     1     -10.476  10.730  67.378  1.00  0.00    -0.268 C  
HETATM   21  C   UNL     1      -9.289   9.923  67.921  1.00  0.00    -0.137 C  
ENDROOT
BRANCH   4  22
HETATM   22  C   UNL     1      -8.347  17.586  67.291  1.00  0.00    -0.225 A  
HETATM   23  N   UNL     1      -6.394  17.031  65.841  1.00  0.00     0.053 NA 
HETATM   24  C   UNL     1      -6.368  18.292  65.403  1.00  0.00    -0.198 A  
HETATM   25  C   UNL     1      -7.228  19.256  65.890  1.00  0.00    -0.305 A  
HETATM   26  C   UNL     1      -8.189  18.903  66.861  1.00  0.00    -0.276 A  
HETATM   27  C   UNL     1      -7.358  16.730  66.757  1.00  0.00    -0.240 A  
ENDBRANCH   4  22
TORSDOF 1
ENDMDL
MODEL       95
REMARK 921   NORMALIZED FREE ENERGY PREDICTED BY IDOCK:   -2.00 KCAL/MOL
REMARK 922        TOTAL FREE ENERGY PREDICTED BY IDOCK:   -1.94 KCAL/MOL
REMARK 923 INTER-LIGAND FREE ENERGY PREDICTED BY IDOCK:   -2.73 KCAL/MOL
REMARK 924 INTRA-LIGAND FREE ENERGY PREDICTED BY IDOCK:    0.79 KCAL/MOL
REMARK 927      BINDING AFFINITY PREDICTED BY RF-SCORE:    0.00 PKD
ROOT
HETATM    1  C   UNL     1     -10.569  16.370  65.181  1.00  0.00    -0.287 C  
HETATM    2  C   UNL     1     -11.991  16.537  65.133  1.00  0.00     1.390 C  
HETATM    3  C   UNL     1     -11.344  16.521  66.480  1.00  0.00     0.575 C  
HETATM    4  C   UNL     1      -9.774  16.744  66.610  1.00  0.00    -0.281 C  
HETATM    5  C   UNL     1      -9.148  12.729  68.282  1.00  0.00    -0.180 C  
HETATM    6  C   UNL     1     -10.464  17.868  66.363  1.00  0.00    -0.318 C  
HETATM    7  C   UNL     1     -10.289  19.164  65.622  1.00  0.00    -0.193 C  
HETATM    8  C   UNL     1     -10.650  13.038  68.179  1.00  0.00    -0.257 C  
HETATM    9  C   UNL     1     -10.681  17.689  68.198  1.00  0.00    -0.312 C  
HETATM   10  C   UNL     1     -11.308  12.841  69.570  1.00  0.00    -0.223 C  
HETATM   11  C   UNL     1     -10.619  15.906  68.760  1.00  0.00    -0.245 C  
HETATM   12  C   UNL     1     -10.890  14.518  67.648  1.00  0.00    -0.275 C  
HETATM   13  H   UNL     1     -13.435  10.198  70.367  1.00  0.00     0.000 HD 
HETATM   14  C   UNL     1     -10.369  14.621  65.945  1.00  0.00    -0.334 C  
HETATM   15  C   UNL     1     -11.238  11.395  70.083  1.00  0.00    -0.076 C  
HETATM   16  C   UNL     1     -11.153  13.568  65.146  1.00  0.00    -0.326 C  
HETATM   17  O   UNL     1     -13.303  10.352  69.440  1.00  0.00     0.515 OA 
HETATM   18  C   UNL     1     -11.455  12.299  65.877  1.00  0.00    -0.428 C  
HETATM   19  C   UNL     1     -11.269  12.031  67.185  1.00  0.00    -0.374 C  
HETATM   20  C   UNL     1     -11.689  10.644  67.649  1.00  0.00     0.250 C  
HETATM   21  C   UNL     1     -11.902  10.394  69.148  1.00  0.00    -0.063 C  
ENDROOT
BRANCH   4  22
HETATM   22  C   UNL     1      -8.345  16.978  67.145  1.00  0.00    -0.213 A  
HETATM   23  N   UNL     1      -5.898  17.052  66.667  1.00  0.00    -0.248 NA 
HETATM   24  C   UNL     1      -5.686  17.601  67.864  1.00  0.00    -0.142 A  
HETATM   25  C   UNL     1      -6.708  17.808  68.768  1.00  0.00    -0.235 A  
HETATM   26  C   UNL     1      -8.029  17.459  68.414  1.00  0.00    -0.259 A  
HETATM   27  C   UNL     1      -7.193  16.758  66.357  1.00  0.00    -0.191 A  
ENDBRANCH   4  22
TORSDOF 1
ENDMDL
MODEL       96
REMARK 921   NORMALIZED FREE ENERGY PREDICTED BY IDOCK:   -1.99 KCAL/MOL
REMARK 922        TOTAL FREE ENERGY PREDICTED BY IDOCK:   -1.92 KCAL/MOL
REMARK 923 INTER-LIGAND FREE ENERGY PREDICTED BY IDOCK:   -2.96 KCAL/MOL
REMARK 924 INTRA-LIGAND FREE ENERGY PREDICTED BY IDOCK:    1.04 KCAL/MOL
REMARK 927      BINDING AFFINITY PREDICTED BY RF-SCORE:    0.00 PKD
ROOT
HETATM    1  C   UNL     1      -9.422  10.247  69.641  1.00  0.00    -0.180 C  
HETATM    2  C   UNL     1     -10.175  11.260  68.962  1.00  0.00    -0.169 C  
HETATM    3  C   UNL     1     -10.095   9.913  68.319  1.00  0.00    -0.185 C  
HETATM    4  C   UNL     1      -9.638   8.651  69.174  1.00  0.00    -0.163 C  
HETATM    5  C   UNL     1      -6.063   8.026  66.697  1.00  0.00    -0.049 C  
HETATM    6  C   UNL     1     -10.895   9.049  69.421  1.00  0.00    -0.152 C  
HETATM    7  C   UNL     1     -11.855   9.113  70.577  1.00  0.00    -0.137 C  
HETATM    8  C   UNL     1      -6.968   9.099  66.070  1.00  0.00    -0.085 C  
HETATM    9  C   UNL     1     -11.119   8.038  67.881  1.00  0.00     0.278 C  
HETATM   10  C   UNL     1      -7.295   8.701  64.607  1.00  0.00    -0.094 C  
HETATM   11  C   UNL     1      -9.595   8.034  66.795  1.00  0.00    -0.281 C  
HETATM   12  C   UNL     1      -8.303   9.280  66.915  1.00  0.00    -0.123 C  
HETATM   13  H   UNL     1      -5.985  10.309  61.805  1.00  0.00     0.000 HD 
HETATM   14  C   UNL     1      -7.902  10.004  68.496  1.00  0.00    -0.093 C  
HETATM   15  C   UNL     1      -6.060   8.646  63.694  1.00  0.00    -0.073 C  
HETATM   16  C   UNL     1      -7.178  11.334  68.236  1.00  0.00    -0.080 C  
HETATM   17  O   UNL     1      -5.920  10.790  62.622  1.00  0.00    -0.145 OA 
HETATM   18  C   UNL     1      -6.294  11.362  67.030  1.00  0.00    -0.122 C  
HETATM   19  C   UNL     1      -6.182  10.429  66.063  1.00  0.00    -0.110 C  
HETATM   20  C   UNL     1      -5.203  10.744  64.942  1.00  0.00    -0.126 C  
HETATM   21  C   UNL     1      -5.309   9.968  63.623  1.00  0.00    -0.103 C  
ENDROOT
BRANCH   4  22
HETATM   22  C   UNL     1      -9.316   7.221  69.656  1.00  0.00    -0.153 A  
HETATM   23  N   UNL     1      -9.466   4.767  69.236  1.00  0.00    -0.139 NA 
HETATM   24  C   UNL     1      -8.611   4.548  70.238  1.00  0.00    -0.077 A  
HETATM   25  C   UNL     1      -8.124   5.573  71.024  1.00  0.00    -0.118 A  
HETATM   26  C   UNL     1      -8.511   6.902  70.749  1.00  0.00    -0.136 A  
HETATM   27  C   UNL     1      -9.787   6.068  68.989  1.00  0.00    -0.148 A  
ENDBRANCH   4  22
TORSDOF 1
ENDMDL
MODEL       97
REMARK 921   NORMALIZED FREE ENERGY PREDICTED BY IDOCK:   -1.73 KCAL/MOL
REMARK 922        TOTAL FREE ENERGY PREDICTED BY IDOCK:   -1.66 KCAL/MOL
REMARK 923 INTER-LIGAND FREE ENERGY PREDICTED BY IDOCK:   -1.93 KCAL/MOL
REMARK 924 INTRA-LIGAND FREE ENERGY PREDICTED BY IDOCK:    0.27 KCAL/MOL
REMARK 927      BINDING AFFINITY PREDICTED BY RF-SCORE:    0.00 PKD
ROOT
HETATM    1  C   UNL     1      -6.560  14.430  69.243  1.00  0.00    -0.122 C  
HETATM    2  C   UNL     1      -5.625  14.176  68.187  1.00  0.00    -0.123 C  
HETATM    3  C   UNL     1      -7.079  14.103  67.852  1.00  0.00    -0.168 C  
HETATM    4  C   UNL     1      -8.154  14.751  68.831  1.00  0.00    -0.160 C  
HETATM    5  C   UNL     1     -10.021  10.863  69.668  1.00  0.00     0.093 C  
HETATM    6  C   UNL     1      -7.481  15.647  68.092  1.00  0.00    -0.129 C  
HETATM    7  C   UNL     1      -6.958  17.051  68.215  1.00  0.00    -0.180 C  
HETATM    8  C   UNL     1      -8.987  10.728  68.538  1.00  0.00    -0.160 C  
HETATM    9  C   UNL     1      -8.782  15.076  66.897  1.00  0.00    -0.285 C  
HETATM   10  C   UNL     1      -9.666  10.092  67.298  1.00  0.00    -0.203 C  
HETATM   11  C   UNL     1      -9.335  13.319  67.221  1.00  0.00    -0.226 C  
HETATM   12  C   UNL     1      -8.359  12.143  68.171  1.00  0.00    -0.170 C  
HETATM   13  H   UNL     1      -9.069   6.839  66.197  1.00  0.00     0.000 HD 
HETATM   14  C   UNL     1      -7.355  12.709  69.534  1.00  0.00     0.483 C  
HETATM   15  C   UNL     1     -10.172   8.662  67.539  1.00  0.00    -0.308 C  
HETATM   16  C   UNL     1      -6.287  11.639  69.810  1.00  0.00    -0.134 C  
HETATM   17  O   UNL     1      -8.423   7.194  66.795  1.00  0.00    -0.115 OA 
HETATM   18  C   UNL     1      -6.722  10.224  69.593  1.00  0.00    -0.085 C  
HETATM   19  C   UNL     1      -7.869   9.786  69.036  1.00  0.00    -0.087 C  
HETATM   20  C   UNL     1      -8.027   8.276  68.933  1.00  0.00    -0.113 C  
HETATM   21  C   UNL     1      -9.071   7.701  67.967  1.00  0.00    -0.135 C  
ENDROOT
BRANCH   4  22
HETATM   22  C   UNL     1      -9.454  15.292  69.460  1.00  0.00    -0.204 A  
HETATM   23  N   UNL     1     -11.040  15.260  71.386  1.00  0.00    -0.308 NA 
HETATM   24  C   UNL     1     -11.661  16.331  70.887  1.00  0.00    -0.286 A  
HETATM   25  C   UNL     1     -11.297  16.894  69.680  1.00  0.00     0.423 A  
HETATM   26  C   UNL     1     -10.217  16.345  68.955  1.00  0.00    -0.269 A  
HETATM   27  C   UNL     1      -9.985  14.783  70.667  1.00  0.00     1.041 A  
ENDBRANCH   4  22
TORSDOF 1
ENDMDL
MODEL       98
REMARK 921   NORMALIZED FREE ENERGY PREDICTED BY IDOCK:   -1.69 KCAL/MOL
REMARK 922        TOTAL FREE ENERGY PREDICTED BY IDOCK:   -1.61 KCAL/MOL
REMARK 923 INTER-LIGAND FREE ENERGY PREDICTED BY IDOCK:   -2.14 KCAL/MOL
REMARK 924 INTRA-LIGAND FREE ENERGY PREDICTED BY IDOCK:    0.53 KCAL/MOL
REMARK 927      BINDING AFFINITY PREDICTED BY RF-SCORE:    0.00 PKD
ROOT
HETATM    1  C   UNL     1     -12.441  15.575  68.963  1.00  0.00     0.147 C  
HETATM    2  C   UNL     1     -12.705  14.363  69.681  1.00  0.00     0.052 C  
HETATM    3  C   UNL     1     -11.295  14.621  69.256  1.00  0.00    -0.313 C  
HETATM    4  C   UNL     1     -10.850  16.087  68.827  1.00  0.00    -0.302 C  
HETATM    5  C   UNL     1      -9.923  14.812  64.725  1.00  0.00     0.100 C  
HETATM    6  C   UNL     1     -10.986  15.926  70.152  1.00  0.00    -0.369 C  
HETATM    7  C   UNL     1     -11.414  16.727  71.351  1.00  0.00     0.300 C  
HETATM    8  C   UNL     1     -10.224  13.591  65.609  1.00  0.00    -0.306 C  
HETATM    9  C   UNL     1      -9.290  15.229  69.862  1.00  0.00     0.024 C  
HETATM   10  C   UNL     1      -9.038  12.596  65.528  1.00  0.00     0.453 C  
HETATM   11  C   UNL     1      -9.091  14.511  68.146  1.00  0.00    -0.191 C  
HETATM   12  C   UNL     1     -10.486  14.033  67.116  1.00  0.00    -0.270 C  
HETATM   13  H   UNL     1      -9.167   9.537  63.862  1.00  0.00     0.000 HD 
HETATM   14  C   UNL     1     -12.016  14.946  67.201  1.00  0.00    -0.136 C  
HETATM   15  C   UNL     1      -8.817  12.017  64.122  1.00  0.00     0.979 C  
HETATM   16  C   UNL     1     -13.132  14.050  66.642  1.00  0.00     1.150 C  
HETATM   17  O   UNL     1     -10.008   9.932  64.058  1.00  0.00    -0.025 OA 
HETATM   18  C   UNL     1     -12.733  13.148  65.518  1.00  0.00    -0.367 C  
HETATM   19  C   UNL     1     -11.492  12.908  65.049  1.00  0.00    -0.350 C  
HETATM   20  C   UNL     1     -11.392  11.921  63.896  1.00  0.00    -0.509 C  
HETATM   21  C   UNL     1     -10.034  11.282  63.579  1.00  0.00    -0.376 C  
ENDROOT
BRANCH   4  22
HETATM   22  C   UNL     1     -10.037  17.332  68.416  1.00  0.00    -0.333 A  
HETATM   23  N   UNL     1      -8.418  18.366  66.823  1.00  0.00    -0.256 NA 
HETATM   24  C   UNL     1      -8.663  19.564  67.360  1.00  0.00    -0.308 A  
HETATM   25  C   UNL     1      -9.506  19.725  68.441  1.00  0.00    -0.423 A  
HETATM   26  C   UNL     1     -10.159  18.598  68.986  1.00  0.00    -0.289 A  
HETATM   27  C   UNL     1      -9.094  17.313  67.363  1.00  0.00    -0.226 A  
ENDBRANCH   4  22
TORSDOF 1
ENDMDL
MODEL       99
REMARK 921   NORMALIZED FREE ENERGY PREDICTED BY IDOCK:   -1.65 KCAL/MOL
REMARK 922        TOTAL FREE ENERGY PREDICTED BY IDOCK:   -1.57 KCAL/MOL
REMARK 923 INTER-LIGAND FREE ENERGY PREDICTED BY IDOCK:   -1.98 KCAL/MOL
REMARK 924 INTRA-LIGAND FREE ENERGY PREDICTED BY IDOCK:    0.41 KCAL/MOL
REMARK 927      BINDING AFFINITY PREDICTED BY RF-SCORE:    0.00 PKD
ROOT
HETATM    1  C   UNL     1      -8.020  10.120  69.823  1.00  0.00    -0.172 C  
HETATM    2  C   UNL     1      -8.002   8.792  69.285  1.00  0.00    -0.108 C  
HETATM    3  C   UNL     1      -7.327   9.866  68.493  1.00  0.00    -0.078 C  
HETATM    4  C   UNL     1      -6.953  11.249  69.187  1.00  0.00    -0.114 C  
HETATM    5  C   UNL     1      -9.634  13.519  66.548  1.00  0.00    -0.284 C  
HETATM    6  C   UNL     1      -6.137  10.236  69.516  1.00  0.00    -0.045 C  
HETATM    7  C   UNL     1      -5.339   9.765  70.700  1.00  0.00    -0.048 C  
HETATM    8  C   UNL     1      -9.524  12.062  66.073  1.00  0.00    -0.229 C  
HETATM    9  C   UNL     1      -5.438  10.766  67.880  1.00  0.00    -0.039 C  
HETATM   10  C   UNL     1      -9.085  12.041  64.586  1.00  0.00     0.525 C  
HETATM   11  C   UNL     1      -6.730  11.516  66.755  1.00  0.00    -0.121 C  
HETATM   12  C   UNL     1      -8.495  11.247  66.973  1.00  0.00    -0.150 C  
HETATM   13  H   UNL     1     -11.183  11.167  61.942  1.00  0.00     0.000 HD 
HETATM   14  C   UNL     1      -9.175  11.058  68.613  1.00  0.00    -0.186 C  
HETATM   15  C   UNL     1     -10.104  12.688  63.635  1.00  0.00    -0.074 C  
HETATM   16  C   UNL     1     -10.536  10.356  68.481  1.00  0.00    -0.237 C  
HETATM   17  O   UNL     1     -11.478  10.902  62.805  1.00  0.00     0.825 OA 
HETATM   18  C   UNL     1     -11.325  10.704  67.259  1.00  0.00    -0.122 C  
HETATM   19  C   UNL     1     -10.925  11.423  66.191  1.00  0.00    -0.294 C  
HETATM   20  C   UNL     1     -11.952  11.600  65.082  1.00  0.00     0.187 C  
HETATM   21  C   UNL     1     -11.475  12.029  63.689  1.00  0.00    -0.468 C  
ENDROOT
BRANCH   4  22
HETATM   22  C   UNL     1      -6.388  12.651  69.497  1.00  0.00    -0.111 A  
HETATM   23  N   UNL     1      -6.401  15.092  68.985  1.00  0.00    -0.097 NA 
HETATM   24  C   UNL     1      -5.665  15.320  70.076  1.00  0.00    -0.131 A  
HETATM   25  C   UNL     1      -5.204  14.294  70.877  1.00  0.00    -0.131 A  
HETATM   26  C   UNL     1      -5.539  12.960  70.559  1.00  0.00    -0.174 A  
HETATM   27  C   UNL     1      -6.724  13.792  68.735  1.00  0.00    -0.103 A  
ENDBRANCH   4  22
TORSDOF 1
ENDMDL
MODEL      100
REMARK 921   NORMALIZED FREE ENERGY PREDICTED BY IDOCK:   -1.62 KCAL/MOL
REMARK 922        TOTAL FREE ENERGY PREDICTED BY IDOCK:   -1.54 KCAL/MOL
REMARK 923 INTER-LIGAND FREE ENERGY PREDICTED BY IDOCK:   -1.85 KCAL/MOL
REMARK 924 INTRA-LIGAND FREE ENERGY PREDICTED BY IDOCK:    0.31 KCAL/MOL
REMARK 927      BINDING AFFINITY PREDICTED BY RF-SCORE:    0.00 PKD
ROOT
HETATM    1  C   UNL     1      -7.135   9.524  64.395  1.00  0.00    -0.108 C  
HETATM    2  C   UNL     1      -7.524   8.651  63.327  1.00  0.00    -0.106 C  
HETATM    3  C   UNL     1      -8.482   8.822  64.461  1.00  0.00    -0.158 C  
HETATM    4  C   UNL     1      -8.319  10.049  65.461  1.00  0.00    -0.151 C  
HETATM    5  C   UNL     1      -7.572   7.403  68.889  1.00  0.00    -0.103 C  
HETATM    6  C   UNL     1      -8.838  10.383  64.270  1.00  0.00    -0.224 C  
HETATM    7  C   UNL     1      -8.819  11.543  63.313  1.00  0.00     0.138 C  
HETATM    8  C   UNL     1      -8.005   6.582  67.664  1.00  0.00    -0.114 C  
HETATM    9  C   UNL     1     -10.332   9.739  65.163  1.00  0.00     0.334 C  
HETATM   10  C   UNL     1      -9.226   5.706  68.042  1.00  0.00    -0.110 C  
HETATM   11  C   UNL     1      -9.902   8.450  66.448  1.00  0.00    -0.310 C  
HETATM   12  C   UNL     1      -8.353   7.534  66.437  1.00  0.00    -0.126 C  
HETATM   13  H   UNL     1      -9.100   2.245  68.440  1.00  0.00     0.000 HD 
HETATM   14  C   UNL     1      -6.857   8.314  65.857  1.00  0.00    -0.064 C  
HETATM   15  C   UNL     1      -8.922   4.661  69.127  1.00  0.00    -0.139 C  
HETATM   16  C   UNL     1      -5.861   7.205  65.484  1.00  0.00    -0.036 C  
HETATM   17  O   UNL     1      -8.370   2.630  67.970  1.00  0.00    -0.071 OA 
HETATM   18  C   UNL     1      -5.914   5.977  66.337  1.00  0.00    -0.025 C  
HETATM   19  C   UNL     1      -6.827   5.660  67.277  1.00  0.00    -0.064 C  
HETATM   20  C   UNL     1      -6.629   4.324  67.976  1.00  0.00    -0.042 C  
HETATM   21  C   UNL     1      -7.807   3.701  68.737  1.00  0.00    -0.055 C  
ENDROOT
BRANCH   4  22
HETATM   22  C   UNL     1      -8.533  11.102  66.568  1.00  0.00    -0.165 A  
HETATM   23  N   UNL     1      -8.968  13.487  67.158  1.00  0.00    -0.219 NA 
HETATM   24  C   UNL     1      -9.187  13.128  68.425  1.00  0.00    -0.141 A  
HETATM   25  C   UNL     1      -9.041  11.824  68.855  1.00  0.00     0.104 A  
HETATM   26  C   UNL     1      -8.677  10.824  67.927  1.00  0.00    -0.129 A  
HETATM   27  C   UNL     1      -8.647  12.483  66.293  1.00  0.00     0.234 A  
ENDBRANCH   4  22
TORSDOF 1
ENDMDL
MODEL      101
REMARK 921   NORMALIZED FREE ENERGY PREDICTED BY IDOCK:   -1.32 KCAL/MOL
REMARK 922        TOTAL FREE ENERGY PREDICTED BY IDOCK:   -1.22 KCAL/MOL
REMARK 923 INTER-LIGAND FREE ENERGY PREDICTED BY IDOCK:   -1.45 KCAL/MOL
REMARK 924 INTRA-LIGAND FREE ENERGY PREDICTED BY IDOCK:    0.23 KCAL/MOL
REMARK 927      BINDING AFFINITY PREDICTED BY RF-SCORE:    0.00 PKD
ROOT
HETATM    1  C   UNL     1      -9.027   9.131  65.770  1.00  0.00    -0.237 C  
HETATM    2  C   UNL     1     -10.273   8.448  65.580  1.00  0.00     1.193 C  
HETATM    3  C   UNL     1      -9.673   8.421  66.949  1.00  0.00    -0.292 C  
HETATM    4  C   UNL     1      -8.535   9.463  67.339  1.00  0.00    -0.125 C  
HETATM    5  C   UNL     1      -5.569   6.282  67.963  1.00  0.00    -0.008 C  
HETATM    6  C   UNL     1      -9.768   9.990  67.308  1.00  0.00    -0.206 C  
HETATM    7  C   UNL     1     -10.433  11.295  66.963  1.00  0.00    -0.272 C  
HETATM    8  C   UNL     1      -6.965   5.676  67.748  1.00  0.00    -0.066 C  
HETATM    9  C   UNL     1      -9.741   9.198  68.986  1.00  0.00    -0.166 C  
HETATM   10  C   UNL     1      -7.306   4.743  68.938  1.00  0.00    -0.057 C  
HETATM   11  C   UNL     1      -8.607   7.712  69.062  1.00  0.00    -0.136 C  
HETATM   12  C   UNL     1      -8.062   6.819  67.598  1.00  0.00    -0.116 C  
HETATM   13  H   UNL     1      -7.412   1.265  68.725  1.00  0.00     0.000 HD 
HETATM   14  C   UNL     1      -7.792   7.693  66.066  1.00  0.00    -0.101 C  
HETATM   15  C   UNL     1      -6.368   3.532  69.058  1.00  0.00    -0.029 C  
HETATM   16  C   UNL     1      -7.842   6.668  64.923  1.00  0.00    -0.115 C  
HETATM   17  O   UNL     1      -7.445   1.728  67.896  1.00  0.00    -0.052 OA 
HETATM   18  C   UNL     1      -7.295   5.314  65.247  1.00  0.00    -0.068 C  
HETATM   19  C   UNL     1      -6.919   4.839  66.451  1.00  0.00    -0.067 C  
HETATM   20  C   UNL     1      -6.412   3.404  66.475  1.00  0.00    -0.040 C  
HETATM   21  C   UNL     1      -6.358   2.656  67.813  1.00  0.00    -0.032 C  
ENDROOT
BRANCH   4  22
HETATM   22  C   UNL     1      -7.497  10.313  68.100  1.00  0.00    -0.086 A  
HETATM   23  N   UNL     1      -5.145  10.560  68.895  1.00  0.00    -0.042 NA 
HETATM   24  C   UNL     1      -5.398  11.826  69.234  1.00  0.00    -0.048 A  
HETATM   25  C   UNL     1      -6.654  12.383  69.106  1.00  0.00    -0.099 A  
HETATM   26  C   UNL     1      -7.706  11.608  68.572  1.00  0.00    -0.134 A  
HETATM   27  C   UNL     1      -6.184   9.859  68.358  1.00  0.00    -0.050 A  
ENDBRANCH   4  22
TORSDOF 1
ENDMDL
MODEL      102
REMARK 921   NORMALIZED FREE ENERGY PREDICTED BY IDOCK:   -0.54 KCAL/MOL
REMARK 922        TOTAL FREE ENERGY PREDICTED BY IDOCK:   -0.39 KCAL/MOL
REMARK 923 INTER-LIGAND FREE ENERGY PREDICTED BY IDOCK:   -1.16 KCAL/MOL
REMARK 924 INTRA-LIGAND FREE ENERGY PREDICTED BY IDOCK:    0.76 KCAL/MOL
REMARK 927      BINDING AFFINITY PREDICTED BY RF-SCORE:    0.00 PKD
ROOT
HETATM    1  C   UNL     1     -10.001   6.544  67.592  1.00  0.00    -0.157 C  
HETATM    2  C   UNL     1     -10.124   7.968  67.699  1.00  0.00    -0.269 C  
HETATM    3  C   UNL     1      -8.744   7.396  67.669  1.00  0.00    -0.125 C  
HETATM    4  C   UNL     1      -8.512   5.907  67.156  1.00  0.00    -0.107 C  
HETATM    5  C   UNL     1      -7.003   4.591  71.068  1.00  0.00    -0.036 C  
HETATM    6  C   UNL     1      -8.743   6.791  66.174  1.00  0.00    -0.156 C  
HETATM    7  C   UNL     1      -9.410   6.836  64.826  1.00  0.00     1.322 C  
HETATM    8  C   UNL     1      -7.178   6.118  71.048  1.00  0.00    -0.075 C  
HETATM    9  C   UNL     1      -6.935   7.056  66.499  1.00  0.00    -0.069 C  
HETATM   10  C   UNL     1      -5.840   6.790  71.449  1.00  0.00    -0.036 C  
HETATM   11  C   UNL     1      -6.458   6.675  68.266  1.00  0.00    -0.049 C  
HETATM   12  C   UNL     1      -7.650   6.617  69.613  1.00  0.00    -0.098 C  
HETATM   13  H   UNL     1      -5.298   8.397  74.495  1.00  0.00     0.000 HD 
HETATM   14  C   UNL     1      -9.313   6.044  69.311  1.00  0.00    -0.146 C  
HETATM   15  C   UNL     1      -5.394   6.465  72.883  1.00  0.00    -0.036 C  
HETATM   16  C   UNL     1     -10.206   6.569  70.446  1.00  0.00    -0.227 C  
HETATM   17  O   UNL     1      -6.208   8.254  74.264  1.00  0.00    -0.106 OA 
HETATM   18  C   UNL     1      -9.558   6.652  71.791  1.00  0.00    -0.161 C  
HETATM   19  C   UNL     1      -8.255   6.480  72.095  1.00  0.00    -0.107 C  
HETATM   20  C   UNL     1      -7.884   6.643  73.561  1.00  0.00    -0.095 C  
HETATM   21  C   UNL     1      -6.415   6.875  73.935  1.00  0.00    -0.067 C  
ENDROOT
BRANCH   4  22
HETATM   22  C   UNL     1      -7.884   4.579  66.684  1.00  0.00    -0.099 A  
HETATM   23  N   UNL     1      -5.975   3.427  65.564  1.00  0.00    -0.019 NA 
HETATM   24  C   UNL     1      -6.457   2.249  65.966  1.00  0.00    -0.024 A  
HETATM   25  C   UNL     1      -7.648   2.140  66.656  1.00  0.00    -0.066 A  
HETATM   26  C   UNL     1      -8.373   3.308  66.978  1.00  0.00    -0.097 A  
HETATM   27  C   UNL     1      -6.694   4.528  65.923  1.00  0.00    -0.053 A  
ENDBRANCH   4  22
TORSDOF 1
ENDMDL
MODEL      103
REMARK 921   NORMALIZED FREE ENERGY PREDICTED BY IDOCK:   -0.17 KCAL/MOL
REMARK 922        TOTAL FREE ENERGY PREDICTED BY IDOCK:    0.00 KCAL/MOL
REMARK 923 INTER-LIGAND FREE ENERGY PREDICTED BY IDOCK:   -0.19 KCAL/MOL
REMARK 924 INTRA-LIGAND FREE ENERGY PREDICTED BY IDOCK:    0.19 KCAL/MOL
REMARK 927      BINDING AFFINITY PREDICTED BY RF-SCORE:    0.00 PKD
ROOT
HETATM    1  C   UNL     1      -9.122  10.505  65.693  1.00  0.00    -0.209 C  
HETATM    2  C   UNL     1      -8.377  11.699  65.421  1.00  0.00     0.553 C  
HETATM    3  C   UNL     1      -8.361  11.181  66.823  1.00  0.00    -0.152 C  
HETATM    4  C   UNL     1      -8.810   9.683  67.122  1.00  0.00    -0.141 C  
HETATM    5  C   UNL     1     -12.209  10.988  69.582  1.00  0.00    -0.370 C  
HETATM    6  C   UNL     1      -7.587   9.788  66.579  1.00  0.00    -0.098 C  
HETATM    7  C   UNL     1      -6.697   9.021  65.640  1.00  0.00    -0.072 C  
HETATM    8  C   UNL     1     -11.319  12.187  69.220  1.00  0.00    -0.327 C  
HETATM    9  C   UNL     1      -7.234  10.133  68.368  1.00  0.00    -0.076 C  
HETATM   10  C   UNL     1     -10.893  12.918  70.519  1.00  0.00     2.099 C  
HETATM   11  C   UNL     1      -8.692  10.898  69.255  1.00  0.00     0.013 C  
HETATM   12  C   UNL     1     -10.042  11.718  68.394  1.00  0.00    -0.201 C  
HETATM   13  H   UNL     1     -12.113  16.034  71.498  1.00  0.00     0.000 HD 
HETATM   14  C   UNL     1     -10.563  11.139  66.789  1.00  0.00    -0.311 C  
HETATM   15  C   UNL     1     -12.071  13.524  71.298  1.00  0.00    -0.062 C  
HETATM   16  C   UNL     1     -11.329  12.280  66.101  1.00  0.00    -0.402 C  
HETATM   17  O   UNL     1     -12.245  15.810  70.584  1.00  0.00    -0.392 OA 
HETATM   18  C   UNL     1     -12.144  13.146  67.007  1.00  0.00    -0.366 C  
HETATM   19  C   UNL     1     -12.161  13.152  68.355  1.00  0.00    -0.216 C  
HETATM   20  C   UNL     1     -13.088  14.166  69.008  1.00  0.00     1.787 C  
HETATM   21  C   UNL     1     -12.875  14.528  70.483  1.00  0.00    -0.304 C  
ENDROOT
BRANCH   4  22
HETATM   22  C   UNL     1      -9.095   8.324  67.794  1.00  0.00    -0.138 A  
HETATM   23  N   UNL     1      -8.278   6.036  68.361  1.00  0.00    -0.110 NA 
HETATM   24  C   UNL     1      -9.327   5.867  69.169  1.00  0.00    -0.120 A  
HETATM   25  C   UNL     1     -10.316   6.821  69.296  1.00  0.00    -0.221 A  
HETATM   26  C   UNL     1     -10.211   8.031  68.576  1.00  0.00    -0.231 A  
HETATM   27  C   UNL     1      -8.204   7.231  67.709  1.00  0.00    -0.119 A  
ENDBRANCH   4  22
TORSDOF 1
ENDMDL
MODEL      104
REMARK 921   NORMALIZED FREE ENERGY PREDICTED BY IDOCK:   -0.05 KCAL/MOL
REMARK 922        TOTAL FREE ENERGY PREDICTED BY IDOCK:    0.13 KCAL/MOL
REMARK 923 INTER-LIGAND FREE ENERGY PREDICTED BY IDOCK:   -0.76 KCAL/MOL
REMARK 924 INTRA-LIGAND FREE ENERGY PREDICTED BY IDOCK:    0.89 KCAL/MOL
REMARK 927      BINDING AFFINITY PREDICTED BY RF-SCORE:    0.00 PKD
ROOT
HETATM    1  C   UNL     1      -8.533  17.231  68.450  1.00  0.00    -0.254 C  
HETATM    2  C   UNL     1      -7.599  17.026  69.517  1.00  0.00     0.265 C  
HETATM    3  C   UNL     1      -8.321  15.827  68.994  1.00  0.00    -0.236 C  
HETATM    4  C   UNL     1      -9.051  15.893  67.581  1.00  0.00    -0.200 C  
HETATM    5  C   UNL     1     -13.005  15.224  69.377  1.00  0.00     0.555 C  
HETATM    6  C   UNL     1      -7.716  15.788  67.499  1.00  0.00    -0.186 C  
HETATM    7  C   UNL     1      -6.597  16.257  66.611  1.00  0.00     0.147 C  
HETATM    8  C   UNL     1     -11.901  15.029  70.428  1.00  0.00    -0.345 C  
HETATM    9  C   UNL     1      -8.215  14.022  67.774  1.00  0.00    -0.169 C  
HETATM   10  C   UNL     1     -12.053  13.629  71.075  1.00  0.00    -0.273 C  
HETATM   11  C   UNL     1      -9.804  13.866  68.749  1.00  0.00    -0.117 C  
HETATM   12  C   UNL     1     -10.460  15.192  69.773  1.00  0.00    -0.248 C  
HETATM   13  H   UNL     1     -13.166  13.094  74.335  1.00  0.00     0.000 HD 
HETATM   14  C   UNL     1     -10.224  16.895  69.292  1.00  0.00    -0.262 C  
HETATM   15  C   UNL     1     -13.367  13.449  71.850  1.00  0.00    -0.539 C  
HETATM   16  C   UNL     1     -10.412  17.769  70.541  1.00  0.00     1.627 C  
HETATM   17  O   UNL     1     -12.876  13.978  74.141  1.00  0.00     0.489 OA 
HETATM   18  C   UNL     1     -11.437  17.287  71.517  1.00  0.00     1.454 C  
HETATM   19  C   UNL     1     -12.093  16.108  71.516  1.00  0.00    -0.438 C  
HETATM   20  C   UNL     1     -13.076  15.890  72.657  1.00  0.00    -0.557 C  
HETATM   21  C   UNL     1     -13.545  14.463  72.971  1.00  0.00    -0.147 C  
ENDROOT
BRANCH   4  22
HETATM   22  C   UNL     1      -9.800  15.545  66.278  1.00  0.00    -0.317 A  
HETATM   23  N   UNL     1     -10.448  13.798  64.618  1.00  0.00    -0.431 NA 
HETATM   24  C   UNL     1     -11.303  14.656  64.057  1.00  0.00     0.259 A  
HETATM   25  C   UNL     1     -11.419  15.963  64.487  1.00  0.00    -0.287 A  
HETATM   26  C   UNL     1     -10.637  16.409  65.573  1.00  0.00    -0.346 A  
HETATM   27  C   UNL     1      -9.736  14.264  65.683  1.00  0.00    -0.205 A  
ENDBRANCH   4  22
TORSDOF 1
ENDMDL
MODEL      105
REMARK 921   NORMALIZED FREE ENERGY PREDICTED BY IDOCK:    0.60 KCAL/MOL
REMARK 922        TOTAL FREE ENERGY PREDICTED BY IDOCK:    0.81 KCAL/MOL
REMARK 923 INTER-LIGAND FREE ENERGY PREDICTED BY IDOCK:    0.57 KCAL/MOL
REMARK 924 INTRA-LIGAND FREE ENERGY PREDICTED BY IDOCK:    0.24 KCAL/MOL
REMARK 927      BINDING AFFINITY PREDICTED BY RF-SCORE:    0.00 PKD
ROOT
HETATM    1  C   UNL     1      -7.765  13.938  66.553  1.00  0.00     1.242 C  
HETATM    2  C   UNL     1      -8.942  14.130  65.760  1.00  0.00     0.645 C  
HETATM    3  C   UNL     1      -9.126  13.630  67.156  1.00  0.00    -0.241 C  
HETATM    4  C   UNL     1      -7.944  13.772  68.212  1.00  0.00    -0.146 C  
HETATM    5  C   UNL     1      -7.554   9.417  68.651  1.00  0.00    -0.080 C  
HETATM    6  C   UNL     1      -8.596  14.919  67.968  1.00  0.00    -0.160 C  
HETATM    7  C   UNL     1      -8.303  16.391  67.886  1.00  0.00    -0.174 C  
HETATM    8  C   UNL     1      -8.795   9.761  67.813  1.00  0.00    -0.129 C  
HETATM    9  C   UNL     1      -9.720  14.104  69.200  1.00  0.00     0.091 C  
HETATM   10  C   UNL     1     -10.042   9.093  68.449  1.00  0.00    -0.220 C  
HETATM   11  C   UNL     1      -9.628  12.237  69.134  1.00  0.00     0.483 C  
HETATM   12  C   UNL     1      -8.993  11.337  67.711  1.00  0.00    -0.141 C  
HETATM   13  H   UNL     1     -11.715   6.366  67.064  1.00  0.00     0.000 HD 
HETATM   14  C   UNL     1      -7.673  12.030  66.730  1.00  0.00    -0.014 C  
HETATM   15  C   UNL     1      -9.983   7.558  68.450  1.00  0.00    -0.185 C  
HETATM   16  C   UNL     1      -7.692  11.339  65.358  1.00  0.00     0.477 C  
HETATM   17  O   UNL     1     -11.140   6.837  66.473  1.00  0.00    -0.091 OA 
HETATM   18  C   UNL     1      -8.088   9.897  65.368  1.00  0.00    -0.137 C  
HETATM   19  C   UNL     1      -8.582   9.180  66.398  1.00  0.00    -0.135 C  
HETATM   20  C   UNL     1      -8.910   7.725  66.102  1.00  0.00    -0.192 C  
HETATM   21  C   UNL     1      -9.838   6.963  67.056  1.00  0.00    -0.174 C  
ENDROOT
BRANCH   4  22
HETATM   22  C   UNL     1      -7.098  13.782  69.503  1.00  0.00     0.121 A  
HETATM   23  N   UNL     1      -5.622  12.521  71.070  1.00  0.00    -0.335 NA 
HETATM   24  C   UNL     1      -5.310  13.663  71.687  1.00  0.00    -0.205 A  
HETATM   25  C   UNL     1      -5.880  14.869  71.331  1.00  0.00     0.153 A  
HETATM   26  C   UNL     1      -6.801  14.913  70.262  1.00  0.00     0.012 A  
HETATM   27  C   UNL     1      -6.493  12.617  70.025  1.00  0.00     0.105 A  
ENDBRANCH   4  22
TORSDOF 1
ENDMDL
MODEL      106
REMARK 921   NORMALIZED FREE ENERGY PREDICTED BY IDOCK:    0.79 KCAL/MOL
REMARK 922        TOTAL FREE ENERGY PREDICTED BY IDOCK:    1.01 KCAL/MOL
REMARK 923 INTER-LIGAND FREE ENERGY PREDICTED BY IDOCK:    0.37 KCAL/MOL
REMARK 924 INTRA-LIGAND FREE ENERGY PREDICTED BY IDOCK:    0.64 KCAL/MOL
REMARK 927      BINDING AFFINITY PREDICTED BY RF-SCORE:    0.00 PKD
ROOT
HETATM    1  C   UNL     1      -9.612   8.504  69.363  1.00  0.00    -0.170 C  
HETATM    2  C   UNL     1      -8.896   7.491  70.081  1.00  0.00    -0.147 C  
HETATM    3  C   UNL     1      -8.104   8.399  69.195  1.00  0.00    -0.119 C  
HETATM    4  C   UNL     1      -8.738   9.769  68.692  1.00  0.00    -0.122 C  
HETATM    5  C   UNL     1      -8.579   8.519  64.483  1.00  0.00    -0.055 C  
HETATM    6  C   UNL     1      -8.338   9.792  69.973  1.00  0.00    -0.211 C  
HETATM    7  C   UNL     1      -8.748  10.423  71.275  1.00  0.00     3.540 C  
HETATM    8  C   UNL     1      -7.836   7.507  65.369  1.00  0.00    -0.117 C  
HETATM    9  C   UNL     1      -6.742  10.097  69.075  1.00  0.00    -0.054 C  
HETATM   10  C   UNL     1      -6.391   7.326  64.836  1.00  0.00    -0.037 C  
HETATM   11  C   UNL     1      -6.713   9.321  67.374  1.00  0.00    -0.069 C  
HETATM   12  C   UNL     1      -7.819   7.988  66.886  1.00  0.00    -0.103 C  
HETATM   13  H   UNL     1      -5.257   4.459  63.208  1.00  0.00     0.000 HD 
HETATM   14  C   UNL     1      -9.477   7.915  67.542  1.00  0.00    -0.175 C  
HETATM   15  C   UNL     1      -6.329   6.728  63.422  1.00  0.00    -0.042 C  
HETATM   16  C   UNL     1      -9.986   6.474  67.381  1.00  0.00    -0.180 C  
HETATM   17  O   UNL     1      -6.061   4.358  63.704  1.00  0.00    -0.017 OA 
HETATM   18  C   UNL     1      -9.515   5.758  66.155  1.00  0.00    -0.144 C  
HETATM   19  C   UNL     1      -8.581   6.158  65.268  1.00  0.00    -0.082 C  
HETATM   20  C   UNL     1      -8.299   5.203  64.118  1.00  0.00    -0.137 C  
HETATM   21  C   UNL     1      -7.001   5.366  63.317  1.00  0.00    -0.041 C  
ENDROOT
BRANCH   4  22
HETATM   22  C   UNL     1      -8.960  11.162  68.068  1.00  0.00    -0.149 A  
HETATM   23  N   UNL     1      -8.043  13.432  67.590  1.00  0.00    -0.161 NA 
HETATM   24  C   UNL     1      -9.076  13.674  66.780  1.00  0.00    -0.217 A  
HETATM   25  C   UNL     1     -10.103  12.768  66.611  1.00  0.00    -0.248 A  
HETATM   26  C   UNL     1     -10.056  11.530  67.288  1.00  0.00    -0.223 A  
HETATM   27  C   UNL     1      -8.025  12.213  68.199  1.00  0.00    -0.151 A  
ENDBRANCH   4  22
TORSDOF 1
ENDMDL
MODEL      107
REMARK 921   NORMALIZED FREE ENERGY PREDICTED BY IDOCK:    0.96 KCAL/MOL
REMARK 922        TOTAL FREE ENERGY PREDICTED BY IDOCK:    1.20 KCAL/MOL
REMARK 923 INTER-LIGAND FREE ENERGY PREDICTED BY IDOCK:    0.64 KCAL/MOL
REMARK 924 INTRA-LIGAND FREE ENERGY PREDICTED BY IDOCK:    0.56 KCAL/MOL
REMARK 927      BINDING AFFINITY PREDICTED BY RF-SCORE:    0.00 PKD
ROOT
HETATM    1  C   UNL     1     -10.812  16.413  68.469  1.00  0.00    -0.339 C  
HETATM    2  C   UNL     1     -12.228  16.453  68.688  1.00  0.00     0.788 C  
HETATM    3  C   UNL     1     -11.557  15.120  68.759  1.00  0.00    -0.369 C  
HETATM    4  C   UNL     1      -9.977  15.033  68.929  1.00  0.00    -0.236 C  
HETATM    5  C   UNL     1      -9.472  13.042  65.045  1.00  0.00     0.372 C  
HETATM    6  C   UNL     1     -10.629  15.362  70.055  1.00  0.00    -0.319 C  
HETATM    7  C   UNL     1     -10.418  16.212  71.278  1.00  0.00     1.145 C  
HETATM    8  C   UNL     1     -10.964  13.146  65.403  1.00  0.00    -0.298 C  
HETATM    9  C   UNL     1     -10.818  13.515  70.038  1.00  0.00     0.563 C  
HETATM   10  C   UNL     1     -11.602  11.735  65.348  1.00  0.00    -0.190 C  
HETATM   11  C   UNL     1     -10.813  12.808  68.306  1.00  0.00    -0.270 C  
HETATM   12  C   UNL     1     -11.157  13.796  66.843  1.00  0.00    -0.311 C  
HETATM   13  H   UNL     1     -13.814  10.687  62.865  1.00  0.00     0.000 HD 
HETATM   14  C   UNL     1     -10.664  15.510  66.784  1.00  0.00    -0.305 C  
HETATM   15  C   UNL     1     -11.578  11.103  63.948  1.00  0.00     0.321 C  
HETATM   16  C   UNL     1     -11.503  16.205  65.700  1.00  0.00     0.422 C  
HETATM   17  O   UNL     1     -13.693  11.626  62.937  1.00  0.00     0.219 OA 
HETATM   18  C   UNL     1     -11.839  15.367  64.508  1.00  0.00    -0.257 C  
HETATM   19  C   UNL     1     -11.638  14.044  64.342  1.00  0.00    -0.385 C  
HETATM   20  C   UNL     1     -12.102  13.459  63.016  1.00  0.00     0.137 C  
HETATM   21  C   UNL     1     -12.297  11.942  62.900  1.00  0.00     0.278 C  
ENDROOT
BRANCH   4  22
HETATM   22  C   UNL     1      -8.531  14.542  69.150  1.00  0.00     0.017 A  
HETATM   23  N   UNL     1      -6.313  14.922  70.228  1.00  0.00    -0.160 NA 
HETATM   24  C   UNL     1      -5.936  13.691  69.875  1.00  0.00    -0.131 A  
HETATM   25  C   UNL     1      -6.745  12.864  69.122  1.00  0.00    -0.086 A  
HETATM   26  C   UNL     1      -8.026  13.311  68.733  1.00  0.00     0.034 A  
HETATM   27  C   UNL     1      -7.569  15.300  69.854  1.00  0.00    -0.003 A  
ENDBRANCH   4  22
TORSDOF 1
ENDMDL
MODEL      108
REMARK 921   NORMALIZED FREE ENERGY PREDICTED BY IDOCK:    1.38 KCAL/MOL
REMARK 922        TOTAL FREE ENERGY PREDICTED BY IDOCK:    1.64 KCAL/MOL
REMARK 923 INTER-LIGAND FREE ENERGY PREDICTED BY IDOCK:    1.42 KCAL/MOL
REMARK 924 INTRA-LIGAND FREE ENERGY PREDICTED BY IDOCK:    0.22 KCAL/MOL
REMARK 927      BINDING AFFINITY PREDICTED BY RF-SCORE:    0.00 PKD
ROOT
HETATM    1  C   UNL     1      -9.993  10.011  69.937  1.00  0.00    -0.280 C  
HETATM    2  C   UNL     1     -11.252   9.519  69.462  1.00  0.00    -0.105 C  
HETATM    3  C   UNL     1     -10.312   8.530  70.071  1.00  0.00    -0.213 C  
HETATM    4  C   UNL     1      -9.099   9.036  70.969  1.00  0.00    -0.322 C  
HETATM    5  C   UNL     1      -6.110   7.413  68.186  1.00  0.00    -0.035 C  
HETATM    6  C   UNL     1     -10.290   9.087  71.584  1.00  0.00    -0.420 C  
HETATM    7  C   UNL     1     -11.006   9.943  72.593  1.00  0.00     3.366 C  
HETATM    8  C   UNL     1      -7.521   6.952  67.785  1.00  0.00    -0.098 C  
HETATM    9  C   UNL     1      -9.829   7.303  71.809  1.00  0.00    -0.175 C  
HETATM   10  C   UNL     1      -7.545   5.405  67.691  1.00  0.00    -0.088 C  
HETATM   11  C   UNL     1      -8.732   6.666  70.434  1.00  0.00    -0.151 C  
HETATM   12  C   UNL     1      -8.605   7.469  68.829  1.00  0.00    -0.129 C  
HETATM   13  H   UNL     1      -7.744   3.634  64.695  1.00  0.00     0.000 HD 
HETATM   14  C   UNL     1      -8.740   9.244  68.704  1.00  0.00    -0.132 C  
HETATM   15  C   UNL     1      -6.623   4.841  66.599  1.00  0.00    -0.050 C  
HETATM   16  C   UNL     1      -9.103   9.588  67.251  1.00  0.00    -0.146 C  
HETATM   17  O   UNL     1      -7.990   4.550  64.646  1.00  0.00    -0.087 OA 
HETATM   18  C   UNL     1      -8.506   8.697  66.209  1.00  0.00    -0.131 C  
HETATM   19  C   UNL     1      -7.829   7.545  66.392  1.00  0.00    -0.098 C  
HETATM   20  C   UNL     1      -7.351   6.842  65.130  1.00  0.00    -0.081 C  
HETATM   21  C   UNL     1      -6.954   5.363  65.207  1.00  0.00    -0.064 C  
ENDROOT
BRANCH   4  22
HETATM   22  C   UNL     1      -7.886   9.115  71.919  1.00  0.00     0.324 A  
HETATM   23  N   UNL     1      -5.501   9.769  72.249  1.00  0.00    -0.251 NA 
HETATM   24  C   UNL     1      -5.633   9.572  73.562  1.00  0.00     0.111 A  
HETATM   25  C   UNL     1      -6.804   9.098  74.119  1.00  0.00     0.289 A  
HETATM   26  C   UNL     1      -7.913   8.837  73.285  1.00  0.00     0.235 A  
HETATM   27  C   UNL     1      -6.607   9.532  71.487  1.00  0.00     0.155 A  
ENDBRANCH   4  22
TORSDOF 1
ENDMDL
MODEL      109
REMARK 921   NORMALIZED FREE ENERGY PREDICTED BY IDOCK:    1.90 KCAL/MOL
REMARK 922        TOTAL FREE ENERGY PREDICTED BY IDOCK:    2.18 KCAL/MOL
REMARK 923 INTER-LIGAND FREE ENERGY PREDICTED BY IDOCK:    1.56 KCAL/MOL
REMARK 924 INTRA-LIGAND FREE ENERGY PREDICTED BY IDOCK:    0.62 KCAL/MOL
REMARK 927      BINDING AFFINITY PREDICTED BY RF-SCORE:    0.00 PKD
ROOT
HETATM    1  C   UNL     1     -11.001  14.312  65.225  1.00  0.00    -0.347 C  
HETATM    2  C   UNL     1     -12.400  14.214  64.932  1.00  0.00    -0.446 C  
HETATM    3  C   UNL     1     -11.998  15.048  66.105  1.00  0.00     0.062 C  
HETATM    4  C   UNL     1     -10.489  15.531  66.256  1.00  0.00    -0.313 C  
HETATM    5  C   UNL     1      -9.938  13.277  69.988  1.00  0.00     2.248 C  
HETATM    6  C   UNL     1     -11.189  16.211  65.335  1.00  0.00    -0.006 C  
HETATM    7  C   UNL     1     -10.960  16.881  64.008  1.00  0.00     2.140 C  
HETATM    8  C   UNL     1     -11.415  13.253  69.561  1.00  0.00    -0.299 C  
HETATM    9  C   UNL     1     -11.711  17.058  66.902  1.00  0.00     1.524 C  
HETATM   10  C   UNL     1     -12.293  13.772  70.729  1.00  0.00    -0.451 C  
HETATM   11  C   UNL     1     -11.647  15.924  68.388  1.00  0.00    -0.317 C  
HETATM   12  C   UNL     1     -11.642  14.130  68.253  1.00  0.00    -0.356 C  
HETATM   13  H   UNL     1     -14.374  11.748  72.658  1.00  0.00     0.000 HD 
HETATM   14  C   UNL     1     -10.838  13.339  66.870  1.00  0.00    -0.286 C  
HETATM   15  C   UNL     1     -12.232  12.888  71.984  1.00  0.00     0.813 C  
HETATM   16  C   UNL     1     -11.411  11.919  66.741  1.00  0.00    -0.393 C  
HETATM   17  O   UNL     1     -14.091  11.375  71.832  1.00  0.00     0.468 OA 
HETATM   18  C   UNL     1     -11.763  11.246  68.029  1.00  0.00    -0.305 C  
HETATM   19  C   UNL     1     -11.793  11.785  69.264  1.00  0.00    -0.389 C  
HETATM   20  C   UNL     1     -12.208  10.850  70.391  1.00  0.00    -0.453 C  
HETATM   21  C   UNL     1     -12.665  11.452  71.726  1.00  0.00    -0.254 C  
ENDROOT
BRANCH   4  22
HETATM   22  C   UNL     1      -9.192  16.229  66.714  1.00  0.00    -0.253 A  
HETATM   23  N   UNL     1      -7.685  16.857  68.601  1.00  0.00    -0.224 NA 
HETATM   24  C   UNL     1      -6.752  17.234  67.724  1.00  0.00    -0.160 A  
HETATM   25  C   UNL     1      -6.972  17.206  66.361  1.00  0.00    -0.296 A  
HETATM   26  C   UNL     1      -8.208  16.737  65.867  1.00  0.00     0.039 A  
HETATM   27  C   UNL     1      -8.851  16.384  68.077  1.00  0.00    -0.184 A  
ENDBRANCH   4  22
TORSDOF 1
ENDMDL
MODEL      110
REMARK 921   NORMALIZED FREE ENERGY PREDICTED BY IDOCK:    2.18 KCAL/MOL
REMARK 922        TOTAL FREE ENERGY PREDICTED BY IDOCK:    2.49 KCAL/MOL
REMARK 923 INTER-LIGAND FREE ENERGY PREDICTED BY IDOCK:    1.77 KCAL/MOL
REMARK 924 INTRA-LIGAND FREE ENERGY PREDICTED BY IDOCK:    0.72 KCAL/MOL
REMARK 927      BINDING AFFINITY PREDICTED BY RF-SCORE:    0.00 PKD
ROOT
HETATM    1  C   UNL     1      -6.687  15.723  70.839  1.00  0.00     1.244 C  
HETATM    2  C   UNL     1      -5.366  15.877  70.306  1.00  0.00    -0.154 C  
HETATM    3  C   UNL     1      -6.454  15.499  69.354  1.00  0.00    -0.151 C  
HETATM    4  C   UNL     1      -7.977  15.699  69.768  1.00  0.00     0.038 C  
HETATM    5  C   UNL     1      -8.799  11.387  69.566  1.00  0.00     0.746 C  
HETATM    6  C   UNL     1      -7.350  16.837  69.435  1.00  0.00    -0.067 C  
HETATM    7  C   UNL     1      -7.362  18.290  69.821  1.00  0.00     0.539 C  
HETATM    8  C   UNL     1      -7.398  11.691  69.014  1.00  0.00    -0.074 C  
HETATM    9  C   UNL     1      -7.800  16.154  67.768  1.00  0.00    -0.157 C  
HETATM   10  C   UNL     1      -7.275  11.108  67.582  1.00  0.00    -0.094 C  
HETATM   11  C   UNL     1      -7.899  14.287  67.758  1.00  0.00    -0.173 C  
HETATM   12  C   UNL     1      -7.117  13.257  69.009  1.00  0.00    -0.044 C  
HETATM   13  H   UNL     1      -5.351   8.317  66.767  1.00  0.00     0.000 HD 
HETATM   14  C   UNL     1      -6.991  13.835  70.693  1.00  0.00     1.041 C  
HETATM   15  C   UNL     1      -7.394   9.577  67.529  1.00  0.00    -0.090 C  
HETATM   16  C   UNL     1      -5.877  13.033  71.384  1.00  0.00     0.319 C  
HETATM   17  O   UNL     1      -5.150   8.724  67.602  1.00  0.00    -0.033 OA 
HETATM   18  C   UNL     1      -5.747  11.607  70.954  1.00  0.00    -0.013 C  
HETATM   19  C   UNL     1      -6.371  10.990  69.930  1.00  0.00    -0.137 C  
HETATM   20  C   UNL     1      -6.023   9.523  69.723  1.00  0.00    -0.036 C  
HETATM   21  C   UNL     1      -6.348   8.866  68.375  1.00  0.00    -0.055 C  
ENDROOT
BRANCH   4  22
HETATM   22  C   UNL     1      -9.517  15.795  69.766  1.00  0.00    -0.102 A  
HETATM   23  N   UNL     1     -11.599  16.303  68.489  1.00  0.00    -0.285 NA 
HETATM   24  C   UNL     1     -12.329  15.796  69.485  1.00  0.00    -0.060 A  
HETATM   25  C   UNL     1     -11.755  15.340  70.656  1.00  0.00    -0.371 A  
HETATM   26  C   UNL     1     -10.352  15.378  70.802  1.00  0.00     0.188 A  
HETATM   27  C   UNL     1     -10.247  16.292  68.663  1.00  0.00    -0.254 A  
ENDBRANCH   4  22
TORSDOF 1
ENDMDL
MODEL      111
REMARK 921   NORMALIZED FREE ENERGY PREDICTED BY IDOCK:    2.28 KCAL/MOL
REMARK 922        TOTAL FREE ENERGY PREDICTED BY IDOCK:    2.59 KCAL/MOL
REMARK 923 INTER-LIGAND FREE ENERGY PREDICTED BY IDOCK:    2.27 KCAL/MOL
REMARK 924 INTRA-LIGAND FREE ENERGY PREDICTED BY IDOCK:    0.32 KCAL/MOL
REMARK 927      BINDING AFFINITY PREDICTED BY RF-SCORE:    0.00 PKD
ROOT
HETATM    1  C   UNL     1     -11.642  10.974  67.453  1.00  0.00    -0.105 C  
HETATM    2  C   UNL     1     -11.861   9.724  68.120  1.00  0.00     1.335 C  
HETATM    3  C   UNL     1     -10.592  10.453  68.422  1.00  0.00    -0.238 C  
HETATM    4  C   UNL     1     -10.454  11.995  68.053  1.00  0.00    -0.224 C  
HETATM    5  C   UNL     1      -7.191  11.222  65.214  1.00  0.00     0.732 C  
HETATM    6  C   UNL     1     -11.206  11.760  69.140  1.00  0.00    -0.324 C  
HETATM    7  C   UNL     1     -12.413  12.336  69.826  1.00  0.00     0.063 C  
HETATM    8  C   UNL     1      -7.526   9.947  66.004  1.00  0.00    -0.106 C  
HETATM    9  C   UNL     1      -9.491  11.684  69.846  1.00  0.00     1.879 C  
HETATM   10  C   UNL     1      -6.237   9.413  66.679  1.00  0.00    -0.065 C  
HETATM   11  C   UNL     1      -8.221  11.124  68.593  1.00  0.00    -0.152 C  
HETATM   12  C   UNL     1      -8.653  10.233  67.091  1.00  0.00    -0.126 C  
HETATM   13  H   UNL     1      -4.549   6.537  65.663  1.00  0.00     0.000 HD 
HETATM   14  C   UNL     1     -10.195  10.574  66.260  1.00  0.00    -0.296 C  
HETATM   15  C   UNL     1      -5.153   8.981  65.680  1.00  0.00    -0.033 C  
HETATM   16  C   UNL     1     -10.524   9.371  65.363  1.00  0.00     0.973 C  
HETATM   17  O   UNL     1      -5.441   6.620  65.350  1.00  0.00    -0.024 OA 
HETATM   18  C   UNL     1      -9.347   8.688  64.742  1.00  0.00     0.511 C  
HETATM   19  C   UNL     1      -8.040   8.894  64.999  1.00  0.00    -0.137 C  
HETATM   20  C   UNL     1      -7.062   8.030  64.216  1.00  0.00    -0.078 C  
HETATM   21  C   UNL     1      -5.620   7.895  64.721  1.00  0.00    -0.044 C  
ENDROOT
BRANCH   4  22
HETATM   22  C   UNL     1      -9.966  13.452  67.918  1.00  0.00    -0.236 A  
HETATM   23  N   UNL     1      -9.470  15.382  66.416  1.00  0.00    -0.273 NA 
HETATM   24  C   UNL     1      -9.338  16.172  67.484  1.00  0.00    -0.217 A  
HETATM   25  C   UNL     1      -9.435  15.687  68.773  1.00  0.00    -0.214 A  
HETATM   26  C   UNL     1      -9.713  14.319  68.980  1.00  0.00    -0.040 A  
HETATM   27  C   UNL     1      -9.766  14.075  66.665  1.00  0.00    -0.289 A  
ENDBRANCH   4  22
TORSDOF 1
ENDMDL
MODEL      112
REMARK 921   NORMALIZED FREE ENERGY PREDICTED BY IDOCK:    3.46 KCAL/MOL
REMARK 922        TOTAL FREE ENERGY PREDICTED BY IDOCK:    3.84 KCAL/MOL
REMARK 923 INTER-LIGAND FREE ENERGY PREDICTED BY IDOCK:    3.65 KCAL/MOL
REMARK 924 INTRA-LIGAND FREE ENERGY PREDICTED BY IDOCK:    0.18 KCAL/MOL
REMARK 927      BINDING AFFINITY PREDICTED BY RF-SCORE:    0.00 PKD
ROOT
HETATM    1  C   UNL     1     -11.362  13.568  68.986  1.00  0.00    -0.336 C  
HETATM    2  C   UNL     1     -11.832  12.709  70.032  1.00  0.00    -0.358 C  
HETATM    3  C   UNL     1     -10.360  12.950  69.948  1.00  0.00     1.455 C  
HETATM    4  C   UNL     1      -9.803  14.175  69.098  1.00  0.00     0.054 C  
HETATM    5  C   UNL     1      -7.683  11.525  66.307  1.00  0.00     0.070 C  
HETATM    6  C   UNL     1     -10.333  14.528  70.279  1.00  0.00     0.514 C  
HETATM    7  C   UNL     1     -11.101  15.675  70.877  1.00  0.00    -0.377 C  
HETATM    8  C   UNL     1      -8.240  10.719  67.491  1.00  0.00    -0.112 C  
HETATM    9  C   UNL     1      -8.630  13.985  70.780  1.00  0.00     4.240 C  
HETATM   10  C   UNL     1      -7.087   9.923  68.155  1.00  0.00    -0.077 C  
HETATM   11  C   UNL     1      -7.924  12.685  69.636  1.00  0.00     1.392 C  
HETATM   12  C   UNL     1      -8.943  11.677  68.549  1.00  0.00    -0.138 C  
HETATM   13  H   UNL     1      -6.713   6.465  67.919  1.00  0.00     0.000 HD 
HETATM   14  C   UNL     1     -10.426  12.359  67.827  1.00  0.00    -0.231 C  
HETATM   15  C   UNL     1      -6.453   8.872  67.230  1.00  0.00    -0.061 C  
HETATM   16  C   UNL     1     -11.324  11.187  67.398  1.00  0.00    -0.329 C  
HETATM   17  O   UNL     1      -7.573   6.800  67.696  1.00  0.00    -0.101 OA 
HETATM   18  C   UNL     1     -10.605   9.974  66.900  1.00  0.00    -0.261 C  
HETATM   19  C   UNL     1      -9.281   9.723  66.933  1.00  0.00    -0.174 C  
HETATM   20  C   UNL     1      -8.840   8.384  66.360  1.00  0.00    -0.181 C  
HETATM   21  C   UNL     1      -7.451   7.842  66.721  1.00  0.00    -0.090 C  
ENDROOT
BRANCH   4  22
HETATM   22  C   UNL     1      -8.901  15.250  68.457  1.00  0.00    -0.185 A  
HETATM   23  N   UNL     1      -7.628  17.378  68.735  1.00  0.00    -0.258 NA 
HETATM   24  C   UNL     1      -7.055  17.185  67.545  1.00  0.00    -0.154 A  
HETATM   25  C   UNL     1      -7.385  16.116  66.736  1.00  0.00    -0.220 A  
HETATM   26  C   UNL     1      -8.337  15.175  67.185  1.00  0.00    -0.247 A  
HETATM   27  C   UNL     1      -8.518  16.428  69.138  1.00  0.00    -0.181 A  
ENDBRANCH   4  22
TORSDOF 1
ENDMDL
MODEL      113
REMARK 921   NORMALIZED FREE ENERGY PREDICTED BY IDOCK:    5.65 KCAL/MOL
REMARK 922        TOTAL FREE ENERGY PREDICTED BY IDOCK:    6.15 KCAL/MOL
REMARK 923 INTER-LIGAND FREE ENERGY PREDICTED BY IDOCK:    5.96 KCAL/MOL
REMARK 924 INTRA-LIGAND FREE ENERGY PREDICTED BY IDOCK:    0.20 KCAL/MOL
REMARK 927      BINDING AFFINITY PREDICTED BY RF-SCORE:    0.00 PKD
ROOT
HETATM    1  C   UNL     1      -9.835  10.603  70.627  1.00  0.00     1.523 C  
HETATM    2  C   UNL     1     -10.688  11.518  71.327  1.00  0.00     4.289 C  
HETATM    3  C   UNL     1     -11.301  10.699  70.237  1.00  0.00    -0.401 C  
HETATM    4  C   UNL     1     -10.550   9.405  69.697  1.00  0.00    -0.239 C  
HETATM    5  C   UNL     1     -10.103  11.108  65.671  1.00  0.00    -0.304 C  
HETATM    6  C   UNL     1     -11.141   9.233  70.889  1.00  0.00    -0.374 C  
HETATM    7  C   UNL     1     -10.914   8.470  72.165  1.00  0.00    -0.427 C  
HETATM    8  C   UNL     1     -11.009  12.002  66.533  1.00  0.00    -0.337 C  
HETATM    9  C   UNL     1     -12.568   9.000  69.726  1.00  0.00     1.662 C  
HETATM   10  C   UNL     1     -12.359  12.215  65.802  1.00  0.00     0.230 C  
HETATM   11  C   UNL     1     -12.362   9.959  68.133  1.00  0.00     3.297 C  
HETATM   12  C   UNL     1     -11.242  11.357  67.969  1.00  0.00    -0.346 C  
HETATM   13  H   UNL     1     -13.329  15.223  64.330  1.00  0.00     0.000 HD 
HETATM   14  C   UNL     1      -9.708  11.387  68.881  1.00  0.00    -0.105 C  
HETATM   15  C   UNL     1     -12.224  12.964  64.467  1.00  0.00    -0.489 C  
HETATM   16  C   UNL     1      -9.231  12.846  68.955  1.00  0.00     0.304 C  
HETATM   17  O   UNL     1     -12.615  15.283  64.953  1.00  0.00     0.051 OA 
HETATM   18  C   UNL     1      -9.532  13.684  67.753  1.00  0.00    -0.221 C  
HETATM   19  C   UNL     1     -10.304  13.367  66.694  1.00  0.00    -0.269 C  
HETATM   20  C   UNL     1     -10.439  14.438  65.621  1.00  0.00    -0.347 C  
HETATM   21  C   UNL     1     -11.592  14.341  64.614  1.00  0.00    -0.408 C  
ENDROOT
BRANCH   4  22
HETATM   22  C   UNL     1     -10.185   8.093  68.972  1.00  0.00    -0.228 A  
HETATM   23  N   UNL     1      -8.732   6.934  67.307  1.00  0.00    -0.119 NA 
HETATM   24  C   UNL     1      -9.206   5.757  67.720  1.00  0.00    -0.105 A  
HETATM   25  C   UNL     1     -10.193   5.659  68.681  1.00  0.00    -0.263 A  
HETATM   26  C   UNL     1     -10.702   6.834  69.274  1.00  0.00    -0.288 A  
HETATM   27  C   UNL     1      -9.233   8.039  67.929  1.00  0.00    -0.131 A  
ENDBRANCH   4  22
TORSDOF 1
ENDMDL
MODEL      114
REMARK 921   NORMALIZED FREE ENERGY PREDICTED BY IDOCK:    5.86 KCAL/MOL
REMARK 922        TOTAL FREE ENERGY PREDICTED BY IDOCK:    6.38 KCAL/MOL
REMARK 923 INTER-LIGAND FREE ENERGY PREDICTED BY IDOCK:    6.09 KCAL/MOL
REMARK 924 INTRA-LIGAND FREE ENERGY PREDICTED BY IDOCK:    0.29 KCAL/MOL
REMARK 927      BINDING AFFINITY PREDICTED BY RF-SCORE:    0.00 PKD
ROOT
HETATM    1  C   UNL     1     -11.882  11.112  68.356  1.00  0.00    -0.302 C  
HETATM    2  C   UNL     1     -10.641  11.756  68.042  1.00  0.00    -0.235 C  
HETATM    3  C   UNL     1     -10.842  11.296  69.450  1.00  0.00    -0.239 C  
HETATM    4  C   UNL     1     -11.984  10.239  69.784  1.00  0.00    -0.176 C  
HETATM    5  C   UNL     1     -14.139  13.090  72.341  1.00  0.00    -0.305 C  
HETATM    6  C   UNL     1     -10.902   9.704  69.198  1.00  0.00    -0.212 C  
HETATM    7  C   UNL     1     -10.568   8.594  68.240  1.00  0.00    -0.181 C  
HETATM    8  C   UNL     1     -12.774  13.665  71.932  1.00  0.00    -0.325 C  
HETATM    9  C   UNL     1     -10.356   9.809  70.969  1.00  0.00    -0.174 C  
HETATM   10  C   UNL     1     -11.986  14.066  73.206  1.00  0.00     0.880 C  
HETATM   11  C   UNL     1     -11.181  11.209  71.895  1.00  0.00     3.853 C  
HETATM   12  C   UNL     1     -11.950  12.611  71.070  1.00  0.00     0.215 C  
HETATM   13  H   UNL     1     -11.396  17.360  74.181  1.00  0.00     0.000 HD 
HETATM   14  C   UNL     1     -12.753  12.390  69.491  1.00  0.00     0.658 C  
HETATM   15  C   UNL     1     -12.656  15.186  74.016  1.00  0.00    -0.652 C  
HETATM   16  C   UNL     1     -12.849  13.767  68.814  1.00  0.00     1.215 C  
HETATM   17  O   UNL     1     -11.658  17.242  73.276  1.00  0.00     0.080 OA 
HETATM   18  C   UNL     1     -13.070  14.924  69.735  1.00  0.00     0.385 C  
HETATM   19  C   UNL     1     -13.032  14.929  71.083  1.00  0.00    -0.432 C  
HETATM   20  C   UNL     1     -13.283  16.272  71.753  1.00  0.00     0.751 C  
HETATM   21  C   UNL     1     -12.860  16.465  73.215  1.00  0.00    -0.252 C  
ENDROOT
BRANCH   4  22
HETATM   22  C   UNL     1     -12.902   9.216  70.485  1.00  0.00     0.399 A  
HETATM   23  N   UNL     1     -13.638   6.842  70.702  1.00  0.00     0.741 NA 
HETATM   24  C   UNL     1     -14.315   7.158  71.808  1.00  0.00    -0.354 A  
HETATM   25  C   UNL     1     -14.393   8.455  72.275  1.00  0.00    -0.465 A  
HETATM   26  C   UNL     1     -13.714   9.483  71.586  1.00  0.00    -0.365 A  
HETATM   27  C   UNL     1     -12.975   7.862  70.087  1.00  0.00     1.574 A  
ENDBRANCH   4  22
TORSDOF 1
ENDMDL
MODEL      115
REMARK 921   NORMALIZED FREE ENERGY PREDICTED BY IDOCK:    6.66 KCAL/MOL
REMARK 922        TOTAL FREE ENERGY PREDICTED BY IDOCK:    7.23 KCAL/MOL
REMARK 923 INTER-LIGAND FREE ENERGY PREDICTED BY IDOCK:    6.54 KCAL/MOL
REMARK 924 INTRA-LIGAND FREE ENERGY PREDICTED BY IDOCK:    0.69 KCAL/MOL
REMARK 927      BINDING AFFINITY PREDICTED BY RF-SCORE:    0.00 PKD
ROOT
HETATM    1  C   UNL     1     -11.315   8.141  68.792  1.00  0.00     0.684 C  
HETATM    2  C   UNL     1     -11.991   7.957  67.542  1.00  0.00     3.664 C  
HETATM    3  C   UNL     1     -11.075   6.867  67.998  1.00  0.00    -0.179 C  
HETATM    4  C   UNL     1     -10.612   6.803  69.519  1.00  0.00    -0.265 C  
HETATM    5  C   UNL     1      -6.391   7.413  68.461  1.00  0.00    -0.036 C  
HETATM    6  C   UNL     1     -11.872   6.389  69.315  1.00  0.00     0.324 C  
HETATM    7  C   UNL     1     -13.197   6.405  70.027  1.00  0.00     3.534 C  
HETATM    8  C   UNL     1      -7.235   7.197  67.194  1.00  0.00    -0.085 C  
HETATM    9  C   UNL     1     -10.902   4.873  68.863  1.00  0.00     0.769 C  
HETATM   10  C   UNL     1      -6.632   6.029  66.372  1.00  0.00    -0.055 C  
HETATM   11  C   UNL     1      -9.196   5.278  68.212  1.00  0.00    -0.132 C  
HETATM   12  C   UNL     1      -8.752   6.897  67.567  1.00  0.00    -0.120 C  
HETATM   13  H   UNL     1      -4.931   6.436  63.356  1.00  0.00     0.000 HD 
HETATM   14  C   UNL     1      -9.486   8.369  68.260  1.00  0.00    -0.147 C  
HETATM   15  C   UNL     1      -5.212   6.309  65.855  1.00  0.00    -0.013 C  
HETATM   16  C   UNL     1      -9.339   9.500  67.231  1.00  0.00    -0.161 C  
HETATM   17  O   UNL     1      -5.464   7.173  63.629  1.00  0.00    -0.032 OA 
HETATM   18  C   UNL     1      -8.087   9.469  66.413  1.00  0.00    -0.111 C  
HETATM   19  C   UNL     1      -7.160   8.492  66.355  1.00  0.00    -0.079 C  
HETATM   20  C   UNL     1      -5.991   8.736  65.412  1.00  0.00    -0.048 C  
HETATM   21  C   UNL     1      -5.130   7.545  64.971  1.00  0.00    -0.029 C  
ENDROOT
BRANCH   4  22
HETATM   22  C   UNL     1     -10.009   6.370  70.871  1.00  0.00    -0.211 A  
HETATM   23  N   UNL     1      -9.445   4.507  72.432  1.00  0.00    -0.132 NA 
HETATM   24  C   UNL     1      -8.734   5.354  73.178  1.00  0.00    -0.120 A  
HETATM   25  C   UNL     1      -8.661   6.702  72.891  1.00  0.00    -0.129 A  
HETATM   26  C   UNL     1      -9.333   7.207  71.757  1.00  0.00    -0.155 A  
HETATM   27  C   UNL     1     -10.052   5.034  71.331  1.00  0.00    -0.199 A  
ENDBRANCH   4  22
TORSDOF 1
ENDMDL
MODEL      116
REMARK 921   NORMALIZED FREE ENERGY PREDICTED BY IDOCK:    7.05 KCAL/MOL
REMARK 922        TOTAL FREE ENERGY PREDICTED BY IDOCK:    7.64 KCAL/MOL
REMARK 923 INTER-LIGAND FREE ENERGY PREDICTED BY IDOCK:    7.18 KCAL/MOL
REMARK 924 INTRA-LIGAND FREE ENERGY PREDICTED BY IDOCK:    0.46 KCAL/MOL
REMARK 927      BINDING AFFINITY PREDICTED BY RF-SCORE:    0.00 PKD
ROOT
HETATM    1  C   UNL     1      -7.223  16.323  69.302  1.00  0.00    -0.221 C  
HETATM    2  C   UNL     1      -5.840  16.230  68.938  1.00  0.00    -0.123 C  
HETATM    3  C   UNL     1      -6.847  16.193  67.834  1.00  0.00    -0.153 C  
HETATM    4  C   UNL     1      -8.336  16.686  68.101  1.00  0.00    -0.193 C  
HETATM    5  C   UNL     1     -10.005  12.703  67.292  1.00  0.00    -0.212 C  
HETATM    6  C   UNL     1      -7.446  17.683  67.977  1.00  0.00    -0.223 C  
HETATM    7  C   UNL     1      -7.206  19.060  68.532  1.00  0.00    -0.334 C  
HETATM    8  C   UNL     1      -8.510  12.739  66.937  1.00  0.00    -0.106 C  
HETATM    9  C   UNL     1      -7.804  17.277  66.201  1.00  0.00    -0.305 C  
HETATM   10  C   UNL     1      -8.323  12.280  65.468  1.00  0.00     1.243 C  
HETATM   11  C   UNL     1      -8.288  15.487  65.956  1.00  0.00     0.477 C  
HETATM   12  C   UNL     1      -7.911  14.197  67.152  1.00  0.00    -0.063 C  
HETATM   13  H   UNL     1      -6.932   9.221  64.539  1.00  0.00     0.000 HD 
HETATM   14  C   UNL     1      -7.891  14.572  68.897  1.00  0.00    -0.134 C  
HETATM   15  C   UNL     1      -8.750  10.825  65.219  1.00  0.00    -0.183 C  
HETATM   16  C   UNL     1      -7.071  13.482  69.604  1.00  0.00     0.279 C  
HETATM   17  O   UNL     1      -6.764   9.493  65.433  1.00  0.00    -0.076 OA 
HETATM   18  C   UNL     1      -7.186  12.109  69.023  1.00  0.00    -0.037 C  
HETATM   19  C   UNL     1      -7.783  11.744  67.870  1.00  0.00    -0.125 C  
HETATM   20  C   UNL     1      -7.725  10.263  67.527  1.00  0.00    -0.094 C  
HETATM   21  C   UNL     1      -7.997   9.823  66.082  1.00  0.00    -0.110 C  
ENDROOT
BRANCH   4  22
HETATM   22  C   UNL     1      -9.808  17.122  67.942  1.00  0.00    -0.283 A  
HETATM   23  N   UNL     1     -11.563  18.835  68.396  1.00  0.00     1.697 NA 
HETATM   24  C   UNL     1     -12.386  18.209  67.552  1.00  0.00     4.266 A  
HETATM   25  C   UNL     1     -12.036  17.029  66.926  1.00  0.00     2.732 A  
HETATM   26  C   UNL     1     -10.759  16.473  67.156  1.00  0.00    -0.220 A  
HETATM   27  C   UNL     1     -10.331  18.277  68.564  1.00  0.00    -0.317 A  
ENDBRANCH   4  22
TORSDOF 1
ENDMDL
MODEL      117
REMARK 921   NORMALIZED FREE ENERGY PREDICTED BY IDOCK:    8.15 KCAL/MOL
REMARK 922        TOTAL FREE ENERGY PREDICTED BY IDOCK:    8.80 KCAL/MOL
REMARK 923 INTER-LIGAND FREE ENERGY PREDICTED BY IDOCK:    8.62 KCAL/MOL
REMARK 924 INTRA-LIGAND FREE ENERGY PREDICTED BY IDOCK:    0.17 KCAL/MOL
REMARK 927      BINDING AFFINITY PREDICTED BY RF-SCORE:    0.00 PKD
ROOT
HETATM    1  C   UNL     1      -9.066  16.633  68.458  1.00  0.00    -0.234 C  
HETATM    2  C   UNL     1      -7.693  17.033  68.545  1.00  0.00    -0.238 C  
HETATM    3  C   UNL     1      -8.064  16.070  67.464  1.00  0.00    -0.167 C  
HETATM    4  C   UNL     1      -9.589  15.891  67.048  1.00  0.00    -0.232 C  
HETATM    5  C   UNL     1      -9.637  11.680  68.300  1.00  0.00    -0.198 C  
HETATM    6  C   UNL     1      -9.028  17.020  66.587  1.00  0.00    -0.280 C  
HETATM    7  C   UNL     1      -9.422  18.441  66.293  1.00  0.00    -0.246 C  
HETATM    8  C   UNL     1      -8.205  12.235  68.346  1.00  0.00    -0.146 C  
HETATM    9  C   UNL     1      -8.449  15.775  65.338  1.00  0.00     2.063 C  
HETATM   10  C   UNL     1      -7.279  11.330  67.494  1.00  0.00    -0.100 C  
HETATM   11  C   UNL     1      -8.294  14.054  66.055  1.00  0.00     1.452 C  
HETATM   12  C   UNL     1      -8.161  13.737  67.820  1.00  0.00    -0.174 C  
HETATM   13  H   UNL     1      -4.882   9.179  68.830  1.00  0.00     0.000 HD 
HETATM   14  C   UNL     1      -9.009  14.790  68.985  1.00  0.00    -0.135 C  
HETATM   15  C   UNL     1      -7.160   9.895  68.029  1.00  0.00    -0.082 C  
HETATM   16  C   UNL     1      -8.334  14.619  70.355  1.00  0.00     1.439 C  
HETATM   17  O   UNL     1      -5.201   9.853  69.418  1.00  0.00    -0.035 OA 
HETATM   18  C   UNL     1      -7.820  13.247  70.654  1.00  0.00     4.384 C  
HETATM   19  C   UNL     1      -7.732  12.194  69.816  1.00  0.00     1.237 C  
HETATM   20  C   UNL     1      -7.148  10.919  70.405  1.00  0.00     0.571 C  
HETATM   21  C   UNL     1      -6.633   9.829  69.456  1.00  0.00    -0.051 C  
ENDROOT
BRANCH   4  22
HETATM   22  C   UNL     1     -10.898  15.492  66.334  1.00  0.00    -0.277 A  
HETATM   23  N   UNL     1     -12.532  15.955  64.507  1.00  0.00    -0.008 NA 
HETATM   24  C   UNL     1     -13.125  14.783  64.747  1.00  0.00     0.710 A  
HETATM   25  C   UNL     1     -12.723  13.955  65.776  1.00  0.00    -0.503 A  
HETATM   26  C   UNL     1     -11.633  14.335  66.587  1.00  0.00    -0.397 A  
HETATM   27  C   UNL     1     -11.466  16.266  65.297  1.00  0.00     0.271 A  
ENDBRANCH   4  22
TORSDOF 1
ENDMDL
MODEL      118
REMARK 921   NORMALIZED FREE ENERGY PREDICTED BY IDOCK:    8.24 KCAL/MOL
REMARK 922        TOTAL FREE ENERGY PREDICTED BY IDOCK:    8.90 KCAL/MOL
REMARK 923 INTER-LIGAND FREE ENERGY PREDICTED BY IDOCK:    8.08 KCAL/MOL
REMARK 924 INTRA-LIGAND FREE ENERGY PREDICTED BY IDOCK:    0.82 KCAL/MOL
REMARK 927      BINDING AFFINITY PREDICTED BY RF-SCORE:    0.00 PKD
ROOT
HETATM    1  C   UNL     1     -10.734  17.184  68.239  1.00  0.00    -0.363 C  
HETATM    2  C   UNL     1     -10.493  17.481  66.857  1.00  0.00    -0.285 C  
HETATM    3  C   UNL     1     -10.917  16.089  67.200  1.00  0.00    -0.183 C  
HETATM    4  C   UNL     1     -11.581  15.785  68.614  1.00  0.00    -0.392 C  
HETATM    5  C   UNL     1      -8.293  13.124  69.803  1.00  0.00     2.023 C  
HETATM    6  C   UNL     1     -12.403  16.394  67.746  1.00  0.00     1.717 C  
HETATM    7  C   UNL     1     -13.529  17.391  67.763  1.00  0.00     8.039 C  
HETATM    8  C   UNL     1      -8.153  13.519  68.324  1.00  0.00    -0.155 C  
HETATM    9  C   UNL     1     -12.531  14.623  67.205  1.00  0.00     0.304 C  
HETATM   10  C   UNL     1      -8.058  12.235  67.459  1.00  0.00    -0.170 C  
HETATM   11  C   UNL     1     -10.977  13.646  67.565  1.00  0.00    -0.282 C  
HETATM   12  C   UNL     1      -9.380  14.420  67.859  1.00  0.00    -0.203 C  
HETATM   13  H   UNL     1      -5.140  11.150  65.890  1.00  0.00     0.000 HD 
HETATM   14  C   UNL     1      -9.289  16.002  68.680  1.00  0.00    -0.214 C  
HETATM   15  C   UNL     1      -6.813  11.385  67.757  1.00  0.00    -0.075 C  
HETATM   16  C   UNL     1      -7.928  16.631  68.344  1.00  0.00    -0.205 C  
HETATM   17  O   UNL     1      -5.142  12.057  66.170  1.00  0.00    -0.267 OA 
HETATM   18  C   UNL     1      -6.790  15.670  68.204  1.00  0.00    -0.130 C  
HETATM   19  C   UNL     1      -6.843  14.323  68.175  1.00  0.00    -0.126 C  
HETATM   20  C   UNL     1      -5.511  13.606  68.004  1.00  0.00    -0.116 C  
HETATM   21  C   UNL     1      -5.508  12.140  67.552  1.00  0.00    -0.111 C  
ENDROOT
BRANCH   4  22
HETATM   22  C   UNL     1     -12.295  15.117  69.807  1.00  0.00    -0.278 A  
HETATM   23  N   UNL     1     -13.179  15.335  72.130  1.00  0.00    -0.361 NA 
HETATM   24  C   UNL     1     -13.795  14.158  72.000  1.00  0.00    -0.485 A  
HETATM   25  C   UNL     1     -13.666  13.383  70.865  1.00  0.00     0.555 A  
HETATM   26  C   UNL     1     -12.883  13.853  69.789  1.00  0.00     0.263 A  
HETATM   27  C   UNL     1     -12.459  15.762  71.054  1.00  0.00    -0.420 A  
ENDBRANCH   4  22
TORSDOF 1
ENDMDL
MODEL      119
REMARK 921   NORMALIZED FREE ENERGY PREDICTED BY IDOCK:   12.01 KCAL/MOL
REMARK 922        TOTAL FREE ENERGY PREDICTED BY IDOCK:   12.89 KCAL/MOL
REMARK 923 INTER-LIGAND FREE ENERGY PREDICTED BY IDOCK:   12.32 KCAL/MOL
REMARK 924 INTRA-LIGAND FREE ENERGY PREDICTED BY IDOCK:    0.57 KCAL/MOL
REMARK 927      BINDING AFFINITY PREDICTED BY RF-SCORE:    0.00 PKD
ROOT
HETATM    1  C   UNL     1     -10.760   7.849  67.488  1.00  0.00    -0.252 C  
HETATM    2  C   UNL     1      -9.898   7.998  66.353  1.00  0.00    -0.237 C  
HETATM    3  C   UNL     1      -9.265   7.631  67.656  1.00  0.00    -0.144 C  
HETATM    4  C   UNL     1     -10.160   7.061  68.842  1.00  0.00    -0.174 C  
HETATM    5  C   UNL     1      -9.234  10.478  71.443  1.00  0.00     4.602 C  
HETATM    6  C   UNL     1      -9.922   6.173  67.864  1.00  0.00    -0.149 C  
HETATM    7  C   UNL     1     -10.617   5.026  67.184  1.00  0.00    -0.112 C  
HETATM    8  C   UNL     1      -8.364  10.519  70.176  1.00  0.00     0.574 C  
HETATM    9  C   UNL     1      -8.364   6.056  68.866  1.00  0.00    -0.107 C  
HETATM   10  C   UNL     1      -6.870  10.594  70.585  1.00  0.00     0.388 C  
HETATM   11  C   UNL     1      -7.955   7.652  69.751  1.00  0.00    -0.116 C  
HETATM   12  C   UNL     1      -8.634   9.245  69.262  1.00  0.00    -0.139 C  
HETATM   13  H   UNL     1      -4.887  13.437  70.222  1.00  0.00     0.000 HD 
HETATM   14  C   UNL     1     -10.284   9.346  68.588  1.00  0.00    -0.222 C  
HETATM   15  C   UNL     1      -6.506  11.874  71.352  1.00  0.00     2.534 C  
HETATM   16  C   UNL     1     -10.397  10.669  67.814  1.00  0.00    -0.239 C  
HETATM   17  O   UNL     1      -5.689  13.430  69.715  1.00  0.00    -0.097 OA 
HETATM   18  C   UNL     1      -9.632  11.819  68.387  1.00  0.00    -0.191 C  
HETATM   19  C   UNL     1      -8.735  11.798  69.394  1.00  0.00     0.821 C  
HETATM   20  C   UNL     1      -8.099  13.134  69.750  1.00  0.00     1.751 C  
HETATM   21  C   UNL     1      -6.803  13.146  70.569  1.00  0.00     1.251 C  
ENDROOT
BRANCH   4  22
HETATM   22  C   UNL     1     -10.653   6.436  70.164  1.00  0.00    -0.294 A  
HETATM   23  N   UNL     1     -10.591   6.453  72.658  1.00  0.00    -0.214 NA 
HETATM   24  C   UNL     1     -11.617   5.600  72.684  1.00  0.00    -0.251 A  
HETATM   25  C   UNL     1     -12.165   5.076  71.531  1.00  0.00     2.533 A  
HETATM   26  C   UNL     1     -11.652   5.471  70.277  1.00  0.00     0.988 A  
HETATM   27  C   UNL     1     -10.149   6.829  71.425  1.00  0.00    -0.182 A  
ENDBRANCH   4  22
TORSDOF 1
ENDMDL
MODEL      120
REMARK 921   NORMALIZED FREE ENERGY PREDICTED BY IDOCK:   18.04 KCAL/MOL
REMARK 922        TOTAL FREE ENERGY PREDICTED BY IDOCK:   19.27 KCAL/MOL
REMARK 923 INTER-LIGAND FREE ENERGY PREDICTED BY IDOCK:   18.48 KCAL/MOL
REMARK 924 INTRA-LIGAND FREE ENERGY PREDICTED BY IDOCK:    0.79 KCAL/MOL
REMARK 927      BINDING AFFINITY PREDICTED BY RF-SCORE:    0.00 PKD
ROOT
HETATM    1  C   UNL     1     -10.927   7.250  67.790  1.00  0.00    -0.141 C  
HETATM    2  C   UNL     1     -10.308   8.461  67.337  1.00  0.00    -0.355 C  
HETATM    3  C   UNL     1      -9.418   7.398  67.895  1.00  0.00    -0.150 C  
HETATM    4  C   UNL     1      -9.954   5.907  68.040  1.00  0.00    -0.161 C  
HETATM    5  C   UNL     1      -9.551   5.985  72.415  1.00  0.00    -0.162 C  
HETATM    6  C   UNL     1      -9.646   6.254  66.782  1.00  0.00    -0.183 C  
HETATM    7  C   UNL     1     -10.120   5.973  65.382  1.00  0.00     1.002 C  
HETATM    8  C   UNL     1      -8.917   7.241  71.797  1.00  0.00    -0.136 C  
HETATM    9  C   UNL     1      -7.978   5.816  67.470  1.00  0.00    -0.102 C  
HETATM   10  C   UNL     1      -7.447   7.360  72.277  1.00  0.00    -0.078 C  
HETATM   11  C   UNL     1      -7.862   6.106  69.314  1.00  0.00    -0.104 C  
HETATM   12  C   UNL     1      -8.987   7.189  70.208  1.00  0.00    -0.152 C  
HETATM   13  H   UNL     1      -6.325   9.745  74.558  1.00  0.00     0.000 HD 
HETATM   14  C   UNL     1     -10.689   7.334  69.692  1.00  0.00    -0.249 C  
HETATM   15  C   UNL     1      -7.310   7.557  73.795  1.00  0.00    -0.121 C  
HETATM   16  C   UNL     1     -11.247   8.645  70.269  1.00  0.00    -0.196 C  
HETATM   17  O   UNL     1      -7.165   9.927  74.155  1.00  0.00     1.018 OA 
HETATM   18  C   UNL     1     -10.722   9.031  71.615  1.00  0.00    -0.441 C  
HETATM   19  C   UNL     1      -9.711   8.465  72.304  1.00  0.00    -0.386 C  
HETATM   20  C   UNL     1      -9.389   9.090  73.654  1.00  0.00     2.280 C  
HETATM   21  C   UNL     1      -8.032   8.797  74.305  1.00  0.00     0.251 C  
ENDROOT
BRANCH   4  22
HETATM   22  C   UNL     1     -10.072   4.386  68.273  1.00  0.00     0.021 A  
HETATM   23  N   UNL     1     -11.423   2.307  68.000  1.00  0.00     9.388 NA 
HETATM   24  C   UNL     1     -10.371   1.579  68.382  1.00  0.00     1.511 A  
HETATM   25  C   UNL     1      -9.183   2.159  68.779  1.00  0.00    -0.221 A  
HETATM   26  C   UNL     1      -9.055   3.565  68.757  1.00  0.00    -0.204 A  
HETATM   27  C   UNL     1     -11.243   3.658  67.966  1.00  0.00     6.548 A  
ENDBRANCH   4  22
TORSDOF 1
ENDMDL
MODEL      121
REMARK 921   NORMALIZED FREE ENERGY PREDICTED BY IDOCK:   26.13 KCAL/MOL
REMARK 922        TOTAL FREE ENERGY PREDICTED BY IDOCK:   27.83 KCAL/MOL
REMARK 923 INTER-LIGAND FREE ENERGY PREDICTED BY IDOCK:   27.54 KCAL/MOL
REMARK 924 INTRA-LIGAND FREE ENERGY PREDICTED BY IDOCK:    0.29 KCAL/MOL
REMARK 927      BINDING AFFINITY PREDICTED BY RF-SCORE:    0.00 PKD
ROOT
HETATM    1  C   UNL     1      -6.991  13.750  69.197  1.00  0.00    -0.082 C  
HETATM    2  C   UNL     1      -8.010  14.753  69.295  1.00  0.00    -0.103 C  
HETATM    3  C   UNL     1      -8.416  13.333  69.525  1.00  0.00     1.323 C  
HETATM    4  C   UNL     1      -7.310  12.231  69.831  1.00  0.00     1.042 C  
HETATM    5  C   UNL     1      -8.253   9.991  66.170  1.00  0.00    -0.121 C  
HETATM    6  C   UNL     1      -7.578  13.036  70.870  1.00  0.00     5.136 C  
HETATM    7  C   UNL     1      -6.858  13.657  72.036  1.00  0.00     3.496 C  
HETATM    8  C   UNL     1      -9.285  11.108  66.395  1.00  0.00    -0.199 C  
HETATM    9  C   UNL     1      -8.964  11.806  70.983  1.00  0.00     9.235 C  
HETATM   10  C   UNL     1     -10.708  10.494  66.399  1.00  0.00    -0.166 C  
HETATM   11  C   UNL     1      -9.424  11.087  69.318  1.00  0.00     0.020 C  
HETATM   12  C   UNL     1      -9.000  11.877  67.759  1.00  0.00    -0.173 C  
HETATM   13  H   UNL     1     -13.028  10.925  63.833  1.00  0.00     0.000 HD 
HETATM   14  C   UNL     1      -7.479  12.797  67.606  1.00  0.00    -0.144 C  
HETATM   15  C   UNL     1     -11.106   9.856  65.059  1.00  0.00     2.428 C  
HETATM   16  C   UNL     1      -7.620  13.746  66.406  1.00  0.00     1.847 C  
HETATM   17  O   UNL     1     -12.306  11.542  63.840  1.00  0.00    -0.195 OA 
HETATM   18  C   UNL     1      -8.424  13.222  65.260  1.00  0.00     2.871 C  
HETATM   19  C   UNL     1      -9.168  12.098  65.215  1.00  0.00     0.221 C  
HETATM   20  C   UNL     1      -9.895  11.829  63.906  1.00  0.00    -0.298 C  
HETATM   21  C   UNL     1     -11.062  10.834  63.893  1.00  0.00     0.618 C  
ENDROOT
BRANCH   4  22
HETATM   22  C   UNL     1      -6.577  10.926  70.208  1.00  0.00    -0.065 A  
HETATM   23  N   UNL     1      -6.161   9.156  71.916  1.00  0.00    -0.176 NA 
HETATM   24  C   UNL     1      -5.526   8.425  70.997  1.00  0.00    -0.032 A  
HETATM   25  C   UNL     1      -5.319   8.882  69.711  1.00  0.00    -0.029 A  
HETATM   26  C   UNL     1      -5.815  10.150  69.336  1.00  0.00    -0.037 A  
HETATM   27  C   UNL     1      -6.647  10.359  71.501  1.00  0.00     1.126 A  
ENDBRANCH   4  22
TORSDOF 1
ENDMDL
MODEL      122
REMARK 921   NORMALIZED FREE ENERGY PREDICTED BY IDOCK:   26.81 KCAL/MOL
REMARK 922        TOTAL FREE ENERGY PREDICTED BY IDOCK:   28.56 KCAL/MOL
REMARK 923 INTER-LIGAND FREE ENERGY PREDICTED BY IDOCK:   27.94 KCAL/MOL
REMARK 924 INTRA-LIGAND FREE ENERGY PREDICTED BY IDOCK:    0.62 KCAL/MOL
REMARK 927      BINDING AFFINITY PREDICTED BY RF-SCORE:    0.00 PKD
ROOT
HETATM    1  C   UNL     1     -10.946   7.917  67.568  1.00  0.00    -0.005 C  
HETATM    2  C   UNL     1     -10.426   7.637  66.262  1.00  0.00     0.494 C  
HETATM    3  C   UNL     1      -9.710   8.659  67.085  1.00  0.00    -0.248 C  
HETATM    4  C   UNL     1      -9.965   8.737  68.653  1.00  0.00    -0.197 C  
HETATM    5  C   UNL     1     -11.636  12.791  68.375  1.00  0.00    -0.365 C  
HETATM    6  C   UNL     1      -9.184   7.712  68.279  1.00  0.00    -0.139 C  
HETATM    7  C   UNL     1      -8.901   6.295  68.694  1.00  0.00    -0.119 C  
HETATM    8  C   UNL     1     -11.036  12.366  67.025  1.00  0.00    -0.327 C  
HETATM    9  C   UNL     1      -7.970   9.115  68.317  1.00  0.00    -0.103 C  
HETATM   10  C   UNL     1     -10.002  13.427  66.569  1.00  0.00    -0.286 C  
HETATM   11  C   UNL     1      -8.769  10.768  67.960  1.00  0.00    -0.132 C  
HETATM   12  C   UNL     1     -10.358  10.930  67.133  1.00  0.00    -0.262 C  
HETATM   13  H   UNL     1     -10.519  15.652  63.935  1.00  0.00     0.000 HD 
HETATM   14  C   UNL     1     -11.627   9.701  67.384  1.00  0.00     1.465 C  
HETATM   15  C   UNL     1     -10.616  14.811  66.307  1.00  0.00    -0.306 C  
HETATM   16  C   UNL     1     -12.621   9.803  66.216  1.00  0.00    10.566 C  
HETATM   17  O   UNL     1     -11.098  14.900  63.956  1.00  0.00     0.152 OA 
HETATM   18  C   UNL     1     -12.855  11.182  65.688  1.00  0.00     5.049 C  
HETATM   19  C   UNL     1     -12.187  12.312  65.997  1.00  0.00    -0.050 C  
HETATM   20  C   UNL     1     -12.644  13.575  65.281  1.00  0.00    -0.517 C  
HETATM   21  C   UNL     1     -11.709  14.790  65.247  1.00  0.00    -0.311 C  
ENDROOT
BRANCH   4  22
HETATM   22  C   UNL     1      -9.889   9.081  70.156  1.00  0.00    -0.213 A  
HETATM   23  N   UNL     1      -9.774  10.847  71.914  1.00  0.00     7.291 NA 
HETATM   24  C   UNL     1      -9.996   9.922  72.850  1.00  0.00     5.990 A  
HETATM   25  C   UNL     1     -10.107   8.581  72.545  1.00  0.00    -0.320 A  
HETATM   26  C   UNL     1     -10.016   8.165  71.199  1.00  0.00    -0.218 A  
HETATM   27  C   UNL     1      -9.722  10.403  70.626  1.00  0.00     1.050 A  
ENDBRANCH   4  22
TORSDOF 1
ENDMDL
MODEL      123
REMARK 921   NORMALIZED FREE ENERGY PREDICTED BY IDOCK:   62.73 KCAL/MOL
REMARK 922        TOTAL FREE ENERGY PREDICTED BY IDOCK:   66.57 KCAL/MOL
REMARK 923 INTER-LIGAND FREE ENERGY PREDICTED BY IDOCK:   65.81 KCAL/MOL
REMARK 924 INTRA-LIGAND FREE ENERGY PREDICTED BY IDOCK:    0.77 KCAL/MOL
REMARK 927      BINDING AFFINITY PREDICTED BY RF-SCORE:    0.00 PKD
ROOT
HETATM    1  C   UNL     1      -9.450   7.311  71.821  1.00  0.00    -0.162 C  
HETATM    2  C   UNL     1      -9.191   8.538  72.514  1.00  0.00    -0.303 C  
HETATM    3  C   UNL     1     -10.606   8.249  72.129  1.00  0.00    -0.380 C  
HETATM    4  C   UNL     1     -11.034   6.769  71.731  1.00  0.00    -0.266 C  
HETATM    5  C   UNL     1     -12.084   7.967  67.636  1.00  0.00     4.477 C  
HETATM    6  C   UNL     1     -10.869   6.952  73.050  1.00  0.00    -0.328 C  
HETATM    7  C   UNL     1     -10.398   6.176  74.249  1.00  0.00    -0.291 C  
HETATM    8  C   UNL     1     -11.783   9.206  68.495  1.00  0.00     1.265 C  
HETATM    9  C   UNL     1     -12.584   7.614  72.792  1.00  0.00     0.337 C  
HETATM   10  C   UNL     1     -12.989  10.178  68.429  1.00  0.00     5.061 C  
HETATM   11  C   UNL     1     -12.838   8.303  71.072  1.00  0.00     0.013 C  
HETATM   12  C   UNL     1     -11.477   8.791  70.001  1.00  0.00     0.047 C  
HETATM   13  H   UNL     1     -12.956  13.215  66.717  1.00  0.00     0.000 HD 
HETATM   14  C   UNL     1      -9.929   7.906  70.061  1.00  0.00    -0.191 C  
HETATM   15  C   UNL     1     -13.254  10.733  67.021  1.00  0.00    10.434 C  
HETATM   16  C   UNL     1      -8.843   8.814  69.462  1.00  0.00    -0.144 C  
HETATM   17  O   UNL     1     -12.104  12.837  66.898  1.00  0.00    -0.444 OA 
HETATM   18  C   UNL     1      -9.286   9.692  68.336  1.00  0.00    -0.136 C  
HETATM   19  C   UNL     1     -10.542   9.903  67.894  1.00  0.00    -0.303 C  
HETATM   20  C   UNL     1     -10.688  10.872  66.730  1.00  0.00    -0.309 C  
HETATM   21  C   UNL     1     -12.064  11.482  66.438  1.00  0.00     1.011 C  
ENDROOT
BRANCH   4  22
HETATM   22  C   UNL     1     -11.835   5.504  71.358  1.00  0.00     0.666 A  
HETATM   23  N   UNL     1     -11.894   3.015  71.196  1.00  0.00     6.526 NA 
HETATM   24  C   UNL     1     -13.208   3.066  70.966  1.00  0.00    17.620 A  
HETATM   25  C   UNL     1     -13.887   4.263  70.854  1.00  0.00    15.351 A  
HETATM   26  C   UNL     1     -13.185   5.477  71.014  1.00  0.00     4.421 A  
HETATM   27  C   UNL     1     -11.264   4.211  71.373  1.00  0.00     1.833 A  
ENDBRANCH   4  22
TORSDOF 1
ENDMDL
