MODEL        1
REMARK 921   NORMALIZED FREE ENERGY PREDICTED BY IDOCK:   -8.55 KCAL/MOL
REMARK 922        TOTAL FREE ENERGY PREDICTED BY IDOCK:  -10.53 KCAL/MOL
REMARK 923 INTER-LIGAND FREE ENERGY PREDICTED BY IDOCK:  -11.05 KCAL/MOL
REMARK 924 INTRA-LIGAND FREE ENERGY PREDICTED BY IDOCK:    0.52 KCAL/MOL
REMARK 927      BINDING AFFINITY PREDICTED BY RF-SCORE:    0.00 PKD
ROOT
HETATM    1  C   UNL     1      -5.151  16.091  69.632  1.00  0.00    -0.114 C  
HETATM    2  C   UNL     1      -5.986  16.721  68.530  1.00  0.00    -0.131 C  
HETATM    3  C   UNL     1      -6.703  17.262  67.585  1.00  0.00    -0.166 C  
ENDROOT
BRANCH   3   4
HETATM    4  C   UNL     1      -7.567  17.850  66.577  1.00  0.00    -0.250 C  
HETATM    5  O   UNL     1      -7.076  18.103  65.484  1.00  0.00    -0.522 OA 
HETATM    6  N   UNL     1      -8.866  18.177  66.918  1.00  0.00    -0.259 N  
HETATM    7  C   UNL     1      -9.665  19.058  66.089  1.00  0.00    -0.296 C  
HETATM    8  C   UNL     1     -10.401  19.911  67.107  1.00  0.00    -0.581 C  
HETATM    9  C   UNL     1     -10.599  18.999  68.318  1.00  0.00    -0.239 C  
HETATM   10  C   UNL     1      -9.582  17.853  68.147  1.00  0.00    -0.306 C  
BRANCH  10  11
HETATM   11  C   UNL     1     -10.320  16.538  68.004  1.00  0.00    -0.294 A  
HETATM   12  N   UNL     1     -10.507  15.628  68.951  1.00  0.00    -0.212 NA 
HETATM   13  C   UNL     1     -11.104  14.533  68.346  1.00  0.00    -0.256 A  
HETATM   14  N   UNL     1     -12.705  13.004  65.967  1.00  0.00    -0.309 NA 
HETATM   15  C   UNL     1     -11.348  14.818  67.013  1.00  0.00    -0.353 A  
HETATM   16  C   UNL     1     -11.976  14.155  65.887  1.00  0.00    -0.409 A  
HETATM   17  N   UNL     1     -10.780  16.060  66.794  1.00  0.00    -0.298 NA 
HETATM   18  H2  UNL     1     -12.815  12.578  66.888  1.00  0.00     0.000 HD 
HETATM   19  C   UNL     1     -10.726  16.588  65.513  1.00  0.00    -0.256 A  
HETATM   20  C   UNL     1     -11.261  15.879  64.511  1.00  0.00    -0.312 A  
HETATM   21  N   UNL     1     -11.907  14.677  64.683  1.00  0.00    -0.441 NA 
HETATM   22  H1  UNL     1     -13.146  12.537  65.175  1.00  0.00     0.000 HD 
BRANCH  13  23
HETATM   23  C   UNL     1     -11.403  13.309  69.097  1.00  0.00    -0.336 A  
HETATM   24  C   UNL     1     -11.857  10.919  70.563  1.00  0.00    -0.457 A  
HETATM   25  C   UNL     1     -11.096  10.899  69.387  1.00  0.00    -0.317 A  
HETATM   26  C   UNL     1     -12.226  13.298  70.236  1.00  0.00    -0.391 A  
HETATM   27  C   UNL     1     -10.878  12.085  68.662  1.00  0.00    -0.273 A  
HETATM   28  C   UNL     1     -12.431  12.121  70.979  1.00  0.00    -0.369 A  
BRANCH  24  29
HETATM   29  C   UNL     1     -11.985   9.669  71.371  1.00  0.00    -0.399 C  
HETATM   30  H   UNL     1     -10.189   8.966  70.599  1.00  0.00     0.000 HD 
HETATM   31  O   UNL     1     -12.966   9.533  72.090  1.00  0.00    -0.396 OA 
HETATM   32  N   UNL     1     -10.923   8.787  71.285  1.00  0.00    -0.254 N  
BRANCH  32  33
HETATM   33  C   UNL     1     -10.821   7.656  72.106  1.00  0.00    -0.247 A  
HETATM   34  C   UNL     1     -11.420   6.443  71.781  1.00  0.00    -0.349 A  
HETATM   35  C   UNL     1     -11.328   5.386  72.686  1.00  0.00    -0.327 A  
HETATM   36  C   UNL     1     -10.674   5.585  73.895  1.00  0.00    -0.261 A  
HETATM   37  C   UNL     1     -10.082   6.818  74.119  1.00  0.00    -0.350 A  
HETATM   38  N   UNL     1     -10.101   7.839  73.231  1.00  0.00    -0.323 NA 
ENDBRANCH  32  33
ENDBRANCH  24  29
ENDBRANCH  13  23
ENDBRANCH  10  11
ENDBRANCH   3   4
TORSDOF 5
ENDMDL
MODEL        2
REMARK 921   NORMALIZED FREE ENERGY PREDICTED BY IDOCK:   -8.36 KCAL/MOL
REMARK 922        TOTAL FREE ENERGY PREDICTED BY IDOCK:  -10.28 KCAL/MOL
REMARK 923 INTER-LIGAND FREE ENERGY PREDICTED BY IDOCK:   -8.99 KCAL/MOL
REMARK 924 INTRA-LIGAND FREE ENERGY PREDICTED BY IDOCK:   -1.29 KCAL/MOL
REMARK 927      BINDING AFFINITY PREDICTED BY RF-SCORE:    0.00 PKD
ROOT
HETATM    1  C   UNL     1     -10.975  20.462  65.051  1.00  0.00     0.693 C  
HETATM    2  C   UNL     1     -10.222  19.918  66.254  1.00  0.00    -0.614 C  
HETATM    3  C   UNL     1      -9.576  19.451  67.286  1.00  0.00    -0.415 C  
ENDROOT
BRANCH   3   4
HETATM    4  C   UNL     1      -8.868  18.857  68.406  1.00  0.00    -0.344 C  
HETATM    5  O   UNL     1      -8.817  19.494  69.451  1.00  0.00    -0.130 OA 
HETATM    6  N   UNL     1      -8.215  17.653  68.220  1.00  0.00    -0.267 N  
HETATM    7  C   UNL     1      -7.227  17.178  69.169  1.00  0.00    -0.197 C  
HETATM    8  C   UNL     1      -6.152  16.584  68.275  1.00  0.00    -0.118 C  
HETATM    9  C   UNL     1      -6.903  16.055  67.053  1.00  0.00    -0.180 C  
HETATM   10  C   UNL     1      -8.269  16.768  67.062  1.00  0.00    -0.194 C  
BRANCH  10  11
HETATM   11  C   UNL     1      -9.374  15.745  67.224  1.00  0.00    -0.211 A  
HETATM   12  N   UNL     1      -9.503  14.869  68.213  1.00  0.00    -0.204 NA 
HETATM   13  C   UNL     1     -10.568  14.044  67.885  1.00  0.00    -0.244 A  
HETATM   14  N   UNL     1     -13.248  13.224  66.240  1.00  0.00     0.348 NA 
HETATM   15  C   UNL     1     -11.141  14.478  66.701  1.00  0.00    -0.333 A  
HETATM   16  C   UNL     1     -12.275  14.109  65.877  1.00  0.00    -0.439 A  
HETATM   17  N   UNL     1     -10.329  15.507  66.257  1.00  0.00    -0.289 NA 
HETATM   18  H2  UNL     1     -13.171  12.789  67.160  1.00  0.00     0.000 HD 
HETATM   19  C   UNL     1     -10.545  16.080  65.014  1.00  0.00    -0.316 A  
HETATM   20  C   UNL     1     -11.569  15.631  64.276  1.00  0.00    -0.189 A  
HETATM   21  N   UNL     1     -12.453  14.667  64.700  1.00  0.00    -0.559 NA 
HETATM   22  H1  UNL     1     -14.045  12.964  65.660  1.00  0.00     0.000 HD 
BRANCH  13  23
HETATM   23  C   UNL     1     -10.957  12.917  68.739  1.00  0.00    -0.292 A  
HETATM   24  C   UNL     1     -11.589  10.722  70.428  1.00  0.00    -0.431 A  
HETATM   25  C   UNL     1     -10.631  10.589  69.416  1.00  0.00    -0.269 A  
HETATM   26  C   UNL     1     -11.969  13.012  69.709  1.00  0.00    -0.377 A  
HETATM   27  C   UNL     1     -10.324  11.678  68.579  1.00  0.00    -0.224 A  
HETATM   28  C   UNL     1     -12.266  11.935  70.565  1.00  0.00    -0.426 A  
BRANCH  24  29
HETATM   29  C   UNL     1     -11.819   9.587  71.371  1.00  0.00    -0.389 C  
HETATM   30  H   UNL     1     -10.302   8.500  70.459  1.00  0.00     0.000 HD 
HETATM   31  O   UNL     1     -12.698   9.694  72.216  1.00  0.00    -0.353 OA 
HETATM   32  N   UNL     1     -10.952   8.517  71.245  1.00  0.00    -0.243 N  
BRANCH  32  33
HETATM   33  C   UNL     1     -10.935   7.456  72.160  1.00  0.00    -0.245 A  
HETATM   34  C   UNL     1     -10.173   7.488  73.324  1.00  0.00    -0.398 A  
HETATM   35  C   UNL     1     -10.158   6.363  74.147  1.00  0.00    -0.353 A  
HETATM   36  C   UNL     1     -10.875   5.237  73.767  1.00  0.00    -0.315 A  
HETATM   37  C   UNL     1     -11.629   5.307  72.606  1.00  0.00    -0.154 A  
HETATM   38  N   UNL     1     -11.712   6.407  71.822  1.00  0.00    -0.317 NA 
ENDBRANCH  32  33
ENDBRANCH  24  29
ENDBRANCH  13  23
ENDBRANCH  10  11
ENDBRANCH   3   4
TORSDOF 5
ENDMDL
MODEL        3
REMARK 921   NORMALIZED FREE ENERGY PREDICTED BY IDOCK:   -8.29 KCAL/MOL
REMARK 922        TOTAL FREE ENERGY PREDICTED BY IDOCK:  -10.19 KCAL/MOL
REMARK 923 INTER-LIGAND FREE ENERGY PREDICTED BY IDOCK:   -9.03 KCAL/MOL
REMARK 924 INTRA-LIGAND FREE ENERGY PREDICTED BY IDOCK:   -1.16 KCAL/MOL
REMARK 927      BINDING AFFINITY PREDICTED BY RF-SCORE:    0.00 PKD
ROOT
HETATM    1  C   UNL     1     -10.896  20.111  65.127  1.00  0.00     0.277 C  
HETATM    2  C   UNL     1     -10.404  19.290  66.307  1.00  0.00    -0.566 C  
HETATM    3  C   UNL     1      -9.981  18.585  67.320  1.00  0.00    -0.350 C  
ENDROOT
BRANCH   3   4
HETATM    4  C   UNL     1      -9.480  17.869  68.480  1.00  0.00    -0.313 C  
HETATM    5  O   UNL     1      -9.776  18.300  69.587  1.00  0.00     0.216 OA 
HETATM    6  N   UNL     1      -8.628  16.798  68.286  1.00  0.00    -0.218 N  
HETATM    7  C   UNL     1      -7.835  16.260  69.374  1.00  0.00    -0.081 C  
HETATM    8  C   UNL     1      -6.501  15.962  68.710  1.00  0.00    -0.116 C  
HETATM    9  C   UNL     1      -6.851  15.596  67.268  1.00  0.00    -0.197 C  
HETATM   10  C   UNL     1      -8.271  16.146  67.031  1.00  0.00    -0.216 C  
BRANCH  10  11
HETATM   11  C   UNL     1      -9.216  14.999  66.738  1.00  0.00    -0.257 A  
HETATM   12  N   UNL     1      -9.113  13.755  67.185  1.00  0.00    -0.230 NA 
HETATM   13  C   UNL     1     -10.105  13.016  66.558  1.00  0.00    -0.270 A  
HETATM   14  N   UNL     1     -12.856  12.634  64.870  1.00  0.00    -0.842 NA 
HETATM   15  C   UNL     1     -10.872  13.854  65.765  1.00  0.00    -0.289 A  
HETATM   16  C   UNL     1     -12.049  13.733  64.929  1.00  0.00    -0.403 A  
HETATM   17  N   UNL     1     -10.252  15.089  65.830  1.00  0.00    -0.293 NA 
HETATM   18  H2  UNL     1     -12.611  11.837  65.460  1.00  0.00     0.000 HD 
HETATM   19  C   UNL     1     -10.691  16.134  65.033  1.00  0.00    -0.337 A  
HETATM   20  C   UNL     1     -11.740  15.922  64.227  1.00  0.00    -0.132 A  
HETATM   21  N   UNL     1     -12.441  14.740  64.180  1.00  0.00    -0.802 NA 
HETATM   22  H1  UNL     1     -13.684  12.549  64.282  1.00  0.00     0.000 HD 
BRANCH  13  23
HETATM   23  C   UNL     1     -10.245  11.574  66.780  1.00  0.00    -0.254 A  
HETATM   24  C   UNL     1     -10.391   8.766  67.189  1.00  0.00    -0.364 A  
HETATM   25  C   UNL     1      -9.879   9.286  65.994  1.00  0.00    -0.363 A  
HETATM   26  C   UNL     1     -10.825  11.036  67.942  1.00  0.00    -0.285 A  
HETATM   27  C   UNL     1      -9.813  10.677  65.794  1.00  0.00    -0.296 A  
HETATM   28  C   UNL     1     -10.875   9.646  68.159  1.00  0.00    -0.241 A  
BRANCH  24  29
HETATM   29  C   UNL     1     -10.352   7.291  67.421  1.00  0.00    -0.260 C  
HETATM   30  H   UNL     1      -8.629   7.499  68.563  1.00  0.00     0.000 HD 
HETATM   31  O   UNL     1     -11.226   6.595  66.920  1.00  0.00    -0.391 OA 
HETATM   32  N   UNL     1      -9.347   6.842  68.258  1.00  0.00    -0.125 N  
BRANCH  32  33
HETATM   33  C   UNL     1      -9.281   5.514  68.702  1.00  0.00    -0.122 A  
HETATM   34  C   UNL     1      -9.800   5.112  69.929  1.00  0.00    -0.289 A  
HETATM   35  C   UNL     1      -9.632   3.786  70.326  1.00  0.00    -0.257 A  
HETATM   36  C   UNL     1      -8.927   2.918  69.504  1.00  0.00    -0.171 A  
HETATM   37  C   UNL     1      -8.473   3.399  68.286  1.00  0.00    -0.085 A  
HETATM   38  N   UNL     1      -8.677   4.663  67.848  1.00  0.00    -0.103 NA 
ENDBRANCH  32  33
ENDBRANCH  24  29
ENDBRANCH  13  23
ENDBRANCH  10  11
ENDBRANCH   3   4
TORSDOF 5
ENDMDL
MODEL        4
REMARK 921   NORMALIZED FREE ENERGY PREDICTED BY IDOCK:   -8.28 KCAL/MOL
REMARK 922        TOTAL FREE ENERGY PREDICTED BY IDOCK:  -10.18 KCAL/MOL
REMARK 923 INTER-LIGAND FREE ENERGY PREDICTED BY IDOCK:   -9.12 KCAL/MOL
REMARK 924 INTRA-LIGAND FREE ENERGY PREDICTED BY IDOCK:   -1.07 KCAL/MOL
REMARK 927      BINDING AFFINITY PREDICTED BY RF-SCORE:    0.00 PKD
ROOT
HETATM    1  C   UNL     1     -10.105  18.990  69.065  1.00  0.00    -0.335 C  
HETATM    2  C   UNL     1      -9.780  17.656  68.415  1.00  0.00    -0.321 C  
HETATM    3  C   UNL     1      -9.502  16.510  67.856  1.00  0.00    -0.220 C  
ENDROOT
BRANCH   3   4
HETATM    4  C   UNL     1      -9.146  15.275  67.180  1.00  0.00    -0.210 C  
HETATM    5  O   UNL     1      -7.976  15.125  66.849  1.00  0.00    -0.211 OA 
HETATM    6  N   UNL     1     -10.144  14.373  66.866  1.00  0.00    -0.255 N  
HETATM    7  C   UNL     1      -9.921  13.303  65.913  1.00  0.00    -0.272 C  
HETATM    8  C   UNL     1     -11.223  13.263  65.133  1.00  0.00    -0.322 C  
HETATM    9  C   UNL     1     -12.297  13.689  66.134  1.00  0.00    -0.476 C  
HETATM   10  C   UNL     1     -11.544  14.401  67.275  1.00  0.00    -0.379 C  
BRANCH  10  11
HETATM   11  C   UNL     1     -11.738  13.633  68.566  1.00  0.00    -0.357 A  
HETATM   12  N   UNL     1     -11.495  12.344  68.764  1.00  0.00    -0.279 NA 
HETATM   13  C   UNL     1     -11.944  12.039  70.040  1.00  0.00    -0.324 A  
HETATM   14  N   UNL     1     -12.927  12.753  73.054  1.00  0.00     0.373 NA 
HETATM   15  C   UNL     1     -12.406  13.192  70.654  1.00  0.00    -0.326 A  
HETATM   16  C   UNL     1     -12.930  13.560  71.954  1.00  0.00    -0.337 A  
HETATM   17  N   UNL     1     -12.338  14.176  69.683  1.00  0.00    -0.309 NA 
HETATM   18  H2  UNL     1     -12.526  11.820  72.954  1.00  0.00     0.000 HD 
HETATM   19  C   UNL     1     -12.858  15.437  69.930  1.00  0.00     0.024 A  
HETATM   20  C   UNL     1     -13.397  15.679  71.132  1.00  0.00    -0.367 A  
HETATM   21  N   UNL     1     -13.421  14.763  72.158  1.00  0.00    -0.356 NA 
HETATM   22  H1  UNL     1     -13.296  13.013  73.969  1.00  0.00     0.000 HD 
BRANCH  13  23
HETATM   23  C   UNL     1     -11.883  10.673  70.570  1.00  0.00    -0.453 A  
HETATM   24  C   UNL     1     -11.851   7.993  71.510  1.00  0.00    -0.328 A  
HETATM   25  C   UNL     1     -13.050   8.714  71.457  1.00  0.00    -0.339 A  
HETATM   26  C   UNL     1     -10.679   9.962  70.700  1.00  0.00    -0.372 A  
HETATM   27  C   UNL     1     -13.060  10.043  70.994  1.00  0.00    -0.435 A  
HETATM   28  C   UNL     1     -10.662   8.625  71.141  1.00  0.00    -0.303 A  
BRANCH  24  29
HETATM   29  C   UNL     1     -11.881   6.552  71.902  1.00  0.00    -0.334 C  
HETATM   30  H   UNL     1      -9.818   6.434  71.694  1.00  0.00     0.000 HD 
HETATM   31  O   UNL     1     -12.961   6.037  72.162  1.00  0.00     0.062 OA 
HETATM   32  N   UNL     1     -10.649   5.931  72.004  1.00  0.00    -0.213 N  
BRANCH  32  33
HETATM   33  C   UNL     1     -10.505   4.636  72.520  1.00  0.00    -0.195 A  
HETATM   34  C   UNL     1     -10.141   3.554  71.724  1.00  0.00    -0.147 A  
HETATM   35  C   UNL     1     -10.086   2.286  72.301  1.00  0.00    -0.229 A  
HETATM   36  C   UNL     1     -10.426   2.136  73.639  1.00  0.00    -0.213 A  
HETATM   37  C   UNL     1     -10.747   3.275  74.360  1.00  0.00    -0.095 A  
HETATM   38  N   UNL     1     -10.746   4.525  73.842  1.00  0.00    -0.262 NA 
ENDBRANCH  32  33
ENDBRANCH  24  29
ENDBRANCH  13  23
ENDBRANCH  10  11
ENDBRANCH   3   4
TORSDOF 5
ENDMDL
MODEL        5
REMARK 921   NORMALIZED FREE ENERGY PREDICTED BY IDOCK:   -8.28 KCAL/MOL
REMARK 922        TOTAL FREE ENERGY PREDICTED BY IDOCK:  -10.18 KCAL/MOL
REMARK 923 INTER-LIGAND FREE ENERGY PREDICTED BY IDOCK:   -9.95 KCAL/MOL
REMARK 924 INTRA-LIGAND FREE ENERGY PREDICTED BY IDOCK:   -0.24 KCAL/MOL
REMARK 927      BINDING AFFINITY PREDICTED BY RF-SCORE:    0.00 PKD
ROOT
HETATM    1  C   UNL     1      -9.266   9.223  65.014  1.00  0.00    -0.242 C  
HETATM    2  C   UNL     1      -9.025   9.253  66.514  1.00  0.00    -0.178 C  
HETATM    3  C   UNL     1      -8.817   9.279  67.801  1.00  0.00    -0.121 C  
ENDROOT
BRANCH   3   4
HETATM    4  C   UNL     1      -8.642   9.367  69.240  1.00  0.00    -0.143 C  
HETATM    5  O   UNL     1      -7.509   9.225  69.685  1.00  0.00    -0.068 OA 
HETATM    6  N   UNL     1      -9.758   9.515  70.042  1.00  0.00    -0.220 N  
HETATM    7  C   UNL     1      -9.697   9.274  71.470  1.00  0.00    -0.140 C  
HETATM    8  C   UNL     1     -11.008   8.561  71.752  1.00  0.00    -0.376 C  
HETATM    9  C   UNL     1     -11.996   9.134  70.735  1.00  0.00    -0.243 C  
HETATM   10  C   UNL     1     -11.133   9.775  69.631  1.00  0.00    -0.217 C  
BRANCH  10  11
HETATM   11  C   UNL     1     -11.402  11.264  69.578  1.00  0.00    -0.294 A  
HETATM   12  N   UNL     1     -10.830  12.144  68.767  1.00  0.00    -0.227 NA 
HETATM   13  C   UNL     1     -11.267  13.400  69.160  1.00  0.00    -0.248 A  
HETATM   14  N   UNL     1     -13.233  15.471  70.712  1.00  0.00    -0.706 NA 
HETATM   15  C   UNL     1     -12.183  13.268  70.191  1.00  0.00    -0.306 A  
HETATM   16  C   UNL     1     -13.025  14.148  70.976  1.00  0.00    -0.329 A  
HETATM   17  N   UNL     1     -12.202  11.918  70.494  1.00  0.00    -0.363 NA 
HETATM   18  H2  UNL     1     -12.759  15.870  69.900  1.00  0.00     0.000 HD 
HETATM   19  C   UNL     1     -12.922  11.457  71.584  1.00  0.00    -0.418 A  
HETATM   20  C   UNL     1     -13.615  12.345  72.310  1.00  0.00    -0.269 A  
HETATM   21  N   UNL     1     -13.695  13.684  72.008  1.00  0.00    -0.470 NA 
HETATM   22  H1  UNL     1     -13.825  16.090  71.265  1.00  0.00     0.000 HD 
BRANCH  13  23
HETATM   23  C   UNL     1     -10.782  14.621  68.508  1.00  0.00    -0.248 A  
HETATM   24  C   UNL     1      -9.723  16.944  67.263  1.00  0.00    -0.251 A  
HETATM   25  C   UNL     1      -9.351  16.605  68.570  1.00  0.00    -0.236 A  
HETATM   26  C   UNL     1     -11.202  15.016  67.227  1.00  0.00    -0.339 A  
HETATM   27  C   UNL     1      -9.882  15.454  69.184  1.00  0.00    -0.247 A  
HETATM   28  C   UNL     1     -10.660  16.152  66.597  1.00  0.00    -0.274 A  
BRANCH  24  29
HETATM   29  C   UNL     1      -9.066  18.108  66.596  1.00  0.00    -0.282 C  
HETATM   30  H   UNL     1      -7.237  17.570  67.422  1.00  0.00     0.000 HD 
HETATM   31  O   UNL     1      -9.750  18.852  65.905  1.00  0.00    -0.474 OA 
HETATM   32  N   UNL     1      -7.696  18.203  66.767  1.00  0.00    -0.216 N  
BRANCH  32  33
HETATM   33  C   UNL     1      -6.919  19.138  66.071  1.00  0.00    -0.256 A  
HETATM   34  C   UNL     1      -6.589  20.379  66.607  1.00  0.00    -0.277 A  
HETATM   35  C   UNL     1      -5.870  21.278  65.822  1.00  0.00    -0.235 A  
HETATM   36  C   UNL     1      -5.534  20.925  64.522  1.00  0.00    -0.256 A  
HETATM   37  C   UNL     1      -5.878  19.656  64.084  1.00  0.00    -0.271 A  
HETATM   38  N   UNL     1      -6.520  18.740  64.846  1.00  0.00    -0.506 NA 
ENDBRANCH  32  33
ENDBRANCH  24  29
ENDBRANCH  13  23
ENDBRANCH  10  11
ENDBRANCH   3   4
TORSDOF 5
ENDMDL
MODEL        6
REMARK 921   NORMALIZED FREE ENERGY PREDICTED BY IDOCK:   -8.21 KCAL/MOL
REMARK 922        TOTAL FREE ENERGY PREDICTED BY IDOCK:  -10.08 KCAL/MOL
REMARK 923 INTER-LIGAND FREE ENERGY PREDICTED BY IDOCK:   -8.95 KCAL/MOL
REMARK 924 INTRA-LIGAND FREE ENERGY PREDICTED BY IDOCK:   -1.13 KCAL/MOL
REMARK 927      BINDING AFFINITY PREDICTED BY RF-SCORE:    0.00 PKD
ROOT
HETATM    1  C   UNL     1      -9.280   2.604  69.284  1.00  0.00    -0.203 C  
HETATM    2  C   UNL     1      -9.365   3.814  70.199  1.00  0.00    -0.244 C  
HETATM    3  C   UNL     1      -9.438   4.852  70.984  1.00  0.00    -0.225 C  
ENDROOT
BRANCH   3   4
HETATM    4  C   UNL     1      -9.525   5.958  71.922  1.00  0.00    -0.151 C  
HETATM    5  O   UNL     1      -8.746   5.965  72.867  1.00  0.00    -0.125 OA 
HETATM    6  N   UNL     1     -10.528   6.895  71.759  1.00  0.00    -0.203 N  
HETATM    7  C   UNL     1     -10.881   7.813  72.824  1.00  0.00    -0.379 C  
HETATM    8  C   UNL     1     -12.397   7.865  72.741  1.00  0.00    -0.004 C  
HETATM    9  C   UNL     1     -12.719   7.662  71.261  1.00  0.00    -0.306 C  
HETATM   10  C   UNL     1     -11.454   7.038  70.641  1.00  0.00    -0.324 C  
BRANCH  10  11
HETATM   11  C   UNL     1     -10.887   7.976  69.596  1.00  0.00    -0.169 A  
HETATM   12  N   UNL     1     -10.883   9.302  69.641  1.00  0.00    -0.231 NA 
HETATM   13  C   UNL     1     -10.396   9.746  68.421  1.00  0.00    -0.201 A  
HETATM   14  N   UNL     1      -8.857   9.414  65.578  1.00  0.00    -0.172 NA 
HETATM   15  C   UNL     1     -10.030   8.658  67.646  1.00  0.00    -0.194 A  
HETATM   16  C   UNL     1      -9.422   8.440  66.349  1.00  0.00    -0.227 A  
HETATM   17  N   UNL     1     -10.415   7.545  68.372  1.00  0.00    -0.193 NA 
HETATM   18  H2  UNL     1      -8.864  10.367  65.943  1.00  0.00     0.000 HD 
HETATM   19  C   UNL     1     -10.315   6.279  67.817  1.00  0.00    -0.195 A  
HETATM   20  C   UNL     1      -9.813   6.166  66.580  1.00  0.00    -0.159 A  
HETATM   21  N   UNL     1      -9.343   7.229  65.844  1.00  0.00     0.031 NA 
HETATM   22  H1  UNL     1      -8.429   9.261  64.665  1.00  0.00     0.000 HD 
BRANCH  13  23
HETATM   23  C   UNL     1     -10.310  11.175  68.103  1.00  0.00    -0.207 A  
HETATM   24  C   UNL     1     -10.039  13.918  67.416  1.00  0.00    -0.244 A  
HETATM   25  C   UNL     1      -8.986  13.232  68.036  1.00  0.00    -0.191 A  
HETATM   26  C   UNL     1     -11.381  11.897  67.550  1.00  0.00    -0.381 A  
HETATM   27  C   UNL     1      -9.127  11.874  68.378  1.00  0.00    -0.167 A  
HETATM   28  C   UNL     1     -11.241  13.249  67.185  1.00  0.00    -0.327 A  
BRANCH  24  29
HETATM   29  C   UNL     1      -9.828  15.327  66.966  1.00  0.00    -0.229 C  
HETATM   30  H   UNL     1     -11.437  15.954  68.121  1.00  0.00     0.000 HD 
HETATM   31  O   UNL     1      -8.914  15.564  66.188  1.00  0.00    -0.316 OA 
HETATM   32  N   UNL     1     -10.662  16.271  67.538  1.00  0.00    -0.316 N  
BRANCH  32  33
HETATM   33  C   UNL     1     -10.479  17.646  67.344  1.00  0.00    -0.356 A  
HETATM   34  C   UNL     1     -10.616  18.247  66.096  1.00  0.00    -0.326 A  
HETATM   35  C   UNL     1     -10.349  19.610  65.976  1.00  0.00    -0.620 A  
HETATM   36  C   UNL     1      -9.924  20.318  67.092  1.00  0.00    -0.593 A  
HETATM   37  C   UNL     1      -9.846  19.642  68.299  1.00  0.00    -0.419 A  
HETATM   38  N   UNL     1     -10.160  18.336  68.458  1.00  0.00    -0.388 NA 
ENDBRANCH  32  33
ENDBRANCH  24  29
ENDBRANCH  13  23
ENDBRANCH  10  11
ENDBRANCH   3   4
TORSDOF 5
ENDMDL
MODEL        7
REMARK 921   NORMALIZED FREE ENERGY PREDICTED BY IDOCK:   -8.06 KCAL/MOL
REMARK 922        TOTAL FREE ENERGY PREDICTED BY IDOCK:   -9.89 KCAL/MOL
REMARK 923 INTER-LIGAND FREE ENERGY PREDICTED BY IDOCK:   -9.02 KCAL/MOL
REMARK 924 INTRA-LIGAND FREE ENERGY PREDICTED BY IDOCK:   -0.88 KCAL/MOL
REMARK 927      BINDING AFFINITY PREDICTED BY RF-SCORE:    0.00 PKD
ROOT
HETATM    1  C   UNL     1      -9.320   2.481  68.855  1.00  0.00    -0.218 C  
HETATM    2  C   UNL     1      -8.991   3.510  69.923  1.00  0.00    -0.173 C  
HETATM    3  C   UNL     1      -8.708   4.394  70.840  1.00  0.00    -0.126 C  
ENDROOT
BRANCH   3   4
HETATM    4  C   UNL     1      -8.351   5.419  71.805  1.00  0.00    -0.119 C  
HETATM    5  O   UNL     1      -7.246   5.346  72.328  1.00  0.00    -0.083 OA 
HETATM    6  N   UNL     1      -9.293   6.368  72.152  1.00  0.00    -0.150 N  
HETATM    7  C   UNL     1      -9.130   7.196  73.331  1.00  0.00    -0.157 C  
HETATM    8  C   UNL     1     -10.535   7.258  73.902  1.00  0.00    -0.221 C  
HETATM    9  C   UNL     1     -11.460   7.178  72.687  1.00  0.00    -0.274 C  
HETATM   10  C   UNL     1     -10.598   6.605  71.545  1.00  0.00    -0.222 C  
BRANCH  10  11
HETATM   11  C   UNL     1     -10.491   7.625  70.431  1.00  0.00    -0.220 A  
HETATM   12  N   UNL     1     -10.550   8.944  70.557  1.00  0.00    -0.209 NA 
HETATM   13  C   UNL     1     -10.550   9.473  69.275  1.00  0.00    -0.220 A  
HETATM   14  N   UNL     1     -10.091   9.375  66.060  1.00  0.00    -0.283 NA 
HETATM   15  C   UNL     1     -10.416   8.448  68.353  1.00  0.00    -0.164 A  
HETATM   16  C   UNL     1     -10.290   8.330  66.914  1.00  0.00    -0.320 A  
HETATM   17  N   UNL     1     -10.455   7.281  69.095  1.00  0.00    -0.212 NA 
HETATM   18  H2  UNL     1     -10.026  10.309  66.464  1.00  0.00     0.000 HD 
HETATM   19  C   UNL     1     -10.482   6.050  68.459  1.00  0.00    -0.234 A  
HETATM   20  C   UNL     1     -10.441   6.024  67.120  1.00  0.00    -0.264 A  
HETATM   21  N   UNL     1     -10.322   7.149  66.337  1.00  0.00    -0.002 NA 
HETATM   22  H1  UNL     1     -10.003   9.291  65.047  1.00  0.00     0.000 HD 
BRANCH  13  23
HETATM   23  C   UNL     1     -10.665  10.916  69.039  1.00  0.00    -0.262 A  
HETATM   24  C   UNL     1     -10.915  13.726  68.707  1.00  0.00    -0.289 A  
HETATM   25  C   UNL     1     -11.972  12.975  69.238  1.00  0.00    -0.331 A  
HETATM   26  C   UNL     1      -9.644  11.672  68.439  1.00  0.00    -0.195 A  
HETATM   27  C   UNL     1     -11.844  11.583  69.397  1.00  0.00    -0.417 A  
HETATM   28  C   UNL     1      -9.754  13.068  68.297  1.00  0.00    -0.221 A  
BRANCH  24  29
HETATM   29  C   UNL     1     -11.033  15.214  68.648  1.00  0.00    -0.255 C  
HETATM   30  H   UNL     1      -9.219  15.335  67.642  1.00  0.00     0.000 HD 
HETATM   31  O   UNL     1     -12.017  15.745  69.147  1.00  0.00    -0.387 OA 
HETATM   32  N   UNL     1     -10.030  15.869  67.957  1.00  0.00    -0.219 N  
BRANCH  32  33
HETATM   33  C   UNL     1     -10.089  17.240  67.674  1.00  0.00    -0.313 A  
HETATM   34  C   UNL     1     -10.338  17.726  66.394  1.00  0.00    -0.351 A  
HETATM   35  C   UNL     1     -10.312  19.104  66.183  1.00  0.00    -0.561 A  
HETATM   36  C   UNL     1     -10.006  19.945  67.244  1.00  0.00    -0.556 A  
HETATM   37  C   UNL     1      -9.802  19.373  68.489  1.00  0.00    -0.427 A  
HETATM   38  N   UNL     1      -9.884  18.045  68.735  1.00  0.00    -0.361 NA 
ENDBRANCH  32  33
ENDBRANCH  24  29
ENDBRANCH  13  23
ENDBRANCH  10  11
ENDBRANCH   3   4
TORSDOF 5
ENDMDL
MODEL        8
REMARK 921   NORMALIZED FREE ENERGY PREDICTED BY IDOCK:   -8.02 KCAL/MOL
REMARK 922        TOTAL FREE ENERGY PREDICTED BY IDOCK:   -9.84 KCAL/MOL
REMARK 923 INTER-LIGAND FREE ENERGY PREDICTED BY IDOCK:   -8.97 KCAL/MOL
REMARK 924 INTRA-LIGAND FREE ENERGY PREDICTED BY IDOCK:   -0.87 KCAL/MOL
REMARK 927      BINDING AFFINITY PREDICTED BY RF-SCORE:    0.00 PKD
ROOT
HETATM    1  C   UNL     1     -12.090   6.349  71.788  1.00  0.00    -0.351 C  
HETATM    2  C   UNL     1     -11.627   6.546  70.354  1.00  0.00    -0.470 C  
HETATM    3  C   UNL     1     -11.230   6.715  69.124  1.00  0.00    -0.305 C  
ENDROOT
BRANCH   3   4
HETATM    4  C   UNL     1     -10.733   6.958  67.781  1.00  0.00    -0.254 C  
HETATM    5  O   UNL     1     -11.272   6.359  66.858  1.00  0.00    -0.368 OA 
HETATM    6  N   UNL     1      -9.631   7.775  67.613  1.00  0.00    -0.143 N  
HETATM    7  C   UNL     1      -8.888   7.791  66.368  1.00  0.00    -0.155 C  
HETATM    8  C   UNL     1      -7.445   7.877  66.834  1.00  0.00    -0.091 C  
HETATM    9  C   UNL     1      -7.497   8.673  68.138  1.00  0.00    -0.096 C  
HETATM   10  C   UNL     1      -8.962   8.600  68.612  1.00  0.00    -0.142 C  
BRANCH  10  11
HETATM   11  C   UNL     1      -9.555   9.993  68.638  1.00  0.00    -0.155 A  
HETATM   12  N   UNL     1      -9.134  11.046  67.950  1.00  0.00    -0.144 NA 
HETATM   13  C   UNL     1      -9.874  12.135  68.385  1.00  0.00    -0.200 A  
HETATM   14  N   UNL     1     -12.373  13.578  69.879  1.00  0.00    -0.270 NA 
HETATM   15  C   UNL     1     -10.815  11.714  69.310  1.00  0.00    -0.152 A  
HETATM   16  C   UNL     1     -11.894  12.315  70.069  1.00  0.00    -0.296 A  
HETATM   17  N   UNL     1     -10.552  10.371  69.515  1.00  0.00    -0.232 NA 
HETATM   18  H2  UNL     1     -11.939  14.142  69.147  1.00  0.00     0.000 HD 
HETATM   19  C   UNL     1     -11.234   9.668  70.495  1.00  0.00    -0.297 A  
HETATM   20  C   UNL     1     -12.165  10.313  71.210  1.00  0.00    -0.395 A  
HETATM   21  N   UNL     1     -12.521  11.625  70.995  1.00  0.00    -0.374 NA 
HETATM   22  H1  UNL     1     -13.132  14.000  70.414  1.00  0.00     0.000 HD 
BRANCH  13  23
HETATM   23  C   UNL     1      -9.627  13.486  67.870  1.00  0.00    -0.218 A  
HETATM   24  C   UNL     1      -9.024  16.083  66.888  1.00  0.00    -0.253 A  
HETATM   25  C   UNL     1      -8.586  15.682  68.157  1.00  0.00    -0.159 A  
HETATM   26  C   UNL     1     -10.122  13.930  66.632  1.00  0.00    -0.273 A  
HETATM   27  C   UNL     1      -8.891  14.396  68.641  1.00  0.00    -0.167 A  
HETATM   28  C   UNL     1      -9.803  15.206  66.132  1.00  0.00    -0.325 A  
BRANCH  24  29
HETATM   29  C   UNL     1      -8.597  17.411  66.354  1.00  0.00    -0.247 C  
HETATM   30  H   UNL     1      -6.649  17.056  66.982  1.00  0.00     0.000 HD 
HETATM   31  O   UNL     1      -9.435  18.125  65.819  1.00  0.00    -0.483 OA 
HETATM   32  N   UNL     1      -7.246  17.692  66.453  1.00  0.00    -0.256 N  
BRANCH  32  33
HETATM   33  C   UNL     1      -6.671  18.819  65.851  1.00  0.00    -0.259 A  
HETATM   34  C   UNL     1      -6.604  20.053  66.491  1.00  0.00    -0.226 A  
HETATM   35  C   UNL     1      -6.078  21.140  65.796  1.00  0.00    -0.248 A  
HETATM   36  C   UNL     1      -5.668  20.969  64.481  1.00  0.00    -0.277 A  
HETATM   37  C   UNL     1      -5.743  19.697  63.937  1.00  0.00    -0.282 A  
HETATM   38  N   UNL     1      -6.190  18.611  64.609  1.00  0.00    -0.404 NA 
ENDBRANCH  32  33
ENDBRANCH  24  29
ENDBRANCH  13  23
ENDBRANCH  10  11
ENDBRANCH   3   4
TORSDOF 5
ENDMDL
MODEL        9
REMARK 921   NORMALIZED FREE ENERGY PREDICTED BY IDOCK:   -7.95 KCAL/MOL
REMARK 922        TOTAL FREE ENERGY PREDICTED BY IDOCK:   -9.75 KCAL/MOL
REMARK 923 INTER-LIGAND FREE ENERGY PREDICTED BY IDOCK:   -9.60 KCAL/MOL
REMARK 924 INTRA-LIGAND FREE ENERGY PREDICTED BY IDOCK:   -0.15 KCAL/MOL
REMARK 927      BINDING AFFINITY PREDICTED BY RF-SCORE:    0.00 PKD
ROOT
HETATM    1  C   UNL     1     -13.903  15.425  71.737  1.00  0.00    -0.620 C  
HETATM    2  C   UNL     1     -12.745  15.493  70.755  1.00  0.00    -0.511 C  
HETATM    3  C   UNL     1     -11.752  15.551  69.913  1.00  0.00    -0.368 C  
ENDROOT
BRANCH   3   4
HETATM    4  C   UNL     1     -10.698  15.640  68.918  1.00  0.00    -0.238 C  
HETATM    5  O   UNL     1      -9.721  16.331  69.183  1.00  0.00    -0.250 OA 
HETATM    6  N   UNL     1     -10.879  15.022  67.695  1.00  0.00    -0.283 N  
HETATM    7  C   UNL     1     -10.042  15.345  66.556  1.00  0.00    -0.271 C  
HETATM    8  C   UNL     1     -11.027  15.360  65.401  1.00  0.00    -0.376 C  
HETATM    9  C   UNL     1     -12.091  14.327  65.775  1.00  0.00    -0.414 C  
HETATM   10  C   UNL     1     -11.948  14.114  67.295  1.00  0.00    -0.414 C  
BRANCH  10  11
HETATM   11  C   UNL     1     -11.558  12.677  67.570  1.00  0.00    -0.359 A  
HETATM   12  N   UNL     1     -11.586  12.061  68.745  1.00  0.00    -0.286 NA 
HETATM   13  C   UNL     1     -11.016  10.811  68.558  1.00  0.00    -0.243 A  
HETATM   14  N   UNL     1      -9.970   8.296  66.785  1.00  0.00    -0.261 NA 
HETATM   15  C   UNL     1     -10.701  10.642  67.220  1.00  0.00    -0.285 A  
HETATM   16  C   UNL     1     -10.160   9.587  66.386  1.00  0.00    -0.258 A  
HETATM   17  N   UNL     1     -10.981  11.858  66.622  1.00  0.00    -0.277 NA 
HETATM   18  H2  UNL     1     -10.228   8.056  67.742  1.00  0.00     0.000 HD 
HETATM   19  C   UNL     1     -10.647  12.076  65.295  1.00  0.00    -0.287 A  
HETATM   20  C   UNL     1     -10.078  11.076  64.609  1.00  0.00    -0.311 A  
HETATM   21  N   UNL     1      -9.850   9.824  65.130  1.00  0.00    -0.294 NA 
HETATM   22  H1  UNL     1      -9.589   7.555  66.197  1.00  0.00     0.000 HD 
BRANCH  13  23
HETATM   23  C   UNL     1     -10.833   9.876  69.674  1.00  0.00    -0.281 A  
HETATM   24  C   UNL     1     -10.538   7.977  71.766  1.00  0.00    -0.296 A  
HETATM   25  C   UNL     1     -11.809   8.305  71.276  1.00  0.00    -0.319 A  
HETATM   26  C   UNL     1      -9.573   9.592  70.227  1.00  0.00    -0.307 A  
HETATM   27  C   UNL     1     -11.949   9.250  70.242  1.00  0.00     0.065 A  
HETATM   28  C   UNL     1      -9.421   8.633  71.246  1.00  0.00    -0.289 A  
BRANCH  24  29
HETATM   29  C   UNL     1     -10.406   6.896  72.787  1.00  0.00    -0.213 C  
HETATM   30  H   UNL     1     -10.661   5.452  71.315  1.00  0.00     0.000 HD 
HETATM   31  O   UNL     1     -10.224   7.211  73.956  1.00  0.00    -0.342 OA 
HETATM   32  N   UNL     1     -10.433   5.602  72.298  1.00  0.00    -0.206 N  
BRANCH  32  33
HETATM   33  C   UNL     1     -10.155   4.491  73.106  1.00  0.00    -0.156 A  
HETATM   34  C   UNL     1      -8.859   4.139  73.470  1.00  0.00    -0.093 A  
HETATM   35  C   UNL     1      -8.664   2.980  74.219  1.00  0.00    -0.080 A  
HETATM   36  C   UNL     1      -9.761   2.196  74.551  1.00  0.00    -0.128 A  
HETATM   37  C   UNL     1     -11.017   2.641  74.171  1.00  0.00    -0.104 A  
HETATM   38  N   UNL     1     -11.241   3.794  73.499  1.00  0.00    -0.241 NA 
ENDBRANCH  32  33
ENDBRANCH  24  29
ENDBRANCH  13  23
ENDBRANCH  10  11
ENDBRANCH   3   4
TORSDOF 5
ENDMDL
MODEL       10
REMARK 921   NORMALIZED FREE ENERGY PREDICTED BY IDOCK:   -7.92 KCAL/MOL
REMARK 922        TOTAL FREE ENERGY PREDICTED BY IDOCK:   -9.72 KCAL/MOL
REMARK 923 INTER-LIGAND FREE ENERGY PREDICTED BY IDOCK:   -8.57 KCAL/MOL
REMARK 924 INTRA-LIGAND FREE ENERGY PREDICTED BY IDOCK:   -1.15 KCAL/MOL
REMARK 927      BINDING AFFINITY PREDICTED BY RF-SCORE:    0.00 PKD
ROOT
HETATM    1  C   UNL     1      -5.558   5.232  71.313  1.00  0.00    -0.009 C  
HETATM    2  C   UNL     1      -6.787   5.932  71.867  1.00  0.00    -0.068 C  
HETATM    3  C   UNL     1      -7.842   6.533  72.344  1.00  0.00    -0.101 C  
ENDROOT
BRANCH   3   4
HETATM    4  C   UNL     1      -9.006   7.260  72.819  1.00  0.00    -0.135 C  
HETATM    5  O   UNL     1      -8.947   7.761  73.935  1.00  0.00    -0.253 OA 
HETATM    6  N   UNL     1     -10.146   7.281  72.038  1.00  0.00    -0.184 N  
HETATM    7  C   UNL     1     -11.426   7.687  72.584  1.00  0.00    -0.349 C  
HETATM    8  C   UNL     1     -12.396   6.707  71.947  1.00  0.00    -0.364 C  
HETATM    9  C   UNL     1     -11.792   6.386  70.580  1.00  0.00    -0.316 C  
HETATM   10  C   UNL     1     -10.310   6.798  70.671  1.00  0.00    -0.201 C  
BRANCH  10  11
HETATM   11  C   UNL     1     -10.030   7.906  69.677  1.00  0.00    -0.191 A  
HETATM   12  N   UNL     1     -10.238   9.204  69.859  1.00  0.00    -0.195 NA 
HETATM   13  C   UNL     1      -9.976   9.828  68.649  1.00  0.00    -0.167 A  
HETATM   14  N   UNL     1      -8.748  10.012  65.646  1.00  0.00    -0.149 NA 
HETATM   15  C   UNL     1      -9.531   8.890  67.732  1.00  0.00    -0.141 A  
HETATM   16  C   UNL     1      -9.052   8.893  66.364  1.00  0.00    -0.174 A  
HETATM   17  N   UNL     1      -9.642   7.669  68.374  1.00  0.00    -0.150 NA 
HETATM   18  H2  UNL     1      -8.868  10.915  66.106  1.00  0.00     0.000 HD 
HETATM   19  C   UNL     1      -9.402   6.492  67.683  1.00  0.00    -0.118 A  
HETATM   20  C   UNL     1      -9.037   6.573  66.396  1.00  0.00    -0.155 A  
HETATM   21  N   UNL     1      -8.836   7.760  65.731  1.00  0.00    -0.142 NA 
HETATM   22  H1  UNL     1      -8.411  10.013  64.683  1.00  0.00     0.000 HD 
BRANCH  13  23
HETATM   23  C   UNL     1     -10.162  11.272  68.474  1.00  0.00    -0.214 A  
HETATM   24  C   UNL     1     -10.593  14.070  68.240  1.00  0.00    -0.253 A  
HETATM   25  C   UNL     1     -11.677  13.185  68.293  1.00  0.00    -0.384 A  
HETATM   26  C   UNL     1      -9.086  12.167  68.344  1.00  0.00    -0.151 A  
HETATM   27  C   UNL     1     -11.458  11.799  68.404  1.00  0.00    -0.354 A  
HETATM   28  C   UNL     1      -9.296  13.556  68.254  1.00  0.00    -0.205 A  
BRANCH  24  29
HETATM   29  C   UNL     1     -10.851  15.541  68.230  1.00  0.00    -0.292 C  
HETATM   30  H   UNL     1      -8.874  15.902  67.706  1.00  0.00     0.000 HD 
HETATM   31  O   UNL     1     -11.976  15.942  68.500  1.00  0.00    -0.306 OA 
HETATM   32  N   UNL     1      -9.787  16.335  67.840  1.00  0.00    -0.234 N  
BRANCH  32  33
HETATM   33  C   UNL     1      -9.923  17.713  67.621  1.00  0.00    -0.323 A  
HETATM   34  C   UNL     1     -10.328  18.236  66.397  1.00  0.00    -0.418 A  
HETATM   35  C   UNL     1     -10.371  19.621  66.242  1.00  0.00    -0.619 A  
HETATM   36  C   UNL     1      -9.978  20.433  67.296  1.00  0.00    -0.564 A  
HETATM   37  C   UNL     1      -9.618  19.823  68.487  1.00  0.00    -0.342 A  
HETATM   38  N   UNL     1      -9.628  18.485  68.686  1.00  0.00    -0.345 NA 
ENDBRANCH  32  33
ENDBRANCH  24  29
ENDBRANCH  13  23
ENDBRANCH  10  11
ENDBRANCH   3   4
TORSDOF 5
ENDMDL
MODEL       11
REMARK 921   NORMALIZED FREE ENERGY PREDICTED BY IDOCK:   -7.91 KCAL/MOL
REMARK 922        TOTAL FREE ENERGY PREDICTED BY IDOCK:   -9.70 KCAL/MOL
REMARK 923 INTER-LIGAND FREE ENERGY PREDICTED BY IDOCK:   -8.34 KCAL/MOL
REMARK 924 INTRA-LIGAND FREE ENERGY PREDICTED BY IDOCK:   -1.36 KCAL/MOL
REMARK 927      BINDING AFFINITY PREDICTED BY RF-SCORE:    0.00 PKD
ROOT
HETATM    1  C   UNL     1     -12.710  15.867  72.868  1.00  0.00    -0.584 C  
HETATM    2  C   UNL     1     -11.767  15.749  71.682  1.00  0.00    -0.542 C  
HETATM    3  C   UNL     1     -10.959  15.647  70.663  1.00  0.00    -0.364 C  
ENDROOT
BRANCH   3   4
HETATM    4  C   UNL     1     -10.121  15.507  69.485  1.00  0.00    -0.278 C  
HETATM    5  O   UNL     1      -9.067  16.132  69.459  1.00  0.00    -0.197 OA 
HETATM    6  N   UNL     1     -10.583  14.756  68.422  1.00  0.00    -0.237 N  
HETATM    7  C   UNL     1      -9.970  14.848  67.111  1.00  0.00    -0.231 C  
HETATM    8  C   UNL     1     -11.163  14.806  66.172  1.00  0.00    -0.337 C  
HETATM    9  C   UNL     1     -12.197  13.935  66.886  1.00  0.00    -0.415 C  
HETATM   10  C   UNL     1     -11.769  13.908  68.366  1.00  0.00    -0.356 C  
BRANCH  10  11
HETATM   11  C   UNL     1     -11.429  12.489  68.770  1.00  0.00    -0.310 A  
HETATM   12  N   UNL     1     -10.741  11.606  68.057  1.00  0.00    -0.199 NA 
HETATM   13  C   UNL     1     -10.793  10.403  68.744  1.00  0.00    -0.232 A  
HETATM   14  N   UNL     1     -11.311   8.531  71.349  1.00  0.00    -0.256 NA 
HETATM   15  C   UNL     1     -11.470  10.583  69.939  1.00  0.00    -0.310 A  
HETATM   16  C   UNL     1     -11.806   9.777  71.096  1.00  0.00    -0.382 A  
HETATM   17  N   UNL     1     -11.931  11.888  69.906  1.00  0.00    -0.329 NA 
HETATM   18  H2  UNL     1     -10.656   8.137  70.674  1.00  0.00     0.000 HD 
HETATM   19  C   UNL     1     -12.773  12.356  70.902  1.00  0.00    -0.185 A  
HETATM   20  C   UNL     1     -13.101  11.525  71.900  1.00  0.00    -0.387 A  
HETATM   21  N   UNL     1     -12.611  10.246  72.024  1.00  0.00    -0.315 NA 
HETATM   22  H1  UNL     1     -11.548   7.964  72.163  1.00  0.00     0.000 HD 
BRANCH  13  23
HETATM   23  C   UNL     1     -10.179   9.185  68.207  1.00  0.00    -0.242 A  
HETATM   24  C   UNL     1      -9.008   6.870  67.048  1.00  0.00    -0.124 A  
HETATM   25  C   UNL     1     -10.312   7.254  66.709  1.00  0.00    -0.311 A  
HETATM   26  C   UNL     1      -8.901   8.744  68.592  1.00  0.00    -0.138 A  
HETATM   27  C   UNL     1     -10.889   8.400  67.289  1.00  0.00    -0.088 A  
HETATM   28  C   UNL     1      -8.309   7.613  68.001  1.00  0.00    -0.124 A  
BRANCH  24  29
HETATM   29  C   UNL     1      -8.380   5.715  66.341  1.00  0.00    -0.112 C  
HETATM   30  H   UNL     1     -10.235   5.130  65.612  1.00  0.00     0.000 HD 
HETATM   31  O   UNL     1      -7.170   5.554  66.438  1.00  0.00    -0.074 OA 
HETATM   32  N   UNL     1      -9.232   4.951  65.564  1.00  0.00    -0.156 N  
BRANCH  32  33
HETATM   33  C   UNL     1      -8.765   3.940  64.713  1.00  0.00    -0.116 A  
HETATM   34  C   UNL     1      -8.471   4.171  63.373  1.00  0.00    -0.100 A  
HETATM   35  C   UNL     1      -8.077   3.096  62.578  1.00  0.00    -0.072 A  
HETATM   36  C   UNL     1      -8.021   1.826  63.136  1.00  0.00    -0.057 A  
HETATM   37  C   UNL     1      -8.302   1.697  64.487  1.00  0.00    -0.075 A  
HETATM   38  N   UNL     1      -8.626   2.732  65.296  1.00  0.00    -0.102 NA 
ENDBRANCH  32  33
ENDBRANCH  24  29
ENDBRANCH  13  23
ENDBRANCH  10  11
ENDBRANCH   3   4
TORSDOF 5
ENDMDL
MODEL       12
REMARK 921   NORMALIZED FREE ENERGY PREDICTED BY IDOCK:   -7.77 KCAL/MOL
REMARK 922        TOTAL FREE ENERGY PREDICTED BY IDOCK:   -9.52 KCAL/MOL
REMARK 923 INTER-LIGAND FREE ENERGY PREDICTED BY IDOCK:   -8.18 KCAL/MOL
REMARK 924 INTRA-LIGAND FREE ENERGY PREDICTED BY IDOCK:   -1.34 KCAL/MOL
REMARK 927      BINDING AFFINITY PREDICTED BY RF-SCORE:    0.00 PKD
ROOT
HETATM    1  C   UNL     1      -6.004   3.312  66.364  1.00  0.00    -0.024 C  
HETATM    2  C   UNL     1      -6.604   4.232  67.414  1.00  0.00    -0.046 C  
HETATM    3  C   UNL     1      -7.119   5.021  68.315  1.00  0.00    -0.062 C  
ENDROOT
BRANCH   3   4
HETATM    4  C   UNL     1      -7.759   5.854  69.318  1.00  0.00    -0.094 C  
HETATM    5  O   UNL     1      -7.202   5.968  70.403  1.00  0.00    -0.077 OA 
HETATM    6  N   UNL     1      -8.997   6.402  69.041  1.00  0.00    -0.128 N  
HETATM    7  C   UNL     1      -9.832   6.949  70.092  1.00  0.00    -0.177 C  
HETATM    8  C   UNL     1     -11.225   6.490  69.696  1.00  0.00    -0.446 C  
HETATM    9  C   UNL     1     -11.205   6.442  68.168  1.00  0.00    -0.270 C  
HETATM   10  C   UNL     1      -9.716   6.406  67.771  1.00  0.00    -0.121 C  
BRANCH  10  11
HETATM   11  C   UNL     1      -9.376   7.644  66.969  1.00  0.00    -0.157 A  
HETATM   12  N   UNL     1      -9.717   8.893  67.258  1.00  0.00    -0.169 NA 
HETATM   13  C   UNL     1      -9.319   9.679  66.187  1.00  0.00    -0.194 A  
HETATM   14  N   UNL     1      -7.649  10.312  63.472  1.00  0.00    -0.233 NA 
HETATM   15  C   UNL     1      -8.657   8.892  65.258  1.00  0.00    -0.184 A  
HETATM   16  C   UNL     1      -7.969   9.095  63.999  1.00  0.00    -0.141 A  
HETATM   17  N   UNL     1      -8.766   7.596  65.732  1.00  0.00    -0.150 NA 
HETATM   18  H2  UNL     1      -7.915  11.141  64.004  1.00  0.00     0.000 HD 
HETATM   19  C   UNL     1      -8.323   6.532  64.963  1.00  0.00    -0.075 A  
HETATM   20  C   UNL     1      -7.766   6.796  63.773  1.00  0.00    -0.111 A  
HETATM   21  N   UNL     1      -7.562   8.067  63.289  1.00  0.00    -0.122 NA 
HETATM   22  H1  UNL     1      -7.165  10.455  62.586  1.00  0.00     0.000 HD 
BRANCH  13  23
HETATM   23  C   UNL     1      -9.595  11.118  66.146  1.00  0.00    -0.239 A  
HETATM   24  C   UNL     1     -10.011  13.926  66.020  1.00  0.00    -0.325 A  
HETATM   25  C   UNL     1      -8.938  13.397  66.750  1.00  0.00    -0.190 A  
HETATM   26  C   UNL     1     -10.708  11.661  65.481  1.00  0.00    -0.333 A  
HETATM   27  C   UNL     1      -8.739  12.005  66.812  1.00  0.00    -0.192 A  
HETATM   28  C   UNL     1     -10.902  13.052  65.395  1.00  0.00    -0.304 A  
BRANCH  24  29
HETATM   29  C   UNL     1     -10.139  15.407  65.880  1.00  0.00    -0.345 C  
HETATM   30  H   UNL     1      -9.415  15.669  67.810  1.00  0.00     0.000 HD 
HETATM   31  O   UNL     1     -10.568  15.863  64.828  1.00  0.00    -0.562 OA 
HETATM   32  N   UNL     1      -9.686  16.153  66.954  1.00  0.00    -0.230 N  
BRANCH  32  33
HETATM   33  C   UNL     1      -9.587  17.550  66.905  1.00  0.00    -0.278 A  
HETATM   34  C   UNL     1     -10.614  18.385  67.334  1.00  0.00    -0.445 A  
HETATM   35  C   UNL     1     -10.463  19.763  67.188  1.00  0.00    -0.592 A  
HETATM   36  C   UNL     1      -9.311  20.258  66.591  1.00  0.00    -0.460 A  
HETATM   37  C   UNL     1      -8.329  19.353  66.222  1.00  0.00    -0.336 A  
HETATM   38  N   UNL     1      -8.422  18.016  66.410  1.00  0.00    -0.368 NA 
ENDBRANCH  32  33
ENDBRANCH  24  29
ENDBRANCH  13  23
ENDBRANCH  10  11
ENDBRANCH   3   4
TORSDOF 5
ENDMDL
MODEL       13
REMARK 921   NORMALIZED FREE ENERGY PREDICTED BY IDOCK:   -7.65 KCAL/MOL
REMARK 922        TOTAL FREE ENERGY PREDICTED BY IDOCK:   -9.37 KCAL/MOL
REMARK 923 INTER-LIGAND FREE ENERGY PREDICTED BY IDOCK:   -8.20 KCAL/MOL
REMARK 924 INTRA-LIGAND FREE ENERGY PREDICTED BY IDOCK:   -1.17 KCAL/MOL
REMARK 927      BINDING AFFINITY PREDICTED BY RF-SCORE:    0.00 PKD
ROOT
HETATM    1  C   UNL     1     -11.123  20.214  65.149  1.00  0.00     0.502 C  
HETATM    2  C   UNL     1     -10.322  19.630  66.301  1.00  0.00    -0.619 C  
HETATM    3  C   UNL     1      -9.635  19.129  67.290  1.00  0.00    -0.375 C  
ENDROOT
BRANCH   3   4
HETATM    4  C   UNL     1      -8.878  18.642  68.429  1.00  0.00    -0.339 C  
HETATM    5  O   UNL     1      -8.984  19.253  69.486  1.00  0.00     0.016 OA 
HETATM    6  N   UNL     1      -8.015  17.577  68.253  1.00  0.00    -0.250 N  
HETATM    7  C   UNL     1      -6.997  17.261  69.236  1.00  0.00    -0.178 C  
HETATM    8  C   UNL     1      -5.800  16.888  68.379  1.00  0.00    -0.134 C  
HETATM    9  C   UNL     1      -6.395  16.264  67.117  1.00  0.00    -0.195 C  
HETATM   10  C   UNL     1      -7.865  16.724  67.078  1.00  0.00    -0.194 C  
BRANCH  10  11
HETATM   11  C   UNL     1      -8.777  15.519  67.175  1.00  0.00    -0.211 A  
HETATM   12  N   UNL     1      -8.631  14.479  67.986  1.00  0.00    -0.154 NA 
HETATM   13  C   UNL     1      -9.605  13.556  67.639  1.00  0.00    -0.222 A  
HETATM   14  N   UNL     1     -12.357  12.591  66.205  1.00  0.00    -0.539 NA 
HETATM   15  C   UNL     1     -10.404  14.083  66.638  1.00  0.00    -0.278 A  
HETATM   16  C   UNL     1     -11.585  13.675  65.903  1.00  0.00    -0.328 A  
HETATM   17  N   UNL     1      -9.823  15.293  66.303  1.00  0.00    -0.274 NA 
HETATM   18  H2  UNL     1     -12.082  12.026  67.008  1.00  0.00     0.000 HD 
HETATM   19  C   UNL     1     -10.301  16.024  65.228  1.00  0.00    -0.290 A  
HETATM   20  C   UNL     1     -11.350  15.543  64.548  1.00  0.00    -0.314 A  
HETATM   21  N   UNL     1     -12.015  14.387  64.884  1.00  0.00    -0.406 NA 
HETATM   22  H1  UNL     1     -13.188  12.305  65.687  1.00  0.00     0.000 HD 
BRANCH  13  23
HETATM   23  C   UNL     1      -9.698  12.252  68.302  1.00  0.00    -0.219 A  
HETATM   24  C   UNL     1      -9.765   9.747  69.641  1.00  0.00    -0.242 A  
HETATM   25  C   UNL     1      -8.703  10.069  68.787  1.00  0.00    -0.136 A  
HETATM   26  C   UNL     1     -10.792  11.882  69.103  1.00  0.00    -0.196 A  
HETATM   27  C   UNL     1      -8.677  11.310  68.123  1.00  0.00    -0.155 A  
HETATM   28  C   UNL     1     -10.816  10.653  69.788  1.00  0.00    -0.317 A  
BRANCH  24  29
HETATM   29  C   UNL     1      -9.717   8.471  70.416  1.00  0.00    -0.175 C  
HETATM   30  H   UNL     1     -10.518   9.430  72.076  1.00  0.00     0.000 HD 
HETATM   31  O   UNL     1      -9.282   7.467  69.869  1.00  0.00    -0.145 OA 
HETATM   32  N   UNL     1     -10.247   8.525  71.693  1.00  0.00    -0.239 N  
BRANCH  32  33
HETATM   33  C   UNL     1     -10.425   7.377  72.478  1.00  0.00    -0.236 A  
HETATM   34  C   UNL     1     -11.408   6.432  72.202  1.00  0.00    -0.332 A  
HETATM   35  C   UNL     1     -11.563   5.353  73.072  1.00  0.00    -0.268 A  
HETATM   36  C   UNL     1     -10.759   5.272  74.201  1.00  0.00    -0.232 A  
HETATM   37  C   UNL     1      -9.787   6.244  74.377  1.00  0.00    -0.306 A  
HETATM   38  N   UNL     1      -9.572   7.266  73.516  1.00  0.00    -0.221 NA 
ENDBRANCH  32  33
ENDBRANCH  24  29
ENDBRANCH  13  23
ENDBRANCH  10  11
ENDBRANCH   3   4
TORSDOF 5
ENDMDL
MODEL       14
REMARK 921   NORMALIZED FREE ENERGY PREDICTED BY IDOCK:   -7.63 KCAL/MOL
REMARK 922        TOTAL FREE ENERGY PREDICTED BY IDOCK:   -9.33 KCAL/MOL
REMARK 923 INTER-LIGAND FREE ENERGY PREDICTED BY IDOCK:   -8.59 KCAL/MOL
REMARK 924 INTRA-LIGAND FREE ENERGY PREDICTED BY IDOCK:   -0.75 KCAL/MOL
REMARK 927      BINDING AFFINITY PREDICTED BY RF-SCORE:    0.00 PKD
ROOT
HETATM    1  C   UNL     1      -9.984   2.895  72.416  1.00  0.00    -0.235 C  
HETATM    2  C   UNL     1      -9.719   3.418  71.014  1.00  0.00    -0.216 C  
HETATM    3  C   UNL     1      -9.492   3.866  69.810  1.00  0.00    -0.264 C  
ENDROOT
BRANCH   3   4
HETATM    4  C   UNL     1      -9.279   4.301  68.441  1.00  0.00    -0.139 C  
HETATM    5  O   UNL     1      -9.774   3.627  67.546  1.00  0.00    -0.184 OA 
HETATM    6  N   UNL     1      -8.463   5.391  68.205  1.00  0.00    -0.097 N  
HETATM    7  C   UNL     1      -7.941   5.669  66.882  1.00  0.00    -0.102 C  
HETATM    8  C   UNL     1      -6.516   6.115  67.163  1.00  0.00    -0.050 C  
HETATM    9  C   UNL     1      -6.579   6.800  68.528  1.00  0.00    -0.058 C  
HETATM   10  C   UNL     1      -7.889   6.313  69.179  1.00  0.00    -0.105 C  
BRANCH  10  11
HETATM   11  C   UNL     1      -8.812   7.493  69.404  1.00  0.00    -0.136 A  
HETATM   12  N   UNL     1      -8.901   8.583  68.653  1.00  0.00    -0.135 NA 
HETATM   13  C   UNL     1      -9.763   9.453  69.303  1.00  0.00    -0.172 A  
HETATM   14  N   UNL     1     -12.054  10.242  71.468  1.00  0.00    -0.355 NA 
HETATM   15  C   UNL     1     -10.262   8.842  70.442  1.00  0.00    -0.197 A  
HETATM   16  C   UNL     1     -11.213   9.167  71.486  1.00  0.00    -0.360 A  
HETATM   17  N   UNL     1      -9.594   7.633  70.532  1.00  0.00    -0.168 NA 
HETATM   18  H2  UNL     1     -12.009  10.863  70.660  1.00  0.00     0.000 HD 
HETATM   19  C   UNL     1      -9.762   6.824  71.644  1.00  0.00    -0.162 A  
HETATM   20  C   UNL     1     -10.601   7.230  72.606  1.00  0.00    -0.266 A  
HETATM   21  N   UNL     1     -11.349   8.383  72.532  1.00  0.00    -0.374 NA 
HETATM   22  H1  UNL     1     -12.723  10.470  72.203  1.00  0.00     0.000 HD 
BRANCH  13  23
HETATM   23  C   UNL     1     -10.047  10.791  68.775  1.00  0.00    -0.202 A  
HETATM   24  C   UNL     1     -10.682  13.399  67.846  1.00  0.00    -0.259 A  
HETATM   25  C   UNL     1     -11.685  12.433  67.994  1.00  0.00    -0.414 A  
HETATM   26  C   UNL     1      -9.043  11.748  68.549  1.00  0.00    -0.144 A  
HETATM   27  C   UNL     1     -11.364  11.140  68.451  1.00  0.00    -0.357 A  
HETATM   28  C   UNL     1      -9.358  13.049  68.114  1.00  0.00    -0.217 A  
BRANCH  24  29
HETATM   29  C   UNL     1     -11.061  14.792  67.463  1.00  0.00    -0.319 C  
HETATM   30  H   UNL     1      -9.496  15.549  68.602  1.00  0.00     0.000 HD 
HETATM   31  O   UNL     1     -12.023  14.957  66.725  1.00  0.00    -0.263 OA 
HETATM   32  N   UNL     1     -10.228  15.792  67.934  1.00  0.00    -0.238 N  
BRANCH  32  33
HETATM   33  C   UNL     1     -10.355  17.126  67.525  1.00  0.00    -0.341 A  
HETATM   34  C   UNL     1     -10.378  17.494  66.183  1.00  0.00    -0.330 A  
HETATM   35  C   UNL     1     -10.439  18.850  65.862  1.00  0.00    -0.450 A  
HETATM   36  C   UNL     1     -10.441  19.789  66.884  1.00  0.00    -0.596 A  
HETATM   37  C   UNL     1     -10.447  19.327  68.191  1.00  0.00    -0.349 A  
HETATM   38  N   UNL     1     -10.453  18.018  68.532  1.00  0.00    -0.333 NA 
ENDBRANCH  32  33
ENDBRANCH  24  29
ENDBRANCH  13  23
ENDBRANCH  10  11
ENDBRANCH   3   4
TORSDOF 5
ENDMDL
MODEL       15
REMARK 921   NORMALIZED FREE ENERGY PREDICTED BY IDOCK:   -7.62 KCAL/MOL
REMARK 922        TOTAL FREE ENERGY PREDICTED BY IDOCK:   -9.32 KCAL/MOL
REMARK 923 INTER-LIGAND FREE ENERGY PREDICTED BY IDOCK:   -9.40 KCAL/MOL
REMARK 924 INTRA-LIGAND FREE ENERGY PREDICTED BY IDOCK:    0.07 KCAL/MOL
REMARK 927      BINDING AFFINITY PREDICTED BY RF-SCORE:    0.00 PKD
ROOT
HETATM    1  C   UNL     1      -7.943   6.370  64.760  1.00  0.00    -0.121 C  
HETATM    2  C   UNL     1      -7.837   6.429  66.275  1.00  0.00    -0.101 C  
HETATM    3  C   UNL     1      -7.746   6.480  67.575  1.00  0.00    -0.106 C  
ENDROOT
BRANCH   3   4
HETATM    4  C   UNL     1      -7.587   6.480  69.018  1.00  0.00    -0.100 C  
HETATM    5  O   UNL     1      -6.447   6.440  69.465  1.00  0.00    -0.040 OA 
HETATM    6  N   UNL     1      -8.715   6.435  69.816  1.00  0.00    -0.137 N  
HETATM    7  C   UNL     1      -8.630   6.096  71.223  1.00  0.00    -0.129 C  
HETATM    8  C   UNL     1      -9.848   5.214  71.435  1.00  0.00    -0.239 C  
HETATM    9  C   UNL     1     -10.894   5.741  70.453  1.00  0.00    -0.360 C  
HETATM   10  C   UNL     1     -10.110   6.560  69.409  1.00  0.00    -0.172 C  
BRANCH  10  11
HETATM   11  C   UNL     1     -10.554   8.007  69.464  1.00  0.00    -0.214 A  
HETATM   12  N   UNL     1     -10.152   8.989  68.668  1.00  0.00    -0.184 NA 
HETATM   13  C   UNL     1     -10.702  10.162  69.163  1.00  0.00    -0.226 A  
HETATM   14  N   UNL     1     -12.769  11.900  70.970  1.00  0.00    -0.316 NA 
HETATM   15  C   UNL     1     -11.514   9.869  70.247  1.00  0.00    -0.281 A  
HETATM   16  C   UNL     1     -12.389  10.600  71.140  1.00  0.00    -0.400 A  
HETATM   17  N   UNL     1     -11.352   8.513  70.470  1.00  0.00    -0.249 NA 
HETATM   18  H2  UNL     1     -12.410  12.393  70.152  1.00  0.00     0.000 HD 
HETATM   19  C   UNL     1     -11.927   7.914  71.580  1.00  0.00    -0.301 A  
HETATM   20  C   UNL     1     -12.661   8.674  72.403  1.00  0.00    -0.362 A  
HETATM   21  N   UNL     1     -12.919  10.008  72.187  1.00  0.00    -0.407 NA 
HETATM   22  H1  UNL     1     -13.385  12.415  71.599  1.00  0.00     0.000 HD 
BRANCH  13  23
HETATM   23  C   UNL     1     -10.414  11.463  68.552  1.00  0.00    -0.223 A  
HETATM   24  C   UNL     1      -9.950  14.035  67.439  1.00  0.00    -0.243 A  
HETATM   25  C   UNL     1     -11.216  13.441  67.354  1.00  0.00    -0.311 A  
HETATM   26  C   UNL     1      -9.133  12.041  68.561  1.00  0.00    -0.107 A  
HETATM   27  C   UNL     1     -11.439  12.164  67.904  1.00  0.00    -0.392 A  
HETATM   28  C   UNL     1      -8.906  13.326  68.034  1.00  0.00    -0.190 A  
BRANCH  24  29
HETATM   29  C   UNL     1      -9.765  15.432  66.944  1.00  0.00    -0.231 C  
HETATM   30  H   UNL     1     -11.266  16.100  68.216  1.00  0.00     0.000 HD 
HETATM   31  O   UNL     1      -8.917  15.644  66.086  1.00  0.00    -0.323 OA 
HETATM   32  N   UNL     1     -10.540  16.396  67.564  1.00  0.00    -0.312 N  
BRANCH  32  33
HETATM   33  C   UNL     1     -10.361  17.766  67.327  1.00  0.00    -0.363 A  
HETATM   34  C   UNL     1     -10.635  18.350  66.094  1.00  0.00    -0.346 A  
HETATM   35  C   UNL     1     -10.365  19.707  65.921  1.00  0.00    -0.584 A  
HETATM   36  C   UNL     1      -9.801  20.424  66.967  1.00  0.00    -0.594 A  
HETATM   37  C   UNL     1      -9.591  19.765  68.168  1.00  0.00    -0.380 A  
HETATM   38  N   UNL     1      -9.903  18.466  68.384  1.00  0.00    -0.351 NA 
ENDBRANCH  32  33
ENDBRANCH  24  29
ENDBRANCH  13  23
ENDBRANCH  10  11
ENDBRANCH   3   4
TORSDOF 5
ENDMDL
MODEL       16
REMARK 921   NORMALIZED FREE ENERGY PREDICTED BY IDOCK:   -7.52 KCAL/MOL
REMARK 922        TOTAL FREE ENERGY PREDICTED BY IDOCK:   -9.19 KCAL/MOL
REMARK 923 INTER-LIGAND FREE ENERGY PREDICTED BY IDOCK:   -8.02 KCAL/MOL
REMARK 924 INTRA-LIGAND FREE ENERGY PREDICTED BY IDOCK:   -1.17 KCAL/MOL
REMARK 927      BINDING AFFINITY PREDICTED BY RF-SCORE:    0.00 PKD
ROOT
HETATM    1  C   UNL     1     -11.114  20.209  65.090  1.00  0.00     0.502 C  
HETATM    2  C   UNL     1     -10.308  19.676  66.263  1.00  0.00    -0.619 C  
HETATM    3  C   UNL     1      -9.616  19.218  67.269  1.00  0.00    -0.394 C  
ENDROOT
BRANCH   3   4
HETATM    4  C   UNL     1      -8.908  18.728  68.439  1.00  0.00    -0.342 C  
HETATM    5  O   UNL     1      -9.029  19.358  69.482  1.00  0.00    -0.031 OA 
HETATM    6  N   UNL     1      -8.069  17.638  68.304  1.00  0.00    -0.268 N  
HETATM    7  C   UNL     1      -7.090  17.310  69.322  1.00  0.00    -0.155 C  
HETATM    8  C   UNL     1      -5.878  16.892  68.508  1.00  0.00    -0.135 C  
HETATM    9  C   UNL     1      -6.452  16.265  67.238  1.00  0.00    -0.223 C  
HETATM   10  C   UNL     1      -7.907  16.764  67.147  1.00  0.00    -0.177 C  
BRANCH  10  11
HETATM   11  C   UNL     1      -8.853  15.585  67.233  1.00  0.00    -0.201 A  
HETATM   12  N   UNL     1      -8.764  14.558  68.068  1.00  0.00    -0.160 NA 
HETATM   13  C   UNL     1      -9.750  13.654  67.703  1.00  0.00    -0.228 A  
HETATM   14  N   UNL     1     -12.475  12.735  66.190  1.00  0.00    -0.451 NA 
HETATM   15  C   UNL     1     -10.499  14.182  66.665  1.00  0.00    -0.278 A  
HETATM   16  C   UNL     1     -11.664  13.792  65.896  1.00  0.00    -0.352 A  
HETATM   17  N   UNL     1      -9.874  15.370  66.329  1.00  0.00    -0.276 NA 
HETATM   18  H2  UNL     1     -12.244  12.177  67.013  1.00  0.00     0.000 HD 
HETATM   19  C   UNL     1     -10.295  16.093  65.224  1.00  0.00    -0.252 A  
HETATM   20  C   UNL     1     -11.331  15.627  64.516  1.00  0.00    -0.320 A  
HETATM   21  N   UNL     1     -12.038  14.495  64.850  1.00  0.00    -0.417 NA 
HETATM   22  H1  UNL     1     -13.294  12.460  65.648  1.00  0.00     0.000 HD 
BRANCH  13  23
HETATM   23  C   UNL     1      -9.901  12.365  68.386  1.00  0.00    -0.198 A  
HETATM   24  C   UNL     1     -10.309   9.856  69.654  1.00  0.00    -0.265 A  
HETATM   25  C   UNL     1     -11.233  10.895  69.820  1.00  0.00    -0.351 A  
HETATM   26  C   UNL     1      -8.948  11.338  68.291  1.00  0.00    -0.172 A  
HETATM   27  C   UNL     1     -11.024  12.138  69.193  1.00  0.00    -0.215 A  
HETATM   28  C   UNL     1      -9.159  10.085  68.896  1.00  0.00    -0.159 A  
BRANCH  24  29
HETATM   29  C   UNL     1     -10.605   8.514  70.240  1.00  0.00    -0.226 C  
HETATM   30  H   UNL     1      -8.720   7.838  69.689  1.00  0.00     0.000 HD 
HETATM   31  O   UNL     1     -11.700   8.328  70.756  1.00  0.00    -0.277 OA 
HETATM   32  N   UNL     1      -9.566   7.602  70.208  1.00  0.00    -0.172 N  
BRANCH  32  33
HETATM   33  C   UNL     1      -9.635   6.366  70.864  1.00  0.00    -0.175 A  
HETATM   34  C   UNL     1      -9.748   5.162  70.174  1.00  0.00    -0.274 A  
HETATM   35  C   UNL     1      -9.881   3.982  70.903  1.00  0.00    -0.229 A  
HETATM   36  C   UNL     1      -9.930   4.044  72.289  1.00  0.00    -0.236 A  
HETATM   37  C   UNL     1      -9.779   5.283  72.890  1.00  0.00    -0.144 A  
HETATM   38  N   UNL     1      -9.585   6.437  72.209  1.00  0.00    -0.152 NA 
ENDBRANCH  32  33
ENDBRANCH  24  29
ENDBRANCH  13  23
ENDBRANCH  10  11
ENDBRANCH   3   4
TORSDOF 5
ENDMDL
MODEL       17
REMARK 921   NORMALIZED FREE ENERGY PREDICTED BY IDOCK:   -7.48 KCAL/MOL
REMARK 922        TOTAL FREE ENERGY PREDICTED BY IDOCK:   -9.14 KCAL/MOL
REMARK 923 INTER-LIGAND FREE ENERGY PREDICTED BY IDOCK:   -7.94 KCAL/MOL
REMARK 924 INTRA-LIGAND FREE ENERGY PREDICTED BY IDOCK:   -1.20 KCAL/MOL
REMARK 927      BINDING AFFINITY PREDICTED BY RF-SCORE:    0.00 PKD
ROOT
HETATM    1  C   UNL     1      -9.406   2.734  68.726  1.00  0.00    -0.234 C  
HETATM    2  C   UNL     1      -9.238   3.443  67.393  1.00  0.00    -0.228 C  
HETATM    3  C   UNL     1      -9.094   4.053  66.249  1.00  0.00    -0.139 C  
ENDROOT
BRANCH   3   4
HETATM    4  C   UNL     1      -8.970   4.796  65.007  1.00  0.00    -0.153 C  
HETATM    5  O   UNL     1      -9.530   4.344  64.016  1.00  0.00    -0.150 OA 
HETATM    6  N   UNL     1      -8.164   5.918  64.977  1.00  0.00    -0.135 N  
HETATM    7  C   UNL     1      -7.730   6.501  63.723  1.00  0.00    -0.108 C  
HETATM    8  C   UNL     1      -6.287   6.881  64.004  1.00  0.00    -0.039 C  
HETATM    9  C   UNL     1      -6.253   7.229  65.492  1.00  0.00    -0.038 C  
HETATM   10  C   UNL     1      -7.519   6.593  66.098  1.00  0.00    -0.081 C  
BRANCH  10  11
HETATM   11  C   UNL     1      -8.416   7.681  66.653  1.00  0.00    -0.130 A  
HETATM   12  N   UNL     1      -8.554   8.912  66.178  1.00  0.00    -0.133 NA 
HETATM   13  C   UNL     1      -9.361   9.600  67.071  1.00  0.00    -0.147 A  
HETATM   14  N   UNL     1     -11.482   9.850  69.520  1.00  0.00    -0.435 NA 
HETATM   15  C   UNL     1      -9.778   8.741  68.074  1.00  0.00    -0.157 A  
HETATM   16  C   UNL     1     -10.648   8.809  69.231  1.00  0.00    -0.197 A  
HETATM   17  N   UNL     1      -9.113   7.551  67.837  1.00  0.00    -0.131 NA 
HETATM   18  H2  UNL     1     -11.494  10.639  68.873  1.00  0.00     0.000 HD 
HETATM   19  C   UNL     1      -9.202   6.508  68.745  1.00  0.00    -0.131 A  
HETATM   20  C   UNL     1      -9.966   6.676  69.833  1.00  0.00    -0.171 A  
HETATM   21  N   UNL     1     -10.711   7.806  70.078  1.00  0.00    -0.243 NA 
HETATM   22  H1  UNL     1     -12.094   9.898  70.335  1.00  0.00     0.000 HD 
BRANCH  13  23
HETATM   23  C   UNL     1      -9.676  11.020  66.883  1.00  0.00    -0.215 A  
HETATM   24  C   UNL     1     -10.162  13.793  66.501  1.00  0.00    -0.284 A  
HETATM   25  C   UNL     1      -9.272  13.356  67.490  1.00  0.00    -0.219 A  
HETATM   26  C   UNL     1     -10.622  11.472  65.947  1.00  0.00    -0.318 A  
HETATM   27  C   UNL     1      -9.038  11.981  67.678  1.00  0.00    -0.179 A  
HETATM   28  C   UNL     1     -10.845  12.846  65.737  1.00  0.00    -0.292 A  
BRANCH  24  29
HETATM   29  C   UNL     1     -10.312  15.257  66.249  1.00  0.00    -0.294 C  
HETATM   30  H   UNL     1      -9.338  15.682  68.034  1.00  0.00     0.000 HD 
HETATM   31  O   UNL     1     -10.879  15.623  65.227  1.00  0.00    -0.372 OA 
HETATM   32  N   UNL     1      -9.722  16.091  67.182  1.00  0.00    -0.226 N  
BRANCH  32  33
HETATM   33  C   UNL     1      -9.635  17.477  66.998  1.00  0.00    -0.268 A  
HETATM   34  C   UNL     1      -8.502  18.087  66.467  1.00  0.00    -0.285 A  
HETATM   35  C   UNL     1      -8.469  19.479  66.380  1.00  0.00    -0.373 A  
HETATM   36  C   UNL     1      -9.548  20.212  66.854  1.00  0.00    -0.564 A  
HETATM   37  C   UNL     1     -10.645  19.517  67.337  1.00  0.00    -0.485 A  
HETATM   38  N   UNL     1     -10.730  18.167  67.375  1.00  0.00    -0.384 NA 
ENDBRANCH  32  33
ENDBRANCH  24  29
ENDBRANCH  13  23
ENDBRANCH  10  11
ENDBRANCH   3   4
TORSDOF 5
ENDMDL
MODEL       18
REMARK 921   NORMALIZED FREE ENERGY PREDICTED BY IDOCK:   -7.31 KCAL/MOL
REMARK 922        TOTAL FREE ENERGY PREDICTED BY IDOCK:   -8.92 KCAL/MOL
REMARK 923 INTER-LIGAND FREE ENERGY PREDICTED BY IDOCK:   -8.39 KCAL/MOL
REMARK 924 INTRA-LIGAND FREE ENERGY PREDICTED BY IDOCK:   -0.53 KCAL/MOL
REMARK 927      BINDING AFFINITY PREDICTED BY RF-SCORE:    0.00 PKD
ROOT
HETATM    1  C   UNL     1     -10.898   4.390  65.111  1.00  0.00    -0.100 C  
HETATM    2  C   UNL     1      -9.734   5.043  65.837  1.00  0.00    -0.182 C  
HETATM    3  C   UNL     1      -8.734   5.603  66.460  1.00  0.00    -0.121 C  
ENDROOT
BRANCH   3   4
HETATM    4  C   UNL     1      -7.625   6.167  67.209  1.00  0.00    -0.093 C  
HETATM    5  O   UNL     1      -6.570   6.348  66.613  1.00  0.00    -0.045 OA 
HETATM    6  N   UNL     1      -7.777   6.389  68.564  1.00  0.00    -0.103 N  
HETATM    7  C   UNL     1      -6.633   6.624  69.423  1.00  0.00    -0.048 C  
HETATM    8  C   UNL     1      -6.983   5.845  70.679  1.00  0.00    -0.062 C  
HETATM    9  C   UNL     1      -8.508   5.910  70.772  1.00  0.00    -0.129 C  
HETATM   10  C   UNL     1      -8.995   6.293  69.361  1.00  0.00    -0.126 C  
BRANCH  10  11
HETATM   11  C   UNL     1      -9.704   7.630  69.416  1.00  0.00    -0.165 A  
HETATM   12  N   UNL     1      -9.506   8.665  68.610  1.00  0.00    -0.142 NA 
HETATM   13  C   UNL     1     -10.260   9.716  69.108  1.00  0.00    -0.202 A  
HETATM   14  N   UNL     1     -12.597  11.044  70.936  1.00  0.00    -0.377 NA 
HETATM   15  C   UNL     1     -10.989   9.282  70.204  1.00  0.00    -0.246 A  
HETATM   16  C   UNL     1     -11.976   9.841  71.106  1.00  0.00    -0.376 A  
HETATM   17  N   UNL     1     -10.570   7.982  70.431  1.00  0.00    -0.220 NA 
HETATM   18  H2  UNL     1     -12.347  11.591  70.111  1.00  0.00     0.000 HD 
HETATM   19  C   UNL     1     -11.009   7.293  71.550  1.00  0.00    -0.233 A  
HETATM   20  C   UNL     1     -11.862   7.906  72.381  1.00  0.00    -0.348 A  
HETATM   21  N   UNL     1     -12.371   9.165  72.163  1.00  0.00    -0.368 NA 
HETATM   22  H1  UNL     1     -13.291  11.437  71.571  1.00  0.00     0.000 HD 
BRANCH  13  23
HETATM   23  C   UNL     1     -10.232  11.044  68.488  1.00  0.00    -0.203 A  
HETATM   24  C   UNL     1     -10.274  13.651  67.361  1.00  0.00    -0.241 A  
HETATM   25  C   UNL     1     -11.417  12.843  67.328  1.00  0.00    -0.388 A  
HETATM   26  C   UNL     1      -9.073  11.838  68.446  1.00  0.00    -0.176 A  
HETATM   27  C   UNL     1     -11.390  11.550  67.884  1.00  0.00    -0.372 A  
HETATM   28  C   UNL     1      -9.098  13.140  67.912  1.00  0.00    -0.207 A  
BRANCH  24  29
HETATM   29  C   UNL     1     -10.358  15.056  66.861  1.00  0.00    -0.266 C  
HETATM   30  H   UNL     1      -9.545  15.756  68.641  1.00  0.00     0.000 HD 
HETATM   31  O   UNL     1     -10.815  15.256  65.743  1.00  0.00    -0.335 OA 
HETATM   32  N   UNL     1      -9.836  16.024  67.700  1.00  0.00    -0.233 N  
BRANCH  32  33
HETATM   33  C   UNL     1      -9.691  17.360  67.303  1.00  0.00    -0.267 A  
HETATM   34  C   UNL     1      -8.552  17.824  66.652  1.00  0.00    -0.280 A  
HETATM   35  C   UNL     1      -8.459  19.183  66.352  1.00  0.00    -0.325 A  
HETATM   36  C   UNL     1      -9.485  20.034  66.739  1.00  0.00    -0.530 A  
HETATM   37  C   UNL     1     -10.594  19.477  67.355  1.00  0.00    -0.485 A  
HETATM   38  N   UNL     1     -10.739  18.154  67.601  1.00  0.00    -0.399 NA 
ENDBRANCH  32  33
ENDBRANCH  24  29
ENDBRANCH  13  23
ENDBRANCH  10  11
ENDBRANCH   3   4
TORSDOF 5
ENDMDL
MODEL       19
REMARK 921   NORMALIZED FREE ENERGY PREDICTED BY IDOCK:   -7.19 KCAL/MOL
REMARK 922        TOTAL FREE ENERGY PREDICTED BY IDOCK:   -8.77 KCAL/MOL
REMARK 923 INTER-LIGAND FREE ENERGY PREDICTED BY IDOCK:   -7.95 KCAL/MOL
REMARK 924 INTRA-LIGAND FREE ENERGY PREDICTED BY IDOCK:   -0.82 KCAL/MOL
REMARK 927      BINDING AFFINITY PREDICTED BY RF-SCORE:    0.00 PKD
ROOT
HETATM    1  C   UNL     1      -5.283  18.588  71.199  1.00  0.00    -0.277 C  
HETATM    2  C   UNL     1      -5.909  18.611  69.814  1.00  0.00    -0.261 C  
HETATM    3  C   UNL     1      -6.446  18.631  68.626  1.00  0.00    -0.247 C  
ENDROOT
BRANCH   3   4
HETATM    4  C   UNL     1      -7.104  18.700  67.333  1.00  0.00    -0.206 C  
HETATM    5  O   UNL     1      -6.405  18.917  66.350  1.00  0.00    -0.183 OA 
HETATM    6  N   UNL     1      -8.482  18.607  67.278  1.00  0.00    -0.263 N  
HETATM    7  C   UNL     1      -9.217  18.999  66.091  1.00  0.00    -0.201 C  
HETATM    8  C   UNL     1     -10.435  19.704  66.662  1.00  0.00    -0.610 C  
HETATM    9  C   UNL     1     -10.712  19.001  67.991  1.00  0.00    -0.297 C  
HETATM   10  C   UNL     1      -9.405  18.270  68.356  1.00  0.00    -0.314 C  
BRANCH  10  11
HETATM   11  C   UNL     1      -9.655  16.776  68.396  1.00  0.00    -0.241 A  
HETATM   12  N   UNL     1      -9.202  15.874  67.535  1.00  0.00    -0.206 NA 
HETATM   13  C   UNL     1      -9.787  14.664  67.874  1.00  0.00    -0.217 A  
HETATM   14  N   UNL     1     -11.370  12.617  69.839  1.00  0.00    -0.505 NA 
HETATM   15  C   UNL     1     -10.558  14.826  69.013  1.00  0.00    -0.248 A  
HETATM   16  C   UNL     1     -11.350  13.980  69.883  1.00  0.00    -0.145 A  
HETATM   17  N   UNL     1     -10.525  16.182  69.288  1.00  0.00    -0.246 NA 
HETATM   18  H2  UNL     1     -10.785  12.158  69.140  1.00  0.00     0.000 HD 
HETATM   19  C   UNL     1     -11.313  16.709  70.298  1.00  0.00     0.115 A  
HETATM   20  C   UNL     1     -12.078  15.872  71.010  1.00  0.00    -0.395 A  
HETATM   21  N   UNL     1     -12.091  14.508  70.832  1.00  0.00    -0.317 NA 
HETATM   22  H1  UNL     1     -11.928  12.022  70.452  1.00  0.00     0.000 HD 
BRANCH  13  23
HETATM   23  C   UNL     1      -9.549  13.449  67.087  1.00  0.00    -0.241 A  
HETATM   24  C   UNL     1      -9.102  11.028  65.669  1.00  0.00    -0.223 A  
HETATM   25  C   UNL     1      -8.292  11.376  66.758  1.00  0.00    -0.163 A  
HETATM   26  C   UNL     1     -10.304  13.122  65.947  1.00  0.00    -0.295 A  
HETATM   27  C   UNL     1      -8.516  12.578  67.454  1.00  0.00    -0.181 A  
HETATM   28  C   UNL     1     -10.102  11.912  65.259  1.00  0.00    -0.290 A  
BRANCH  24  29
HETATM   29  C   UNL     1      -8.915   9.699  65.014  1.00  0.00    -0.212 C  
HETATM   30  H   UNL     1      -8.188   8.907  66.792  1.00  0.00     0.000 HD 
HETATM   31  O   UNL     1      -9.213   9.579  63.833  1.00  0.00    -0.213 OA 
HETATM   32  N   UNL     1      -8.475   8.680  65.840  1.00  0.00    -0.137 N  
BRANCH  32  33
HETATM   33  C   UNL     1      -8.412   7.347  65.413  1.00  0.00    -0.092 A  
HETATM   34  C   UNL     1      -7.646   6.950  64.321  1.00  0.00    -0.108 A  
HETATM   35  C   UNL     1      -7.691   5.616  63.920  1.00  0.00    -0.095 A  
HETATM   36  C   UNL     1      -8.521   4.733  64.598  1.00  0.00    -0.139 A  
HETATM   37  C   UNL     1      -9.223   5.211  65.692  1.00  0.00    -0.151 A  
HETATM   38  N   UNL     1      -9.149   6.485  66.142  1.00  0.00    -0.150 NA 
ENDBRANCH  32  33
ENDBRANCH  24  29
ENDBRANCH  13  23
ENDBRANCH  10  11
ENDBRANCH   3   4
TORSDOF 5
ENDMDL
MODEL       20
REMARK 921   NORMALIZED FREE ENERGY PREDICTED BY IDOCK:   -7.19 KCAL/MOL
REMARK 922        TOTAL FREE ENERGY PREDICTED BY IDOCK:   -8.77 KCAL/MOL
REMARK 923 INTER-LIGAND FREE ENERGY PREDICTED BY IDOCK:   -8.78 KCAL/MOL
REMARK 924 INTRA-LIGAND FREE ENERGY PREDICTED BY IDOCK:    0.01 KCAL/MOL
REMARK 927      BINDING AFFINITY PREDICTED BY RF-SCORE:    0.00 PKD
ROOT
HETATM    1  C   UNL     1      -7.895   7.296  62.792  1.00  0.00    -0.131 C  
HETATM    2  C   UNL     1      -7.682   6.994  64.266  1.00  0.00    -0.117 C  
HETATM    3  C   UNL     1      -7.498   6.735  65.531  1.00  0.00    -0.083 C  
ENDROOT
BRANCH   3   4
HETATM    4  C   UNL     1      -7.346   6.385  66.932  1.00  0.00    -0.079 C  
HETATM    5  O   UNL     1      -6.213   6.167  67.345  1.00  0.00    -0.026 OA 
HETATM    6  N   UNL     1      -8.479   6.227  67.708  1.00  0.00    -0.117 N  
HETATM    7  C   UNL     1      -8.424   5.562  68.995  1.00  0.00    -0.101 C  
HETATM    8  C   UNL     1      -9.698   4.735  69.007  1.00  0.00    -0.248 C  
HETATM    9  C   UNL     1     -10.702   5.545  68.187  1.00  0.00    -0.160 C  
HETATM   10  C   UNL     1      -9.861   6.535  67.357  1.00  0.00    -0.133 C  
BRANCH  10  11
HETATM   11  C   UNL     1     -10.209   7.954  67.756  1.00  0.00    -0.216 A  
HETATM   12  N   UNL     1     -10.092   9.039  67.002  1.00  0.00    -0.226 NA 
HETATM   13  C   UNL     1     -10.387  10.126  67.810  1.00  0.00    -0.210 A  
HETATM   14  N   UNL     1     -11.605  11.575  70.452  1.00  0.00    -0.503 NA 
HETATM   15  C   UNL     1     -10.761   9.679  69.067  1.00  0.00    -0.211 A  
HETATM   16  C   UNL     1     -11.230  10.271  70.304  1.00  0.00    -0.323 A  
HETATM   17  N   UNL     1     -10.571   8.308  69.039  1.00  0.00    -0.191 NA 
HETATM   18  H2  UNL     1     -11.550  12.178  69.631  1.00  0.00     0.000 HD 
HETATM   19  C   UNL     1     -10.725   7.559  70.195  1.00  0.00    -0.239 A  
HETATM   20  C   UNL     1     -11.086   8.191  71.319  1.00  0.00    -0.248 A  
HETATM   21  N   UNL     1     -11.363   9.536  71.386  1.00  0.00    -0.376 NA 
HETATM   22  H1  UNL     1     -11.934  11.991  71.322  1.00  0.00     0.000 HD 
BRANCH  13  23
HETATM   23  C   UNL     1     -10.299  11.502  67.309  1.00  0.00    -0.236 A  
HETATM   24  C   UNL     1     -10.217  14.200  66.426  1.00  0.00    -0.292 A  
HETATM   25  C   UNL     1     -11.425  13.490  66.434  1.00  0.00    -0.356 A  
HETATM   26  C   UNL     1      -9.085  12.204  67.225  1.00  0.00    -0.181 A  
HETATM   27  C   UNL     1     -11.459  12.152  66.868  1.00  0.00    -0.414 A  
HETATM   28  C   UNL     1      -9.045  13.549  66.812  1.00  0.00    -0.223 A  
BRANCH  24  29
HETATM   29  C   UNL     1     -10.224  15.649  66.063  1.00  0.00    -0.335 C  
HETATM   30  H   UNL     1      -9.594  16.150  67.978  1.00  0.00     0.000 HD 
HETATM   31  O   UNL     1     -10.556  15.969  64.929  1.00  0.00    -0.587 OA 
HETATM   32  N   UNL     1      -9.778  16.516  67.045  1.00  0.00    -0.244 N  
BRANCH  32  33
HETATM   33  C   UNL     1      -9.570  17.880  66.799  1.00  0.00    -0.305 A  
HETATM   34  C   UNL     1      -8.296  18.431  66.689  1.00  0.00    -0.280 A  
HETATM   35  C   UNL     1      -8.175  19.809  66.513  1.00  0.00    -0.363 A  
HETATM   36  C   UNL     1      -9.322  20.591  66.487  1.00  0.00    -0.278 A  
HETATM   37  C   UNL     1     -10.548  19.951  66.573  1.00  0.00    -0.415 A  
HETATM   38  N   UNL     1     -10.696  18.611  66.681  1.00  0.00    -0.334 NA 
ENDBRANCH  32  33
ENDBRANCH  24  29
ENDBRANCH  13  23
ENDBRANCH  10  11
ENDBRANCH   3   4
TORSDOF 5
ENDMDL
MODEL       21
REMARK 921   NORMALIZED FREE ENERGY PREDICTED BY IDOCK:   -7.15 KCAL/MOL
REMARK 922        TOTAL FREE ENERGY PREDICTED BY IDOCK:   -8.72 KCAL/MOL
REMARK 923 INTER-LIGAND FREE ENERGY PREDICTED BY IDOCK:   -7.77 KCAL/MOL
REMARK 924 INTRA-LIGAND FREE ENERGY PREDICTED BY IDOCK:   -0.95 KCAL/MOL
REMARK 927      BINDING AFFINITY PREDICTED BY RF-SCORE:    0.00 PKD
ROOT
HETATM    1  C   UNL     1     -12.890  15.429  71.174  1.00  0.00    -0.520 C  
HETATM    2  C   UNL     1     -11.495  15.396  70.574  1.00  0.00    -0.354 C  
HETATM    3  C   UNL     1     -10.297  15.368  70.059  1.00  0.00    -0.288 C  
ENDROOT
BRANCH   3   4
HETATM    4  C   UNL     1      -8.974  15.413  69.462  1.00  0.00    -0.229 C  
HETATM    5  O   UNL     1      -8.010  15.246  70.199  1.00  0.00     0.076 OA 
HETATM    6  N   UNL     1      -8.856  15.727  68.121  1.00  0.00    -0.176 N  
HETATM    7  C   UNL     1      -7.584  16.117  67.547  1.00  0.00    -0.148 C  
HETATM    8  C   UNL     1      -7.967  17.237  66.595  1.00  0.00    -0.296 C  
HETATM    9  C   UNL     1      -9.372  16.879  66.110  1.00  0.00    -0.268 C  
HETATM   10  C   UNL     1      -9.920  15.864  67.132  1.00  0.00    -0.240 C  
BRANCH  10  11
HETATM   11  C   UNL     1     -10.180  14.541  66.442  1.00  0.00    -0.287 A  
HETATM   12  N   UNL     1      -9.582  13.384  66.696  1.00  0.00    -0.264 NA 
HETATM   13  C   UNL     1     -10.023  12.483  65.740  1.00  0.00    -0.259 A  
HETATM   14  N   UNL     1     -12.018  11.423  63.403  1.00  0.00    -0.728 NA 
HETATM   15  C   UNL     1     -10.967  13.093  64.930  1.00  0.00    -0.318 A  
HETATM   16  C   UNL     1     -11.824  12.706  63.828  1.00  0.00    -0.498 A  
HETATM   17  N   UNL     1     -11.000  14.415  65.339  1.00  0.00    -0.322 NA 
HETATM   18  H2  UNL     1     -11.521  10.682  63.898  1.00  0.00     0.000 HD 
HETATM   19  C   UNL     1     -11.751  15.344  64.637  1.00  0.00    -0.267 A  
HETATM   20  C   UNL     1     -12.458  14.923  63.580  1.00  0.00     0.655 A  
HETATM   21  N   UNL     1     -12.524  13.609  63.178  1.00  0.00    -0.714 NA 
HETATM   22  H1  UNL     1     -12.621  11.151  62.627  1.00  0.00     0.000 HD 
BRANCH  13  23
HETATM   23  C   UNL     1      -9.515  11.108  65.688  1.00  0.00    -0.252 A  
HETATM   24  C   UNL     1      -8.650   8.405  65.568  1.00  0.00    -0.201 A  
HETATM   25  C   UNL     1      -9.617   8.802  66.500  1.00  0.00    -0.302 A  
HETATM   26  C   UNL     1      -8.492  10.708  64.811  1.00  0.00    -0.102 A  
HETATM   27  C   UNL     1     -10.039  10.144  66.558  1.00  0.00    -0.296 A  
HETATM   28  C   UNL     1      -8.080   9.365  64.731  1.00  0.00    -0.131 A  
BRANCH  24  29
HETATM   29  C   UNL     1      -8.297   6.958  65.454  1.00  0.00    -0.119 C  
HETATM   30  H   UNL     1      -9.926   6.449  66.638  1.00  0.00     0.000 HD 
HETATM   31  O   UNL     1      -7.312   6.644  64.799  1.00  0.00    -0.073 OA 
HETATM   32  N   UNL     1      -9.176   6.076  66.057  1.00  0.00    -0.145 N  
BRANCH  32  33
HETATM   33  C   UNL     1      -9.071   4.688  65.895  1.00  0.00    -0.135 A  
HETATM   34  C   UNL     1      -9.722   4.007  64.871  1.00  0.00    -0.193 A  
HETATM   35  C   UNL     1      -9.621   2.617  64.822  1.00  0.00    -0.069 A  
HETATM   36  C   UNL     1      -8.906   1.954  65.810  1.00  0.00    -0.124 A  
HETATM   37  C   UNL     1      -8.267   2.718  66.773  1.00  0.00    -0.087 A  
HETATM   38  N   UNL     1      -8.295   4.070  66.808  1.00  0.00    -0.100 NA 
ENDBRANCH  32  33
ENDBRANCH  24  29
ENDBRANCH  13  23
ENDBRANCH  10  11
ENDBRANCH   3   4
TORSDOF 5
ENDMDL
MODEL       22
REMARK 921   NORMALIZED FREE ENERGY PREDICTED BY IDOCK:   -7.13 KCAL/MOL
REMARK 922        TOTAL FREE ENERGY PREDICTED BY IDOCK:   -8.70 KCAL/MOL
REMARK 923 INTER-LIGAND FREE ENERGY PREDICTED BY IDOCK:   -7.54 KCAL/MOL
REMARK 924 INTRA-LIGAND FREE ENERGY PREDICTED BY IDOCK:   -1.16 KCAL/MOL
REMARK 927      BINDING AFFINITY PREDICTED BY RF-SCORE:    0.00 PKD
ROOT
HETATM    1  C   UNL     1      -6.388  19.253  68.964  1.00  0.00    -0.306 C  
HETATM    2  C   UNL     1      -7.748  18.670  68.618  1.00  0.00    -0.344 C  
HETATM    3  C   UNL     1      -8.915  18.170  68.321  1.00  0.00    -0.306 C  
ENDROOT
BRANCH   3   4
HETATM    4  C   UNL     1     -10.226  17.597  68.069  1.00  0.00    -0.362 C  
HETATM    5  O   UNL     1     -10.957  18.176  67.276  1.00  0.00    -0.294 OA 
HETATM    6  N   UNL     1     -10.620  16.488  68.794  1.00  0.00    -0.300 N  
HETATM    7  C   UNL     1     -12.009  16.075  68.842  1.00  0.00    -0.119 C  
HETATM    8  C   UNL     1     -12.191  15.659  70.292  1.00  0.00    -0.416 C  
HETATM    9  C   UNL     1     -10.828  15.118  70.721  1.00  0.00    -0.193 C  
HETATM   10  C   UNL     1      -9.818  15.669  69.696  1.00  0.00    -0.280 C  
BRANCH  10  11
HETATM   11  C   UNL     1      -9.178  14.520  68.946  1.00  0.00    -0.118 A  
HETATM   12  N   UNL     1      -9.743  13.358  68.646  1.00  0.00    -0.140 NA 
HETATM   13  C   UNL     1      -8.756  12.561  68.087  1.00  0.00    -0.190 A  
HETATM   14  N   UNL     1      -5.873  12.000  66.697  1.00  0.00    -0.483 NA 
HETATM   15  C   UNL     1      -7.581  13.286  67.983  1.00  0.00    -0.145 A  
HETATM   16  C   UNL     1      -6.248  13.071  67.455  1.00  0.00    -0.139 A  
HETATM   17  N   UNL     1      -7.842  14.497  68.599  1.00  0.00    -0.135 NA 
HETATM   18  H2  UNL     1      -6.583  11.299  66.486  1.00  0.00     0.000 HD 
HETATM   19  C   UNL     1      -6.824  15.417  68.791  1.00  0.00    -0.113 A  
HETATM   20  C   UNL     1      -5.599  15.113  68.343  1.00  0.00    -0.106 A  
HETATM   21  N   UNL     1      -5.300  13.959  67.656  1.00  0.00    -0.330 NA 
HETATM   22  H1  UNL     1      -4.935  11.849  66.326  1.00  0.00     0.000 HD 
BRANCH  13  23
HETATM   23  C   UNL     1      -9.023  11.175  67.687  1.00  0.00    -0.140 A  
HETATM   24  C   UNL     1      -9.584   8.469  67.030  1.00  0.00    -0.246 A  
HETATM   25  C   UNL     1      -8.745   8.781  68.107  1.00  0.00    -0.134 A  
HETATM   26  C   UNL     1      -9.801  10.844  66.565  1.00  0.00    -0.245 A  
HETATM   27  C   UNL     1      -8.467  10.123  68.426  1.00  0.00    -0.118 A  
HETATM   28  C   UNL     1     -10.102   9.506  66.252  1.00  0.00    -0.327 A  
BRANCH  24  29
HETATM   29  C   UNL     1      -9.950   7.043  66.777  1.00  0.00    -0.197 C  
HETATM   30  H   UNL     1      -8.062   6.681  65.988  1.00  0.00     0.000 HD 
HETATM   31  O   UNL     1     -11.072   6.662  67.082  1.00  0.00    -0.392 OA 
HETATM   32  N   UNL     1      -8.939   6.245  66.273  1.00  0.00    -0.153 N  
BRANCH  32  33
HETATM   33  C   UNL     1      -9.078   4.856  66.141  1.00  0.00    -0.135 A  
HETATM   34  C   UNL     1      -9.007   3.994  67.231  1.00  0.00    -0.148 A  
HETATM   35  C   UNL     1      -9.086   2.621  67.005  1.00  0.00    -0.171 A  
HETATM   36  C   UNL     1      -9.200   2.154  65.703  1.00  0.00    -0.016 A  
HETATM   37  C   UNL     1      -9.294   3.088  64.683  1.00  0.00    -0.147 A  
HETATM   38  N   UNL     1      -9.283   4.427  64.880  1.00  0.00    -0.153 NA 
ENDBRANCH  32  33
ENDBRANCH  24  29
ENDBRANCH  13  23
ENDBRANCH  10  11
ENDBRANCH   3   4
TORSDOF 5
ENDMDL
MODEL       23
REMARK 921   NORMALIZED FREE ENERGY PREDICTED BY IDOCK:   -7.12 KCAL/MOL
REMARK 922        TOTAL FREE ENERGY PREDICTED BY IDOCK:   -8.68 KCAL/MOL
REMARK 923 INTER-LIGAND FREE ENERGY PREDICTED BY IDOCK:   -7.54 KCAL/MOL
REMARK 924 INTRA-LIGAND FREE ENERGY PREDICTED BY IDOCK:   -1.13 KCAL/MOL
REMARK 927      BINDING AFFINITY PREDICTED BY RF-SCORE:    0.00 PKD
ROOT
HETATM    1  C   UNL     1      -9.774   6.141  74.553  1.00  0.00    -0.287 C  
HETATM    2  C   UNL     1     -10.478   6.337  73.220  1.00  0.00    -0.267 C  
HETATM    3  C   UNL     1     -11.082   6.505  72.077  1.00  0.00    -0.296 C  
ENDROOT
BRANCH   3   4
HETATM    4  C   UNL     1     -11.683   6.714  70.772  1.00  0.00    -0.388 C  
HETATM    5  O   UNL     1     -12.906   6.756  70.708  1.00  0.00    -0.205 OA 
HETATM    6  N   UNL     1     -10.865   6.768  69.659  1.00  0.00    -0.252 N  
HETATM    7  C   UNL     1     -11.403   6.636  68.320  1.00  0.00     0.007 C  
HETATM    8  C   UNL     1     -10.367   5.776  67.619  1.00  0.00    -0.270 C  
HETATM    9  C   UNL     1      -9.038   6.141  68.279  1.00  0.00    -0.112 C  
HETATM   10  C   UNL     1      -9.407   6.814  69.616  1.00  0.00    -0.144 C  
BRANCH  10  11
HETATM   11  C   UNL     1      -8.918   8.247  69.614  1.00  0.00    -0.149 A  
HETATM   12  N   UNL     1      -9.427   9.257  68.920  1.00  0.00    -0.152 NA 
HETATM   13  C   UNL     1      -8.587  10.343  69.111  1.00  0.00    -0.164 A  
HETATM   14  N   UNL     1      -6.238  12.007  70.617  1.00  0.00    -0.533 NA 
HETATM   15  C   UNL     1      -7.582   9.998  70.000  1.00  0.00    -0.172 A  
HETATM   16  C   UNL     1      -6.466  10.662  70.643  1.00  0.00     0.052 A  
HETATM   17  N   UNL     1      -7.762   8.649  70.251  1.00  0.00    -0.078 NA 
HETATM   18  H2  UNL     1      -6.903  12.589  70.108  1.00  0.00     0.000 HD 
HETATM   19  C   UNL     1      -6.833   7.950  71.005  1.00  0.00    -0.041 A  
HETATM   20  C   UNL     1      -5.784   8.618  71.502  1.00  0.00    -0.044 A  
HETATM   21  N   UNL     1      -5.598   9.973  71.350  1.00  0.00    -0.175 NA 
HETATM   22  H1  UNL     1      -5.452  12.474  71.069  1.00  0.00     0.000 HD 
BRANCH  13  23
HETATM   23  C   UNL     1      -8.822  11.623  68.436  1.00  0.00    -0.161 A  
HETATM   24  C   UNL     1      -9.297  14.158  67.244  1.00  0.00    -0.225 A  
HETATM   25  C   UNL     1     -10.260  13.570  68.075  1.00  0.00    -0.243 A  
HETATM   26  C   UNL     1      -7.900  12.192  67.542  1.00  0.00    -0.162 A  
HETATM   27  C   UNL     1     -10.021  12.313  68.660  1.00  0.00    -0.127 A  
HETATM   28  C   UNL     1      -8.121  13.459  66.970  1.00  0.00    -0.018 A  
BRANCH  24  29
HETATM   29  C   UNL     1      -9.527  15.538  66.722  1.00  0.00    -0.237 C  
HETATM   30  H   UNL     1      -9.233  16.324  68.623  1.00  0.00     0.000 HD 
HETATM   31  O   UNL     1      -9.774  15.683  65.532  1.00  0.00    -0.321 OA 
HETATM   32  N   UNL     1      -9.369  16.561  67.640  1.00  0.00    -0.212 N  
BRANCH  32  33
HETATM   33  C   UNL     1      -9.387  17.911  67.266  1.00  0.00    -0.258 A  
HETATM   34  C   UNL     1      -8.226  18.617  66.966  1.00  0.00    -0.259 A  
HETATM   35  C   UNL     1      -8.325  19.976  66.669  1.00  0.00    -0.363 A  
HETATM   36  C   UNL     1      -9.570  20.589  66.714  1.00  0.00    -0.450 A  
HETATM   37  C   UNL     1     -10.674  19.800  66.992  1.00  0.00    -0.418 A  
HETATM   38  N   UNL     1     -10.614  18.468  67.221  1.00  0.00    -0.419 NA 
ENDBRANCH  32  33
ENDBRANCH  24  29
ENDBRANCH  13  23
ENDBRANCH  10  11
ENDBRANCH   3   4
TORSDOF 5
ENDMDL
MODEL       24
REMARK 921   NORMALIZED FREE ENERGY PREDICTED BY IDOCK:   -7.07 KCAL/MOL
REMARK 922        TOTAL FREE ENERGY PREDICTED BY IDOCK:   -8.62 KCAL/MOL
REMARK 923 INTER-LIGAND FREE ENERGY PREDICTED BY IDOCK:   -7.85 KCAL/MOL
REMARK 924 INTRA-LIGAND FREE ENERGY PREDICTED BY IDOCK:   -0.77 KCAL/MOL
REMARK 927      BINDING AFFINITY PREDICTED BY RF-SCORE:    0.00 PKD
ROOT
HETATM    1  C   UNL     1      -7.624   5.956  72.689  1.00  0.00    -0.097 C  
HETATM    2  C   UNL     1      -8.616   6.081  71.544  1.00  0.00    -0.132 C  
HETATM    3  C   UNL     1      -9.466   6.188  70.561  1.00  0.00    -0.182 C  
ENDROOT
BRANCH   3   4
HETATM    4  C   UNL     1     -10.464   6.258  69.508  1.00  0.00    -0.237 C  
HETATM    5  O   UNL     1     -11.643   6.233  69.838  1.00  0.00    -0.435 OA 
HETATM    6  N   UNL     1     -10.045   6.261  68.191  1.00  0.00    -0.141 N  
HETATM    7  C   UNL     1     -10.969   5.991  67.106  1.00  0.00    -0.268 C  
HETATM    8  C   UNL     1     -10.147   5.129  66.164  1.00  0.00    -0.235 C  
HETATM    9  C   UNL     1      -8.708   5.614  66.339  1.00  0.00    -0.126 C  
HETATM   10  C   UNL     1      -8.684   6.376  67.678  1.00  0.00    -0.114 C  
BRANCH  10  11
HETATM   11  C   UNL     1      -8.328   7.827  67.430  1.00  0.00    -0.123 A  
HETATM   12  N   UNL     1      -9.039   8.888  67.787  1.00  0.00    -0.134 NA 
HETATM   13  C   UNL     1      -8.413   9.997  67.238  1.00  0.00    -0.122 A  
HETATM   14  N   UNL     1      -5.935  11.588  65.863  1.00  0.00    -0.484 NA 
HETATM   15  C   UNL     1      -7.255   9.599  66.590  1.00  0.00    -0.086 A  
HETATM   16  C   UNL     1      -6.160  10.242  65.892  1.00  0.00    -0.103 A  
HETATM   17  N   UNL     1      -7.254   8.217  66.657  1.00  0.00    -0.080 NA 
HETATM   18  H2  UNL     1      -6.588  12.186  66.371  1.00  0.00     0.000 HD 
HETATM   19  C   UNL     1      -6.290   7.486  65.980  1.00  0.00    -0.042 A  
HETATM   20  C   UNL     1      -5.354   8.152  65.291  1.00  0.00    -0.032 A  
HETATM   21  N   UNL     1      -5.261   9.524  65.256  1.00  0.00    -0.039 NA 
HETATM   22  H1  UNL     1      -5.165  12.040  65.371  1.00  0.00     0.000 HD 
BRANCH  13  23
HETATM   23  C   UNL     1      -8.969  11.346  67.388  1.00  0.00    -0.154 A  
HETATM   24  C   UNL     1      -9.929  14.006  67.652  1.00  0.00    -0.237 A  
HETATM   25  C   UNL     1      -8.854  13.557  68.429  1.00  0.00    -0.146 A  
HETATM   26  C   UNL     1     -10.093  11.789  66.672  1.00  0.00    -0.231 A  
HETATM   27  C   UNL     1      -8.384  12.237  68.297  1.00  0.00    -0.174 A  
HETATM   28  C   UNL     1     -10.556  13.113  66.781  1.00  0.00    -0.267 A  
BRANCH  24  29
HETATM   29  C   UNL     1     -10.340  15.440  67.732  1.00  0.00    -0.253 C  
HETATM   30  H   UNL     1      -8.416  16.036  67.222  1.00  0.00     0.000 HD 
HETATM   31  O   UNL     1     -11.497  15.704  68.031  1.00  0.00    -0.345 OA 
HETATM   32  N   UNL     1      -9.369  16.362  67.386  1.00  0.00    -0.220 N  
BRANCH  32  33
HETATM   33  C   UNL     1      -9.649  17.729  67.252  1.00  0.00    -0.272 A  
HETATM   34  C   UNL     1      -9.480  18.630  68.298  1.00  0.00    -0.369 A  
HETATM   35  C   UNL     1      -9.847  19.961  68.103  1.00  0.00    -0.524 A  
HETATM   36  C   UNL     1     -10.400  20.339  66.887  1.00  0.00    -0.418 A  
HETATM   37  C   UNL     1     -10.503  19.379  65.893  1.00  0.00    -0.472 A  
HETATM   38  N   UNL     1     -10.095  18.096  66.034  1.00  0.00    -0.554 NA 
ENDBRANCH  32  33
ENDBRANCH  24  29
ENDBRANCH  13  23
ENDBRANCH  10  11
ENDBRANCH   3   4
TORSDOF 5
ENDMDL
MODEL       25
REMARK 921   NORMALIZED FREE ENERGY PREDICTED BY IDOCK:   -7.02 KCAL/MOL
REMARK 922        TOTAL FREE ENERGY PREDICTED BY IDOCK:   -8.55 KCAL/MOL
REMARK 923 INTER-LIGAND FREE ENERGY PREDICTED BY IDOCK:   -7.72 KCAL/MOL
REMARK 924 INTRA-LIGAND FREE ENERGY PREDICTED BY IDOCK:   -0.83 KCAL/MOL
REMARK 927      BINDING AFFINITY PREDICTED BY RF-SCORE:    0.00 PKD
ROOT
HETATM    1  C   UNL     1      -5.223  16.775  71.170  1.00  0.00    -0.079 C  
HETATM    2  C   UNL     1      -5.998  16.702  69.865  1.00  0.00    -0.214 C  
HETATM    3  C   UNL     1      -6.663  16.640  68.745  1.00  0.00    -0.174 C  
ENDROOT
BRANCH   3   4
HETATM    4  C   UNL     1      -7.336  16.544  67.461  1.00  0.00    -0.142 C  
HETATM    5  O   UNL     1      -6.639  16.438  66.460  1.00  0.00    -0.245 OA 
HETATM    6  N   UNL     1      -8.712  16.665  67.417  1.00  0.00    -0.189 N  
HETATM    7  C   UNL     1      -9.407  16.916  66.170  1.00  0.00    -0.236 C  
HETATM    8  C   UNL     1     -10.482  17.911  66.572  1.00  0.00    -0.315 C  
HETATM    9  C   UNL     1     -10.831  17.552  68.017  1.00  0.00    -0.260 C  
HETATM   10  C   UNL     1      -9.648  16.712  68.535  1.00  0.00    -0.241 C  
BRANCH  10  11
HETATM   11  C   UNL     1     -10.131  15.320  68.885  1.00  0.00    -0.225 A  
HETATM   12  N   UNL     1      -9.741  14.183  68.325  1.00  0.00    -0.222 NA 
HETATM   13  C   UNL     1     -10.539  13.178  68.851  1.00  0.00    -0.131 A  
HETATM   14  N   UNL     1     -12.611  11.901  71.005  1.00  0.00    -0.340 NA 
HETATM   15  C   UNL     1     -11.385  13.715  69.808  1.00  0.00    -0.112 A  
HETATM   16  C   UNL     1     -12.382  13.219  70.736  1.00  0.00    -0.344 A  
HETATM   17  N   UNL     1     -11.167  15.081  69.765  1.00  0.00    -0.264 NA 
HETATM   18  H2  UNL     1     -12.037  11.213  70.516  1.00  0.00     0.000 HD 
HETATM   19  C   UNL     1     -11.960  15.938  70.511  1.00  0.00    -0.333 A  
HETATM   20  C   UNL     1     -12.914  15.408  71.287  1.00  0.00    -0.473 A  
HETATM   21  N   UNL     1     -13.122  14.056  71.428  1.00  0.00    -0.345 NA 
HETATM   22  H1  UNL     1     -13.312  11.552  71.657  1.00  0.00     0.000 HD 
BRANCH  13  23
HETATM   23  C   UNL     1     -10.417  11.787  68.405  1.00  0.00    -0.231 A  
HETATM   24  C   UNL     1     -10.248   9.056  67.642  1.00  0.00    -0.300 A  
HETATM   25  C   UNL     1      -9.790   9.474  68.898  1.00  0.00    -0.179 A  
HETATM   26  C   UNL     1     -10.802  11.364  67.122  1.00  0.00    -0.316 A  
HETATM   27  C   UNL     1      -9.872  10.829  69.269  1.00  0.00    -0.160 A  
HETATM   28  C   UNL     1     -10.744  10.007  66.750  1.00  0.00    -0.172 A  
BRANCH  24  29
HETATM   29  C   UNL     1     -10.250   7.599  67.313  1.00  0.00    -0.272 C  
HETATM   30  H   UNL     1      -8.287   7.431  67.972  1.00  0.00     0.000 HD 
HETATM   31  O   UNL     1     -11.264   7.105  66.838  1.00  0.00    -0.243 OA 
HETATM   32  N   UNL     1      -9.099   6.907  67.647  1.00  0.00    -0.119 N  
BRANCH  32  33
HETATM   33  C   UNL     1      -9.012   5.511  67.554  1.00  0.00    -0.107 A  
HETATM   34  C   UNL     1      -9.337   4.672  68.616  1.00  0.00    -0.193 A  
HETATM   35  C   UNL     1      -9.157   3.298  68.463  1.00  0.00    -0.210 A  
HETATM   36  C   UNL     1      -8.631   2.812  67.275  1.00  0.00    -0.119 A  
HETATM   37  C   UNL     1      -8.365   3.720  66.262  1.00  0.00    -0.105 A  
HETATM   38  N   UNL     1      -8.590   5.050  66.359  1.00  0.00    -0.111 NA 
ENDBRANCH  32  33
ENDBRANCH  24  29
ENDBRANCH  13  23
ENDBRANCH  10  11
ENDBRANCH   3   4
TORSDOF 5
ENDMDL
MODEL       26
REMARK 921   NORMALIZED FREE ENERGY PREDICTED BY IDOCK:   -6.93 KCAL/MOL
REMARK 922        TOTAL FREE ENERGY PREDICTED BY IDOCK:   -8.43 KCAL/MOL
REMARK 923 INTER-LIGAND FREE ENERGY PREDICTED BY IDOCK:   -7.15 KCAL/MOL
REMARK 924 INTRA-LIGAND FREE ENERGY PREDICTED BY IDOCK:   -1.28 KCAL/MOL
REMARK 927      BINDING AFFINITY PREDICTED BY RF-SCORE:    0.00 PKD
ROOT
HETATM    1  C   UNL     1      -9.445   2.837  68.698  1.00  0.00    -0.191 C  
HETATM    2  C   UNL     1      -9.501   3.875  69.806  1.00  0.00    -0.264 C  
HETATM    3  C   UNL     1      -9.548   4.767  70.756  1.00  0.00    -0.249 C  
ENDROOT
BRANCH   3   4
HETATM    4  C   UNL     1      -9.538   5.797  71.780  1.00  0.00    -0.155 C  
HETATM    5  O   UNL     1      -8.841   5.608  72.770  1.00  0.00    -0.123 OA 
HETATM    6  N   UNL     1     -10.372   6.890  71.637  1.00  0.00    -0.199 N  
HETATM    7  C   UNL     1     -10.662   7.768  72.754  1.00  0.00    -0.356 C  
HETATM    8  C   UNL     1     -12.141   8.064  72.580  1.00  0.00    -0.338 C  
HETATM    9  C   UNL     1     -12.376   8.028  71.070  1.00  0.00    -0.164 C  
HETATM   10  C   UNL     1     -11.177   7.262  70.479  1.00  0.00    -0.279 C  
BRANCH  10  11
HETATM   11  C   UNL     1     -10.395   8.177  69.559  1.00  0.00    -0.222 A  
HETATM   12  N   UNL     1     -10.153   9.468  69.745  1.00  0.00    -0.201 NA 
HETATM   13  C   UNL     1      -9.532   9.932  68.596  1.00  0.00    -0.153 A  
HETATM   14  N   UNL     1      -7.934   9.602  65.785  1.00  0.00    -0.107 NA 
HETATM   15  C   UNL     1      -9.330   8.877  67.721  1.00  0.00    -0.141 A  
HETATM   16  C   UNL     1      -8.705   8.679  66.429  1.00  0.00    -0.130 A  
HETATM   17  N   UNL     1      -9.948   7.789  68.312  1.00  0.00    -0.172 NA 
HETATM   18  H2  UNL     1      -7.787  10.499  66.248  1.00  0.00     0.000 HD 
HETATM   19  C   UNL     1     -10.051   6.588  67.628  1.00  0.00    -0.147 A  
HETATM   20  C   UNL     1      -9.515   6.505  66.404  1.00  0.00    -0.126 A  
HETATM   21  N   UNL     1      -8.822   7.530  65.801  1.00  0.00    -0.133 NA 
HETATM   22  H1  UNL     1      -7.495   9.463  64.875  1.00  0.00     0.000 HD 
BRANCH  13  23
HETATM   23  C   UNL     1      -9.171  11.344  68.434  1.00  0.00    -0.183 A  
HETATM   24  C   UNL     1      -8.562  14.110  68.208  1.00  0.00    -0.175 A  
HETATM   25  C   UNL     1      -9.862  13.646  67.972  1.00  0.00    -0.244 A  
HETATM   26  C   UNL     1      -7.857  11.816  68.594  1.00  0.00    -0.117 A  
HETATM   27  C   UNL     1     -10.158  12.274  68.081  1.00  0.00    -0.211 A  
HETATM   28  C   UNL     1      -7.557  13.189  68.509  1.00  0.00    -0.122 A  
BRANCH  24  29
HETATM   29  C   UNL     1      -8.296  15.580  68.191  1.00  0.00    -0.145 C  
HETATM   30  H   UNL     1      -7.397  15.413  66.326  1.00  0.00     0.000 HD 
HETATM   31  O   UNL     1      -8.652  16.252  69.150  1.00  0.00    -0.248 OA 
HETATM   32  N   UNL     1      -7.719  16.072  67.034  1.00  0.00    -0.206 N  
BRANCH  32  33
HETATM   33  C   UNL     1      -7.563  17.445  66.803  1.00  0.00    -0.228 A  
HETATM   34  C   UNL     1      -6.404  18.132  67.152  1.00  0.00    -0.187 A  
HETATM   35  C   UNL     1      -6.355  19.511  66.950  1.00  0.00    -0.190 A  
HETATM   36  C   UNL     1      -7.471  20.160  66.439  1.00  0.00    -0.311 A  
HETATM   37  C   UNL     1      -8.569  19.389  66.092  1.00  0.00    -0.284 A  
HETATM   38  N   UNL     1      -8.620  18.043  66.218  1.00  0.00    -0.447 NA 
ENDBRANCH  32  33
ENDBRANCH  24  29
ENDBRANCH  13  23
ENDBRANCH  10  11
ENDBRANCH   3   4
TORSDOF 5
ENDMDL
MODEL       27
REMARK 921   NORMALIZED FREE ENERGY PREDICTED BY IDOCK:   -6.92 KCAL/MOL
REMARK 922        TOTAL FREE ENERGY PREDICTED BY IDOCK:   -8.42 KCAL/MOL
REMARK 923 INTER-LIGAND FREE ENERGY PREDICTED BY IDOCK:   -8.48 KCAL/MOL
REMARK 924 INTRA-LIGAND FREE ENERGY PREDICTED BY IDOCK:    0.06 KCAL/MOL
REMARK 927      BINDING AFFINITY PREDICTED BY RF-SCORE:    0.00 PKD
ROOT
HETATM    1  C   UNL     1      -7.669   7.577  64.274  1.00  0.00    -0.128 C  
HETATM    2  C   UNL     1      -7.611   7.503  65.790  1.00  0.00    -0.093 C  
HETATM    3  C   UNL     1      -7.562   7.439  67.092  1.00  0.00    -0.107 C  
ENDROOT
BRANCH   3   4
HETATM    4  C   UNL     1      -7.579   7.329  68.540  1.00  0.00    -0.118 C  
HETATM    5  O   UNL     1      -6.510   7.148  69.109  1.00  0.00    -0.034 OA 
HETATM    6  N   UNL     1      -8.795   7.345  69.197  1.00  0.00    -0.136 N  
HETATM    7  C   UNL     1      -8.912   6.909  70.575  1.00  0.00    -0.155 C  
HETATM    8  C   UNL     1     -10.222   6.139  70.579  1.00  0.00    -0.251 C  
HETATM    9  C   UNL     1     -11.089   6.830  69.526  1.00  0.00    -0.324 C  
HETATM   10  C   UNL     1     -10.113   7.634  68.644  1.00  0.00    -0.190 C  
BRANCH  10  11
HETATM   11  C   UNL     1     -10.428   9.111  68.758  1.00  0.00    -0.212 A  
HETATM   12  N   UNL     1      -9.917  10.088  68.020  1.00  0.00    -0.146 NA 
HETATM   13  C   UNL     1     -10.373  11.281  68.559  1.00  0.00    -0.203 A  
HETATM   14  N   UNL     1     -12.327  13.115  70.397  1.00  0.00    -0.312 NA 
HETATM   15  C   UNL     1     -11.239  11.014  69.607  1.00  0.00    -0.278 A  
HETATM   16  C   UNL     1     -12.070  11.780  70.514  1.00  0.00    -0.347 A  
HETATM   17  N   UNL     1     -11.205   9.640  69.769  1.00  0.00    -0.211 NA 
HETATM   18  H2  UNL     1     -11.902  13.611  69.613  1.00  0.00     0.000 HD 
HETATM   19  C   UNL     1     -11.863   9.046  70.834  1.00  0.00    -0.253 A  
HETATM   20  C   UNL     1     -12.548   9.831  71.676  1.00  0.00    -0.416 A  
HETATM   21  N   UNL     1     -12.680  11.191  71.518  1.00  0.00    -0.407 NA 
HETATM   22  H1  UNL     1     -12.912  13.654  71.035  1.00  0.00     0.000 HD 
BRANCH  13  23
HETATM   23  C   UNL     1      -9.953  12.578  68.018  1.00  0.00    -0.219 A  
HETATM   24  C   UNL     1      -9.244  15.143  67.023  1.00  0.00    -0.239 A  
HETATM   25  C   UNL     1     -10.480  14.570  66.698  1.00  0.00    -0.274 A  
HETATM   26  C   UNL     1      -8.688  13.134  68.272  1.00  0.00    -0.165 A  
HETATM   27  C   UNL     1     -10.825  13.298  67.191  1.00  0.00    -0.268 A  
HETATM   28  C   UNL     1      -8.343  14.415  67.802  1.00  0.00    -0.172 A  
BRANCH  24  29
HETATM   29  C   UNL     1      -8.945  16.536  66.577  1.00  0.00    -0.278 C  
HETATM   30  H   UNL     1      -7.604  16.769  68.148  1.00  0.00     0.000 HD 
HETATM   31  O   UNL     1      -9.521  16.974  65.590  1.00  0.00    -0.526 OA 
HETATM   32  N   UNL     1      -7.968  17.201  67.298  1.00  0.00    -0.174 N  
BRANCH  32  33
HETATM   33  C   UNL     1      -7.462  18.446  66.901  1.00  0.00    -0.215 A  
HETATM   34  C   UNL     1      -7.471  19.555  67.742  1.00  0.00    -0.304 A  
HETATM   35  C   UNL     1      -7.012  20.774  67.246  1.00  0.00    -0.414 A  
HETATM   36  C   UNL     1      -6.592  20.854  65.925  1.00  0.00    -0.185 A  
HETATM   37  C   UNL     1      -6.590  19.690  65.173  1.00  0.00    -0.263 A  
HETATM   38  N   UNL     1      -6.970  18.481  65.647  1.00  0.00    -0.468 NA 
ENDBRANCH  32  33
ENDBRANCH  24  29
ENDBRANCH  13  23
ENDBRANCH  10  11
ENDBRANCH   3   4
TORSDOF 5
ENDMDL
MODEL       28
REMARK 921   NORMALIZED FREE ENERGY PREDICTED BY IDOCK:   -6.90 KCAL/MOL
REMARK 922        TOTAL FREE ENERGY PREDICTED BY IDOCK:   -8.39 KCAL/MOL
REMARK 923 INTER-LIGAND FREE ENERGY PREDICTED BY IDOCK:   -7.54 KCAL/MOL
REMARK 924 INTRA-LIGAND FREE ENERGY PREDICTED BY IDOCK:   -0.85 KCAL/MOL
REMARK 927      BINDING AFFINITY PREDICTED BY RF-SCORE:    0.00 PKD
ROOT
HETATM    1  C   UNL     1      -6.766   8.378  74.465  1.00  0.00    -0.186 C  
HETATM    2  C   UNL     1      -8.059   8.308  73.670  1.00  0.00    -0.248 C  
HETATM    3  C   UNL     1      -9.169   8.249  72.988  1.00  0.00    -0.316 C  
ENDROOT
BRANCH   3   4
HETATM    4  C   UNL     1     -10.377   8.115  72.193  1.00  0.00    -0.274 C  
HETATM    5  O   UNL     1     -11.433   8.476  72.698  1.00  0.00    -0.351 OA 
HETATM    6  N   UNL     1     -10.297   7.511  70.952  1.00  0.00    -0.201 N  
HETATM    7  C   UNL     1     -11.485   7.045  70.263  1.00  0.00    -0.287 C  
HETATM    8  C   UNL     1     -11.033   5.728  69.658  1.00  0.00    -0.385 C  
HETATM    9  C   UNL     1      -9.546   5.919  69.360  1.00  0.00    -0.171 C  
HETATM   10  C   UNL     1      -9.100   7.119  70.217  1.00  0.00    -0.156 C  
BRANCH  10  11
HETATM   11  C   UNL     1      -8.637   8.244  69.314  1.00  0.00    -0.138 A  
HETATM   12  N   UNL     1      -9.169   9.455  69.222  1.00  0.00    -0.153 NA 
HETATM   13  C   UNL     1      -8.524  10.102  68.179  1.00  0.00    -0.118 A  
HETATM   14  N   UNL     1      -6.135  10.522  66.015  1.00  0.00    -0.107 NA 
HETATM   15  C   UNL     1      -7.527   9.282  67.674  1.00  0.00    -0.088 A  
HETATM   16  C   UNL     1      -6.492   9.375  66.664  1.00  0.00    -0.067 A  
HETATM   17  N   UNL     1      -7.660   8.083  68.352  1.00  0.00    -0.106 NA 
HETATM   18  H2  UNL     1      -6.636  11.377  66.259  1.00  0.00     0.000 HD 
HETATM   19  C   UNL     1      -6.894   6.987  67.989  1.00  0.00    -0.074 A  
HETATM   20  C   UNL     1      -6.012   7.130  66.992  1.00  0.00    -0.033 A  
HETATM   21  N   UNL     1      -5.782   8.318  66.337  1.00  0.00    -0.039 NA 
HETATM   22  H1  UNL     1      -5.407  10.587  65.304  1.00  0.00     0.000 HD 
BRANCH  13  23
HETATM   23  C   UNL     1      -8.905  11.454  67.759  1.00  0.00    -0.143 A  
HETATM   24  C   UNL     1      -9.522  14.097  66.921  1.00  0.00    -0.275 A  
HETATM   25  C   UNL     1      -8.587  13.873  67.939  1.00  0.00    -0.180 A  
HETATM   26  C   UNL     1      -9.895  11.699  66.793  1.00  0.00    -0.222 A  
HETATM   27  C   UNL     1      -8.288  12.562  68.354  1.00  0.00    -0.132 A  
HETATM   28  C   UNL     1     -10.184  13.005  66.357  1.00  0.00    -0.283 A  
BRANCH  24  29
HETATM   29  C   UNL     1      -9.744  15.488  66.424  1.00  0.00    -0.283 C  
HETATM   30  H   UNL     1      -9.108  16.257  68.247  1.00  0.00     0.000 HD 
HETATM   31  O   UNL     1     -10.164  15.646  65.285  1.00  0.00    -0.359 OA 
HETATM   32  N   UNL     1      -9.380  16.501  67.294  1.00  0.00    -0.220 N  
BRANCH  32  33
HETATM   33  C   UNL     1      -9.371  17.849  66.911  1.00  0.00    -0.275 A  
HETATM   34  C   UNL     1     -10.541  18.590  66.772  1.00  0.00    -0.395 A  
HETATM   35  C   UNL     1     -10.450  19.906  66.320  1.00  0.00    -0.590 A  
HETATM   36  C   UNL     1      -9.204  20.425  65.993  1.00  0.00    -0.085 A  
HETATM   37  C   UNL     1      -8.093  19.623  66.193  1.00  0.00    -0.346 A  
HETATM   38  N   UNL     1      -8.146  18.365  66.690  1.00  0.00    -0.255 NA 
ENDBRANCH  32  33
ENDBRANCH  24  29
ENDBRANCH  13  23
ENDBRANCH  10  11
ENDBRANCH   3   4
TORSDOF 5
ENDMDL
MODEL       29
REMARK 921   NORMALIZED FREE ENERGY PREDICTED BY IDOCK:   -6.89 KCAL/MOL
REMARK 922        TOTAL FREE ENERGY PREDICTED BY IDOCK:   -8.39 KCAL/MOL
REMARK 923 INTER-LIGAND FREE ENERGY PREDICTED BY IDOCK:   -7.55 KCAL/MOL
REMARK 924 INTRA-LIGAND FREE ENERGY PREDICTED BY IDOCK:   -0.83 KCAL/MOL
REMARK 927      BINDING AFFINITY PREDICTED BY RF-SCORE:    0.00 PKD
ROOT
HETATM    1  C   UNL     1      -5.286  17.835  71.087  1.00  0.00    -0.171 C  
HETATM    2  C   UNL     1      -5.960  17.670  69.735  1.00  0.00    -0.245 C  
HETATM    3  C   UNL     1      -6.539  17.530  68.575  1.00  0.00    -0.198 C  
ENDROOT
BRANCH   3   4
HETATM    4  C   UNL     1      -7.178  17.453  67.273  1.00  0.00    -0.167 C  
HETATM    5  O   UNL     1      -6.456  17.458  66.283  1.00  0.00    -0.222 OA 
HETATM    6  N   UNL     1      -8.559  17.468  67.204  1.00  0.00    -0.220 N  
HETATM    7  C   UNL     1      -9.248  17.733  65.957  1.00  0.00    -0.018 C  
HETATM    8  C   UNL     1     -10.407  18.615  66.388  1.00  0.00    -0.472 C  
HETATM    9  C   UNL     1     -10.752  18.151  67.803  1.00  0.00    -0.355 C  
HETATM   10  C   UNL     1      -9.516  17.378  68.302  1.00  0.00    -0.290 C  
BRANCH  10  11
HETATM   11  C   UNL     1      -9.892  15.935  68.565  1.00  0.00    -0.210 A  
HETATM   12  N   UNL     1      -9.478  14.873  67.887  1.00  0.00    -0.198 NA 
HETATM   13  C   UNL     1     -10.178  13.782  68.378  1.00  0.00    -0.248 A  
HETATM   14  N   UNL     1     -12.017  12.209  70.548  1.00  0.00    -0.500 NA 
HETATM   15  C   UNL     1     -10.984  14.186  69.430  1.00  0.00    -0.179 A  
HETATM   16  C   UNL     1     -11.884  13.556  70.376  1.00  0.00    -0.220 A  
HETATM   17  N   UNL     1     -10.849  15.562  69.487  1.00  0.00    -0.246 NA 
HETATM   18  H2  UNL     1     -11.441  11.600  69.966  1.00  0.00     0.000 HD 
HETATM   19  C   UNL     1     -11.636  16.306  70.352  1.00  0.00    -0.174 A  
HETATM   20  C   UNL     1     -12.501  15.657  71.142  1.00  0.00    -0.448 A  
HETATM   21  N   UNL     1     -12.621  14.287  71.182  1.00  0.00    -0.339 NA 
HETATM   22  H1  UNL     1     -12.650  11.766  71.213  1.00  0.00     0.000 HD 
BRANCH  13  23
HETATM   23  C   UNL     1     -10.008  12.441  67.810  1.00  0.00    -0.205 A  
HETATM   24  C   UNL     1      -9.724   9.794  66.818  1.00  0.00    -0.248 A  
HETATM   25  C   UNL     1      -9.097  10.178  68.011  1.00  0.00    -0.131 A  
HETATM   26  C   UNL     1     -10.567  12.060  66.579  1.00  0.00    -0.269 A  
HETATM   27  C   UNL     1      -9.238  11.492  68.496  1.00  0.00    -0.167 A  
HETATM   28  C   UNL     1     -10.450  10.743  66.097  1.00  0.00    -0.278 A  
BRANCH  24  29
HETATM   29  C   UNL     1      -9.649   8.368  66.380  1.00  0.00    -0.237 C  
HETATM   30  H   UNL     1      -7.903   8.766  65.327  1.00  0.00     0.000 HD 
HETATM   31  O   UNL     1     -10.523   7.594  66.748  1.00  0.00    -0.314 OA 
HETATM   32  N   UNL     1      -8.533   8.026  65.637  1.00  0.00    -0.144 N  
BRANCH  32  33
HETATM   33  C   UNL     1      -8.239   6.699  65.297  1.00  0.00    -0.133 A  
HETATM   34  C   UNL     1      -7.913   5.740  66.252  1.00  0.00    -0.102 A  
HETATM   35  C   UNL     1      -7.566   4.459  65.824  1.00  0.00    -0.086 A  
HETATM   36  C   UNL     1      -7.524   4.188  64.463  1.00  0.00    -0.072 A  
HETATM   37  C   UNL     1      -7.894   5.197  63.588  1.00  0.00    -0.088 A  
HETATM   38  N   UNL     1      -8.296   6.428  63.977  1.00  0.00     0.039 NA 
ENDBRANCH  32  33
ENDBRANCH  24  29
ENDBRANCH  13  23
ENDBRANCH  10  11
ENDBRANCH   3   4
TORSDOF 5
ENDMDL
MODEL       30
REMARK 921   NORMALIZED FREE ENERGY PREDICTED BY IDOCK:   -6.86 KCAL/MOL
REMARK 922        TOTAL FREE ENERGY PREDICTED BY IDOCK:   -8.35 KCAL/MOL
REMARK 923 INTER-LIGAND FREE ENERGY PREDICTED BY IDOCK:   -8.44 KCAL/MOL
REMARK 924 INTRA-LIGAND FREE ENERGY PREDICTED BY IDOCK:    0.10 KCAL/MOL
REMARK 927      BINDING AFFINITY PREDICTED BY RF-SCORE:    0.00 PKD
ROOT
HETATM    1  C   UNL     1      -9.206   2.861  64.236  1.00  0.00    -0.125 C  
HETATM    2  C   UNL     1      -8.953   3.475  65.602  1.00  0.00    -0.139 C  
HETATM    3  C   UNL     1      -8.736   4.002  66.775  1.00  0.00    -0.116 C  
ENDROOT
BRANCH   3   4
HETATM    4  C   UNL     1      -8.445   4.526  68.098  1.00  0.00    -0.094 C  
HETATM    5  O   UNL     1      -7.485   4.058  68.698  1.00  0.00    -0.055 OA 
HETATM    6  N   UNL     1      -9.305   5.455  68.653  1.00  0.00    -0.114 N  
HETATM    7  C   UNL     1      -9.271   5.762  70.070  1.00  0.00    -0.146 C  
HETATM    8  C   UNL     1     -10.742   5.891  70.426  1.00  0.00    -0.373 C  
HETATM    9  C   UNL     1     -11.409   6.430  69.161  1.00  0.00    -0.366 C  
HETATM   10  C   UNL     1     -10.421   6.143  68.014  1.00  0.00    -0.228 C  
BRANCH  10  11
HETATM   11  C   UNL     1      -9.963   7.450  67.402  1.00  0.00    -0.183 A  
HETATM   12  N   UNL     1     -10.287   8.671  67.806  1.00  0.00    -0.235 NA 
HETATM   13  C   UNL     1      -9.761   9.557  66.879  1.00  0.00    -0.182 A  
HETATM   14  N   UNL     1      -7.816  10.427  64.425  1.00  0.00    -0.299 NA 
HETATM   15  C   UNL     1      -9.040   8.855  65.927  1.00  0.00    -0.218 A  
HETATM   16  C   UNL     1      -8.226   9.172  64.770  1.00  0.00    -0.149 A  
HETATM   17  N   UNL     1      -9.239   7.519  66.228  1.00  0.00    -0.168 NA 
HETATM   18  H2  UNL     1      -8.104  11.199  65.027  1.00  0.00     0.000 HD 
HETATM   19  C   UNL     1      -8.760   6.533  65.381  1.00  0.00    -0.008 A  
HETATM   20  C   UNL     1      -8.082   6.908  64.288  1.00  0.00    -0.040 A  
HETATM   21  N   UNL     1      -7.788   8.216  63.981  1.00  0.00    -0.137 NA 
HETATM   22  H1  UNL     1      -7.244  10.650  63.611  1.00  0.00     0.000 HD 
BRANCH  13  23
HETATM   23  C   UNL     1      -9.982  11.003  66.987  1.00  0.00    -0.223 A  
HETATM   24  C   UNL     1     -10.489  13.781  67.294  1.00  0.00    -0.264 A  
HETATM   25  C   UNL     1     -11.544  12.884  67.083  1.00  0.00    -0.421 A  
HETATM   26  C   UNL     1      -8.930  11.924  67.123  1.00  0.00    -0.178 A  
HETATM   27  C   UNL     1     -11.287  11.509  66.928  1.00  0.00    -0.324 A  
HETATM   28  C   UNL     1      -9.179  13.298  67.302  1.00  0.00    -0.222 A  
BRANCH  24  29
HETATM   29  C   UNL     1     -10.794  15.218  67.563  1.00  0.00    -0.304 C  
HETATM   30  H   UNL     1      -8.907  15.763  66.888  1.00  0.00     0.000 HD 
HETATM   31  O   UNL     1     -11.891  15.509  68.023  1.00  0.00    -0.277 OA 
HETATM   32  N   UNL     1      -9.812  16.120  67.195  1.00  0.00    -0.237 N  
BRANCH  32  33
HETATM   33  C   UNL     1     -10.017  17.505  67.231  1.00  0.00    -0.312 A  
HETATM   34  C   UNL     1      -9.918  18.243  68.407  1.00  0.00    -0.401 A  
HETATM   35  C   UNL     1     -10.205  19.607  68.368  1.00  0.00    -0.553 A  
HETATM   36  C   UNL     1     -10.611  20.180  67.171  1.00  0.00    -0.337 A  
HETATM   37  C   UNL     1     -10.652  19.373  66.045  1.00  0.00    -0.480 A  
HETATM   38  N   UNL     1     -10.317  18.062  66.040  1.00  0.00    -0.539 NA 
ENDBRANCH  32  33
ENDBRANCH  24  29
ENDBRANCH  13  23
ENDBRANCH  10  11
ENDBRANCH   3   4
TORSDOF 5
ENDMDL
MODEL       31
REMARK 921   NORMALIZED FREE ENERGY PREDICTED BY IDOCK:   -6.81 KCAL/MOL
REMARK 922        TOTAL FREE ENERGY PREDICTED BY IDOCK:   -8.28 KCAL/MOL
REMARK 923 INTER-LIGAND FREE ENERGY PREDICTED BY IDOCK:   -7.35 KCAL/MOL
REMARK 924 INTRA-LIGAND FREE ENERGY PREDICTED BY IDOCK:   -0.93 KCAL/MOL
REMARK 927      BINDING AFFINITY PREDICTED BY RF-SCORE:    0.00 PKD
ROOT
HETATM    1  C   UNL     1     -10.478   3.380  63.902  1.00  0.00    -0.248 C  
HETATM    2  C   UNL     1      -9.358   4.323  64.309  1.00  0.00    -0.150 C  
HETATM    3  C   UNL     1      -8.396   5.132  64.659  1.00  0.00    -0.140 C  
ENDROOT
BRANCH   3   4
HETATM    4  C   UNL     1      -7.350   6.083  64.990  1.00  0.00    -0.073 C  
HETATM    5  O   UNL     1      -6.746   6.609  64.063  1.00  0.00    -0.042 OA 
HETATM    6  N   UNL     1      -7.026   6.284  66.318  1.00  0.00    -0.065 N  
HETATM    7  C   UNL     1      -5.793   6.945  66.701  1.00  0.00    -0.025 C  
HETATM    8  C   UNL     1      -5.332   6.138  67.902  1.00  0.00    -0.004 C  
HETATM    9  C   UNL     1      -6.619   5.654  68.570  1.00  0.00    -0.052 C  
HETATM   10  C   UNL     1      -7.719   5.785  67.500  1.00  0.00    -0.097 C  
BRANCH  10  11
HETATM   11  C   UNL     1      -8.763   6.779  67.965  1.00  0.00    -0.118 A  
HETATM   12  N   UNL     1      -8.965   7.999  67.484  1.00  0.00    -0.137 NA 
HETATM   13  C   UNL     1      -9.916   8.600  68.293  1.00  0.00    -0.180 A  
HETATM   14  N   UNL     1     -12.284   8.626  70.519  1.00  0.00    -0.472 NA 
HETATM   15  C   UNL     1     -10.351   7.694  69.247  1.00  0.00    -0.217 A  
HETATM   16  C   UNL     1     -11.334   7.669  70.311  1.00  0.00    -0.181 A  
HETATM   17  N   UNL     1      -9.559   6.572  69.074  1.00  0.00    -0.133 NA 
HETATM   18  H2  UNL     1     -12.303   9.419  69.877  1.00  0.00     0.000 HD 
HETATM   19  C   UNL     1      -9.642   5.514  69.965  1.00  0.00    -0.165 A  
HETATM   20  C   UNL     1     -10.523   5.598  70.971  1.00  0.00    -0.250 A  
HETATM   21  N   UNL     1     -11.388   6.653  71.145  1.00  0.00    -0.290 NA 
HETATM   22  H1  UNL     1     -12.975   8.608  71.268  1.00  0.00     0.000 HD 
BRANCH  13  23
HETATM   23  C   UNL     1     -10.340   9.988  68.080  1.00  0.00    -0.228 A  
HETATM   24  C   UNL     1     -11.037  12.712  67.676  1.00  0.00    -0.303 A  
HETATM   25  C   UNL     1     -10.332  12.320  68.821  1.00  0.00    -0.156 A  
HETATM   26  C   UNL     1     -11.111  10.386  66.975  1.00  0.00    -0.141 A  
HETATM   27  C   UNL     1      -9.993  10.969  69.019  1.00  0.00    -0.184 A  
HETATM   28  C   UNL     1     -11.436  11.738  66.759  1.00  0.00    -0.352 A  
BRANCH  24  29
HETATM   29  C   UNL     1     -11.292  14.164  67.436  1.00  0.00    -0.327 C  
HETATM   30  H   UNL     1      -9.517  14.652  68.399  1.00  0.00     0.000 HD 
HETATM   31  O   UNL     1     -12.313  14.491  66.845  1.00  0.00    -0.319 OA 
HETATM   32  N   UNL     1     -10.293  15.025  67.853  1.00  0.00    -0.239 N  
BRANCH  32  33
HETATM   33  C   UNL     1     -10.311  16.393  67.550  1.00  0.00    -0.288 A  
HETATM   34  C   UNL     1     -10.152  16.871  66.252  1.00  0.00    -0.335 A  
HETATM   35  C   UNL     1     -10.113  18.249  66.045  1.00  0.00    -0.278 A  
HETATM   36  C   UNL     1     -10.200  19.101  67.138  1.00  0.00    -0.489 A  
HETATM   37  C   UNL     1     -10.387  18.535  68.389  1.00  0.00    -0.321 A  
HETATM   38  N   UNL     1     -10.493  17.205  68.611  1.00  0.00    -0.353 NA 
ENDBRANCH  32  33
ENDBRANCH  24  29
ENDBRANCH  13  23
ENDBRANCH  10  11
ENDBRANCH   3   4
TORSDOF 5
ENDMDL
MODEL       32
REMARK 921   NORMALIZED FREE ENERGY PREDICTED BY IDOCK:   -6.78 KCAL/MOL
REMARK 922        TOTAL FREE ENERGY PREDICTED BY IDOCK:   -8.24 KCAL/MOL
REMARK 923 INTER-LIGAND FREE ENERGY PREDICTED BY IDOCK:   -8.52 KCAL/MOL
REMARK 924 INTRA-LIGAND FREE ENERGY PREDICTED BY IDOCK:    0.28 KCAL/MOL
REMARK 927      BINDING AFFINITY PREDICTED BY RF-SCORE:    0.00 PKD
ROOT
HETATM    1  C   UNL     1     -11.624   6.704  70.395  1.00  0.00    -0.457 C  
HETATM    2  C   UNL     1     -11.100   6.160  69.077  1.00  0.00    -0.437 C  
HETATM    3  C   UNL     1     -10.650   5.693  67.945  1.00  0.00    -0.266 C  
ENDROOT
BRANCH   3   4
HETATM    4  C   UNL     1     -10.171   5.243  66.650  1.00  0.00    -0.253 C  
HETATM    5  O   UNL     1     -10.883   4.474  66.016  1.00  0.00    -0.156 OA 
HETATM    6  N   UNL     1      -8.910   5.627  66.234  1.00  0.00    -0.132 N  
HETATM    7  C   UNL     1      -8.243   4.957  65.135  1.00  0.00    -0.124 C  
HETATM    8  C   UNL     1      -6.804   4.868  65.611  1.00  0.00    -0.061 C  
HETATM    9  C   UNL     1      -6.598   6.108  66.481  1.00  0.00    -0.055 C  
HETATM   10  C   UNL     1      -8.012   6.594  66.855  1.00  0.00    -0.109 C  
BRANCH  10  11
HETATM   11  C   UNL     1      -8.240   7.978  66.284  1.00  0.00    -0.116 A  
HETATM   12  N   UNL     1      -8.556   9.073  66.963  1.00  0.00    -0.116 NA 
HETATM   13  C   UNL     1      -8.806  10.068  66.031  1.00  0.00    -0.145 A  
HETATM   14  N   UNL     1      -8.694  11.419  63.077  1.00  0.00    -0.498 NA 
HETATM   15  C   UNL     1      -8.566   9.579  64.757  1.00  0.00    -0.176 A  
HETATM   16  C   UNL     1      -8.578  10.099  63.404  1.00  0.00    -0.199 A  
HETATM   17  N   UNL     1      -8.282   8.235  64.928  1.00  0.00    -0.153 NA 
HETATM   18  H2  UNL     1      -8.778  12.089  63.842  1.00  0.00     0.000 HD 
HETATM   19  C   UNL     1      -8.125   7.409  63.827  1.00  0.00    -0.017 A  
HETATM   20  C   UNL     1      -8.227   7.950  62.606  1.00  0.00    -0.111 A  
HETATM   21  N   UNL     1      -8.430   9.291  62.378  1.00  0.00    -0.184 NA 
HETATM   22  H1  UNL     1      -8.703  11.784  62.125  1.00  0.00     0.000 HD 
BRANCH  13  23
HETATM   23  C   UNL     1      -9.241  11.408  66.436  1.00  0.00    -0.209 A  
HETATM   24  C   UNL     1      -9.997  14.054  67.143  1.00  0.00    -0.252 A  
HETATM   25  C   UNL     1      -8.672  13.627  67.299  1.00  0.00    -0.223 A  
HETATM   26  C   UNL     1     -10.579  11.829  66.358  1.00  0.00    -0.293 A  
HETATM   27  C   UNL     1      -8.304  12.313  66.951  1.00  0.00    -0.137 A  
HETATM   28  C   UNL     1     -10.952  13.147  66.682  1.00  0.00    -0.301 A  
BRANCH  24  29
HETATM   29  C   UNL     1     -10.341  15.481  67.417  1.00  0.00    -0.266 C  
HETATM   30  H   UNL     1      -8.377  16.045  67.039  1.00  0.00     0.000 HD 
HETATM   31  O   UNL     1     -11.493  15.759  67.725  1.00  0.00    -0.290 OA 
HETATM   32  N   UNL     1      -9.318  16.393  67.227  1.00  0.00    -0.219 N  
BRANCH  32  33
HETATM   33  C   UNL     1      -9.529  17.777  67.282  1.00  0.00    -0.255 A  
HETATM   34  C   UNL     1      -9.323  18.516  68.443  1.00  0.00    -0.359 A  
HETATM   35  C   UNL     1      -9.622  19.877  68.433  1.00  0.00    -0.406 A  
HETATM   36  C   UNL     1     -10.146  20.447  67.281  1.00  0.00    -0.504 A  
HETATM   37  C   UNL     1     -10.288  19.639  66.164  1.00  0.00    -0.530 A  
HETATM   38  N   UNL     1      -9.947  18.331  66.126  1.00  0.00    -0.511 NA 
ENDBRANCH  32  33
ENDBRANCH  24  29
ENDBRANCH  13  23
ENDBRANCH  10  11
ENDBRANCH   3   4
TORSDOF 5
ENDMDL
MODEL       33
REMARK 921   NORMALIZED FREE ENERGY PREDICTED BY IDOCK:   -6.78 KCAL/MOL
REMARK 922        TOTAL FREE ENERGY PREDICTED BY IDOCK:   -8.24 KCAL/MOL
REMARK 923 INTER-LIGAND FREE ENERGY PREDICTED BY IDOCK:   -8.34 KCAL/MOL
REMARK 924 INTRA-LIGAND FREE ENERGY PREDICTED BY IDOCK:    0.10 KCAL/MOL
REMARK 927      BINDING AFFINITY PREDICTED BY RF-SCORE:    0.00 PKD
ROOT
HETATM    1  C   UNL     1      -7.549   8.748  62.788  1.00  0.00    -0.112 C  
HETATM    2  C   UNL     1      -7.543   8.262  64.228  1.00  0.00    -0.122 C  
HETATM    3  C   UNL     1      -7.538   7.844  65.463  1.00  0.00    -0.083 C  
ENDROOT
BRANCH   3   4
HETATM    4  C   UNL     1      -7.571   7.312  66.814  1.00  0.00    -0.100 C  
HETATM    5  O   UNL     1      -6.509   6.960  67.313  1.00  0.00    -0.045 OA 
HETATM    6  N   UNL     1      -8.793   7.145  67.437  1.00  0.00    -0.119 N  
HETATM    7  C   UNL     1      -8.928   6.322  68.623  1.00  0.00    -0.127 C  
HETATM    8  C   UNL     1     -10.243   5.600  68.390  1.00  0.00    -0.247 C  
HETATM    9  C   UNL     1     -11.095   6.579  67.582  1.00  0.00    -0.380 C  
HETATM   10  C   UNL     1     -10.104   7.598  66.984  1.00  0.00    -0.268 C  
BRANCH  10  11
HETATM   11  C   UNL     1     -10.408   8.978  67.527  1.00  0.00    -0.264 A  
HETATM   12  N   UNL     1     -10.167  10.136  66.927  1.00  0.00    -0.225 NA 
HETATM   13  C   UNL     1     -10.472  11.136  67.838  1.00  0.00    -0.190 A  
HETATM   14  N   UNL     1     -11.837  12.333  70.533  1.00  0.00    -0.517 NA 
HETATM   15  C   UNL     1     -10.979  10.566  68.995  1.00  0.00    -0.243 A  
HETATM   16  C   UNL     1     -11.522  11.035  70.254  1.00  0.00    -0.273 A  
HETATM   17  N   UNL     1     -10.862   9.199  68.812  1.00  0.00    -0.123 NA 
HETATM   18  H2  UNL     1     -11.678  13.025  69.801  1.00  0.00     0.000 HD 
HETATM   19  C   UNL     1     -11.157   8.329  69.849  1.00  0.00    -0.100 A  
HETATM   20  C   UNL     1     -11.581   8.843  71.011  1.00  0.00    -0.293 A  
HETATM   21  N   UNL     1     -11.790  10.186  71.222  1.00  0.00    -0.370 NA 
HETATM   22  H1  UNL     1     -12.219  12.663  71.420  1.00  0.00     0.000 HD 
BRANCH  13  23
HETATM   23  C   UNL     1     -10.266  12.553  67.522  1.00  0.00    -0.219 A  
HETATM   24  C   UNL     1      -9.744  15.272  66.890  1.00  0.00    -0.243 A  
HETATM   25  C   UNL     1      -9.047  14.635  67.924  1.00  0.00    -0.189 A  
HETATM   26  C   UNL     1     -11.008  13.227  66.538  1.00  0.00    -0.299 A  
HETATM   27  C   UNL     1      -9.313  13.289  68.236  1.00  0.00    -0.205 A  
HETATM   28  C   UNL     1     -10.734  14.567  66.204  1.00  0.00    -0.310 A  
BRANCH  24  29
HETATM   29  C   UNL     1      -9.369  16.667  66.507  1.00  0.00    -0.265 C  
HETATM   30  H   UNL     1      -7.950  16.720  68.024  1.00  0.00     0.000 HD 
HETATM   31  O   UNL     1      -9.956  17.197  65.573  1.00  0.00    -0.565 OA 
HETATM   32  N   UNL     1      -8.320  17.223  67.217  1.00  0.00    -0.197 N  
BRANCH  32  33
HETATM   33  C   UNL     1      -7.747  18.452  66.865  1.00  0.00    -0.224 A  
HETATM   34  C   UNL     1      -7.129  18.661  65.636  1.00  0.00    -0.215 A  
HETATM   35  C   UNL     1      -6.523  19.893  65.392  1.00  0.00    -0.297 A  
HETATM   36  C   UNL     1      -6.527  20.859  66.389  1.00  0.00    -0.310 A  
HETATM   37  C   UNL     1      -7.194  20.573  67.569  1.00  0.00    -0.325 A  
HETATM   38  N   UNL     1      -7.844  19.410  67.809  1.00  0.00    -0.273 NA 
ENDBRANCH  32  33
ENDBRANCH  24  29
ENDBRANCH  13  23
ENDBRANCH  10  11
ENDBRANCH   3   4
TORSDOF 5
ENDMDL
MODEL       34
REMARK 921   NORMALIZED FREE ENERGY PREDICTED BY IDOCK:   -6.76 KCAL/MOL
REMARK 922        TOTAL FREE ENERGY PREDICTED BY IDOCK:   -8.22 KCAL/MOL
REMARK 923 INTER-LIGAND FREE ENERGY PREDICTED BY IDOCK:   -8.74 KCAL/MOL
REMARK 924 INTRA-LIGAND FREE ENERGY PREDICTED BY IDOCK:    0.53 KCAL/MOL
REMARK 927      BINDING AFFINITY PREDICTED BY RF-SCORE:    0.00 PKD
ROOT
HETATM    1  C   UNL     1     -13.947  15.434  71.541  1.00  0.00    -0.601 C  
HETATM    2  C   UNL     1     -12.969  15.514  70.382  1.00  0.00    -0.252 C  
HETATM    3  C   UNL     1     -12.129  15.583  69.386  1.00  0.00    -0.302 C  
ENDROOT
BRANCH   3   4
HETATM    4  C   UNL     1     -11.256  15.649  68.227  1.00  0.00    -0.353 C  
HETATM    5  O   UNL     1     -10.512  16.617  68.129  1.00  0.00    -0.290 OA 
HETATM    6  N   UNL     1     -11.364  14.674  67.253  1.00  0.00    -0.341 N  
HETATM    7  C   UNL     1     -10.782  14.856  65.938  1.00  0.00    -0.323 C  
HETATM    8  C   UNL     1     -11.836  14.273  65.014  1.00  0.00    -0.396 C  
HETATM    9  C   UNL     1     -12.495  13.155  65.822  1.00  0.00    -0.441 C  
HETATM   10  C   UNL     1     -12.144  13.442  67.295  1.00  0.00    -0.304 C  
BRANCH  10  11
HETATM   11  C   UNL     1     -11.313  12.303  67.848  1.00  0.00    -0.298 A  
HETATM   12  N   UNL     1     -11.730  11.341  68.661  1.00  0.00    -0.384 NA 
HETATM   13  C   UNL     1     -10.612  10.605  69.022  1.00  0.00    -0.219 A  
HETATM   14  N   UNL     1      -7.535   9.604  68.724  1.00  0.00    -0.074 NA 
HETATM   15  C   UNL     1      -9.502  11.093  68.353  1.00  0.00    -0.189 A  
HETATM   16  C   UNL     1      -8.098  10.749  68.241  1.00  0.00    -0.121 A  
HETATM   17  N   UNL     1      -9.947  12.213  67.673  1.00  0.00    -0.194 NA 
HETATM   18  H2  UNL     1      -8.147   8.941  69.200  1.00  0.00     0.000 HD 
HETATM   19  C   UNL     1      -9.047  13.027  67.003  1.00  0.00    -0.230 A  
HETATM   20  C   UNL     1      -7.752  12.684  67.010  1.00  0.00    -0.014 A  
HETATM   21  N   UNL     1      -7.267  11.541  67.602  1.00  0.00    -0.097 NA 
HETATM   22  H1  UNL     1      -6.547   9.362  68.646  1.00  0.00     0.000 HD 
BRANCH  13  23
HETATM   23  C   UNL     1     -10.701   9.487  69.967  1.00  0.00    -0.278 A  
HETATM   24  C   UNL     1     -10.755   7.288  71.764  1.00  0.00    -0.243 A  
HETATM   25  C   UNL     1     -10.499   7.087  70.402  1.00  0.00    -0.225 A  
HETATM   26  C   UNL     1     -11.031   9.661  71.321  1.00  0.00    -0.399 A  
HETATM   27  C   UNL     1     -10.477   8.180  69.515  1.00  0.00    -0.227 A  
HETATM   28  C   UNL     1     -11.033   8.578  72.220  1.00  0.00    -0.426 A  
BRANCH  24  29
HETATM   29  C   UNL     1     -10.667   6.129  72.702  1.00  0.00    -0.229 C  
HETATM   30  H   UNL     1     -10.310   4.845  71.109  1.00  0.00     0.000 HD 
HETATM   31  O   UNL     1     -10.820   6.330  73.900  1.00  0.00    -0.179 OA 
HETATM   32  N   UNL     1     -10.345   4.913  72.126  1.00  0.00    -0.199 N  
BRANCH  32  33
HETATM   33  C   UNL     1     -10.064   3.774  72.891  1.00  0.00    -0.157 A  
HETATM   34  C   UNL     1     -11.065   3.002  73.474  1.00  0.00    -0.317 A  
HETATM   35  C   UNL     1     -10.698   1.924  74.277  1.00  0.00    -0.196 A  
HETATM   36  C   UNL     1      -9.351   1.672  74.499  1.00  0.00    -0.084 A  
HETATM   37  C   UNL     1      -8.424   2.475  73.853  1.00  0.00    -0.071 A  
HETATM   38  N   UNL     1      -8.752   3.488  73.018  1.00  0.00    -0.092 NA 
ENDBRANCH  32  33
ENDBRANCH  24  29
ENDBRANCH  13  23
ENDBRANCH  10  11
ENDBRANCH   3   4
TORSDOF 5
ENDMDL
MODEL       35
REMARK 921   NORMALIZED FREE ENERGY PREDICTED BY IDOCK:   -6.74 KCAL/MOL
REMARK 922        TOTAL FREE ENERGY PREDICTED BY IDOCK:   -8.19 KCAL/MOL
REMARK 923 INTER-LIGAND FREE ENERGY PREDICTED BY IDOCK:   -8.56 KCAL/MOL
REMARK 924 INTRA-LIGAND FREE ENERGY PREDICTED BY IDOCK:    0.38 KCAL/MOL
REMARK 927      BINDING AFFINITY PREDICTED BY RF-SCORE:    0.00 PKD
ROOT
HETATM    1  C   UNL     1      -7.312   9.532  63.098  1.00  0.00    -0.110 C  
HETATM    2  C   UNL     1      -7.278   8.571  64.275  1.00  0.00    -0.095 C  
HETATM    3  C   UNL     1      -7.248   7.747  65.284  1.00  0.00    -0.068 C  
ENDROOT
BRANCH   3   4
HETATM    4  C   UNL     1      -7.248   6.772  66.361  1.00  0.00    -0.072 C  
HETATM    5  O   UNL     1      -6.163   6.373  66.767  1.00  0.00    -0.037 OA 
HETATM    6  N   UNL     1      -8.456   6.276  66.813  1.00  0.00    -0.110 N  
HETATM    7  C   UNL     1      -8.521   5.078  67.628  1.00  0.00    -0.104 C  
HETATM    8  C   UNL     1      -9.741   4.358  67.080  1.00  0.00    -0.230 C  
HETATM    9  C   UNL     1     -10.681   5.470  66.615  1.00  0.00    -0.332 C  
HETATM   10  C   UNL     1      -9.800   6.727  66.470  1.00  0.00    -0.104 C  
BRANCH  10  11
HETATM   11  C   UNL     1     -10.270   7.790  67.441  1.00  0.00    -0.251 A  
HETATM   12  N   UNL     1     -10.324   9.096  67.219  1.00  0.00    -0.255 NA 
HETATM   13  C   UNL     1     -10.677   9.696  68.419  1.00  0.00    -0.209 A  
HETATM   14  N   UNL     1     -11.854   9.731  71.448  1.00  0.00    -0.389 NA 
HETATM   15  C   UNL     1     -10.911   8.718  69.372  1.00  0.00    -0.110 A  
HETATM   16  C   UNL     1     -11.353   8.670  70.751  1.00  0.00    -0.263 A  
HETATM   17  N   UNL     1     -10.577   7.522  68.760  1.00  0.00    -0.190 NA 
HETATM   18  H2  UNL     1     -11.923  10.625  70.960  1.00  0.00     0.000 HD 
HETATM   19  C   UNL     1     -10.568   6.344  69.489  1.00  0.00    -0.253 A  
HETATM   20  C   UNL     1     -10.914   6.393  70.782  1.00  0.00    -0.290 A  
HETATM   21  N   UNL     1     -11.329   7.538  71.420  1.00  0.00    -0.253 NA 
HETATM   22  H1  UNL     1     -12.164   9.697  72.418  1.00  0.00     0.000 HD 
BRANCH  13  23
HETATM   23  C   UNL     1     -10.773  11.153  68.550  1.00  0.00    -0.235 A  
HETATM   24  C   UNL     1     -10.917  13.987  68.685  1.00  0.00    -0.281 A  
HETATM   25  C   UNL     1      -9.710  13.350  68.371  1.00  0.00    -0.201 A  
HETATM   26  C   UNL     1     -11.956  11.805  68.936  1.00  0.00    -0.332 A  
HETATM   27  C   UNL     1      -9.643  11.945  68.310  1.00  0.00    -0.201 A  
HETATM   28  C   UNL     1     -12.038  13.209  68.979  1.00  0.00    -0.240 A  
BRANCH  24  29
HETATM   29  C   UNL     1     -10.989  15.478  68.639  1.00  0.00    -0.279 C  
HETATM   30  H   UNL     1      -9.352  15.535  67.360  1.00  0.00     0.000 HD 
HETATM   31  O   UNL     1     -11.862  16.044  69.284  1.00  0.00    -0.345 OA 
HETATM   32  N   UNL     1     -10.083  16.097  67.796  1.00  0.00    -0.245 N  
BRANCH  32  33
HETATM   33  C   UNL     1     -10.136  17.470  67.520  1.00  0.00    -0.326 A  
HETATM   34  C   UNL     1     -10.585  17.967  66.300  1.00  0.00    -0.262 A  
HETATM   35  C   UNL     1     -10.541  19.343  66.080  1.00  0.00    -0.571 A  
HETATM   36  C   UNL     1     -10.023  20.170  67.067  1.00  0.00    -0.596 A  
HETATM   37  C   UNL     1      -9.628  19.589  68.261  1.00  0.00    -0.379 A  
HETATM   38  N   UNL     1      -9.718  18.265  68.525  1.00  0.00    -0.345 NA 
ENDBRANCH  32  33
ENDBRANCH  24  29
ENDBRANCH  13  23
ENDBRANCH  10  11
ENDBRANCH   3   4
TORSDOF 5
ENDMDL
MODEL       36
REMARK 921   NORMALIZED FREE ENERGY PREDICTED BY IDOCK:   -6.73 KCAL/MOL
REMARK 922        TOTAL FREE ENERGY PREDICTED BY IDOCK:   -8.18 KCAL/MOL
REMARK 923 INTER-LIGAND FREE ENERGY PREDICTED BY IDOCK:   -6.98 KCAL/MOL
REMARK 924 INTRA-LIGAND FREE ENERGY PREDICTED BY IDOCK:   -1.20 KCAL/MOL
REMARK 927      BINDING AFFINITY PREDICTED BY RF-SCORE:    0.00 PKD
ROOT
HETATM    1  C   UNL     1      -8.374   1.730  66.700  1.00  0.00    -0.089 C  
HETATM    2  C   UNL     1      -8.404   2.771  67.807  1.00  0.00    -0.094 C  
HETATM    3  C   UNL     1      -8.431   3.663  68.758  1.00  0.00    -0.102 C  
ENDROOT
BRANCH   3   4
HETATM    4  C   UNL     1      -8.482   4.598  69.868  1.00  0.00    -0.073 C  
HETATM    5  O   UNL     1      -7.699   4.426  70.793  1.00  0.00    -0.055 OA 
HETATM    6  N   UNL     1      -9.459   5.576  69.873  1.00  0.00    -0.151 N  
HETATM    7  C   UNL     1      -9.781   6.313  71.080  1.00  0.00    -0.176 C  
HETATM    8  C   UNL     1     -11.295   6.419  71.021  1.00  0.00    -0.386 C  
HETATM    9  C   UNL     1     -11.630   6.475  69.531  1.00  0.00    -0.298 C  
HETATM   10  C   UNL     1     -10.385   5.929  68.803  1.00  0.00    -0.219 C  
BRANCH  10  11
HETATM   11  C   UNL     1      -9.796   7.014  67.924  1.00  0.00    -0.138 A  
HETATM   12  N   UNL     1      -9.846   8.321  68.140  1.00  0.00    -0.166 NA 
HETATM   13  C   UNL     1      -9.308   8.936  67.020  1.00  0.00    -0.152 A  
HETATM   14  N   UNL     1      -7.600   9.027  64.257  1.00  0.00    -0.112 NA 
HETATM   15  C   UNL     1      -8.858   7.971  66.135  1.00  0.00    -0.166 A  
HETATM   16  C   UNL     1      -8.170   7.944  64.860  1.00  0.00    -0.124 A  
HETATM   17  N   UNL     1      -9.241   6.761  66.687  1.00  0.00    -0.154 NA 
HETATM   18  H2  UNL     1      -7.664   9.924  64.740  1.00  0.00     0.000 HD 
HETATM   19  C   UNL     1      -9.061   5.583  65.979  1.00  0.00    -0.156 A  
HETATM   20  C   UNL     1      -8.487   5.648  64.771  1.00  0.00    -0.102 A  
HETATM   21  N   UNL     1      -8.017   6.812  64.209  1.00  0.00    -0.112 NA 
HETATM   22  H1  UNL     1      -7.116   9.008  63.360  1.00  0.00     0.000 HD 
BRANCH  13  23
HETATM   23  C   UNL     1      -9.259  10.397  66.895  1.00  0.00    -0.170 A  
HETATM   24  C   UNL     1      -9.281  13.231  66.702  1.00  0.00    -0.222 A  
HETATM   25  C   UNL     1     -10.273  12.467  66.075  1.00  0.00    -0.267 A  
HETATM   26  C   UNL     1      -8.230  11.173  67.454  1.00  0.00    -0.132 A  
HETATM   27  C   UNL     1     -10.256  11.063  66.170  1.00  0.00    -0.298 A  
HETATM   28  C   UNL     1      -8.252  12.578  67.382  1.00  0.00    -0.183 A  
BRANCH  24  29
HETATM   29  C   UNL     1      -9.381  14.721  66.676  1.00  0.00    -0.268 C  
HETATM   30  H   UNL     1      -9.264  14.781  68.749  1.00  0.00     0.000 HD 
HETATM   31  O   UNL     1      -9.484  15.284  65.594  1.00  0.00    -0.320 OA 
HETATM   32  N   UNL     1      -9.276  15.350  67.903  1.00  0.00    -0.180 N  
BRANCH  32  33
HETATM   33  C   UNL     1      -9.184  16.744  68.024  1.00  0.00    -0.228 A  
HETATM   34  C   UNL     1      -7.962  17.406  68.093  1.00  0.00    -0.233 A  
HETATM   35  C   UNL     1      -7.959  18.788  68.282  1.00  0.00    -0.346 A  
HETATM   36  C   UNL     1      -9.168  19.454  68.427  1.00  0.00    -0.415 A  
HETATM   37  C   UNL     1     -10.335  18.716  68.314  1.00  0.00    -0.344 A  
HETATM   38  N   UNL     1     -10.369  17.386  68.068  1.00  0.00    -0.345 NA 
ENDBRANCH  32  33
ENDBRANCH  24  29
ENDBRANCH  13  23
ENDBRANCH  10  11
ENDBRANCH   3   4
TORSDOF 5
ENDMDL
MODEL       37
REMARK 921   NORMALIZED FREE ENERGY PREDICTED BY IDOCK:   -6.63 KCAL/MOL
REMARK 922        TOTAL FREE ENERGY PREDICTED BY IDOCK:   -8.05 KCAL/MOL
REMARK 923 INTER-LIGAND FREE ENERGY PREDICTED BY IDOCK:   -6.86 KCAL/MOL
REMARK 924 INTRA-LIGAND FREE ENERGY PREDICTED BY IDOCK:   -1.19 KCAL/MOL
REMARK 927      BINDING AFFINITY PREDICTED BY RF-SCORE:    0.00 PKD
ROOT
HETATM    1  C   UNL     1     -10.582   4.725  65.792  1.00  0.00    -0.262 C  
HETATM    2  C   UNL     1      -9.333   5.547  66.061  1.00  0.00    -0.161 C  
HETATM    3  C   UNL     1      -8.261   6.253  66.291  1.00  0.00    -0.117 C  
ENDROOT
BRANCH   3   4
HETATM    4  C   UNL     1      -7.068   7.062  66.470  1.00  0.00    -0.077 C  
HETATM    5  O   UNL     1      -6.278   7.126  65.536  1.00  0.00    -0.036 OA 
HETATM    6  N   UNL     1      -6.835   7.646  67.701  1.00  0.00    -0.067 N  
HETATM    7  C   UNL     1      -5.531   8.173  68.050  1.00  0.00    -0.034 C  
HETATM    8  C   UNL     1      -5.373   7.758  69.503  1.00  0.00    -0.023 C  
HETATM    9  C   UNL     1      -6.792   7.764  70.072  1.00  0.00    -0.049 C  
HETATM   10  C   UNL     1      -7.731   7.710  68.851  1.00  0.00    -0.117 C  
BRANCH  10  11
HETATM   11  C   UNL     1      -8.571   8.969  68.802  1.00  0.00    -0.132 A  
HETATM   12  N   UNL     1      -8.292  10.083  68.138  1.00  0.00    -0.113 NA 
HETATM   13  C   UNL     1      -9.256  11.016  68.489  1.00  0.00    -0.177 A  
HETATM   14  N   UNL     1     -12.102  11.968  69.734  1.00  0.00    -0.278 NA 
HETATM   15  C   UNL     1     -10.182  10.426  69.334  1.00  0.00    -0.234 A  
HETATM   16  C   UNL     1     -11.417  10.815  69.985  1.00  0.00    -0.331 A  
HETATM   17  N   UNL     1      -9.695   9.155  69.582  1.00  0.00    -0.170 NA 
HETATM   18  H2  UNL     1     -11.716  12.604  69.035  1.00  0.00     0.000 HD 
HETATM   19  C   UNL     1     -10.321   8.336  70.508  1.00  0.00    -0.202 A  
HETATM   20  C   UNL     1     -11.415   8.797  71.129  1.00  0.00    -0.286 A  
HETATM   21  N   UNL     1     -11.987  10.020  70.863  1.00  0.00    -0.334 NA 
HETATM   22  H1  UNL     1     -12.971  12.242  70.193  1.00  0.00     0.000 HD 
BRANCH  13  23
HETATM   23  C   UNL     1      -9.218  12.389  67.977  1.00  0.00    -0.203 A  
HETATM   24  C   UNL     1      -9.017  15.040  66.977  1.00  0.00    -0.255 A  
HETATM   25  C   UNL     1      -8.312  14.658  68.125  1.00  0.00    -0.144 A  
HETATM   26  C   UNL     1      -9.975  12.810  66.871  1.00  0.00    -0.232 A  
HETATM   27  C   UNL     1      -8.418  13.344  68.619  1.00  0.00     0.001 A  
HETATM   28  C   UNL     1      -9.858  14.115  66.358  1.00  0.00    -0.308 A  
BRANCH  24  29
HETATM   29  C   UNL     1      -8.805  16.406  66.411  1.00  0.00    -0.311 C  
HETATM   30  H   UNL     1      -7.137  16.667  67.622  1.00  0.00     0.000 HD 
HETATM   31  O   UNL     1      -9.585  16.818  65.562  1.00  0.00    -0.515 OA 
HETATM   32  N   UNL     1      -7.679  17.073  66.859  1.00  0.00    -0.195 N  
BRANCH  32  33
HETATM   33  C   UNL     1      -7.257  18.287  66.300  1.00  0.00    -0.262 A  
HETATM   34  C   UNL     1      -6.365  18.345  65.233  1.00  0.00    -0.223 A  
HETATM   35  C   UNL     1      -5.943  19.594  64.780  1.00  0.00    -0.299 A  
HETATM   36  C   UNL     1      -6.395  20.737  65.425  1.00  0.00    -0.265 A  
HETATM   37  C   UNL     1      -7.305  20.583  66.459  1.00  0.00    -0.203 A  
HETATM   38  N   UNL     1      -7.780  19.387  66.877  1.00  0.00    -0.244 NA 
ENDBRANCH  32  33
ENDBRANCH  24  29
ENDBRANCH  13  23
ENDBRANCH  10  11
ENDBRANCH   3   4
TORSDOF 5
ENDMDL
MODEL       38
REMARK 921   NORMALIZED FREE ENERGY PREDICTED BY IDOCK:   -6.56 KCAL/MOL
REMARK 922        TOTAL FREE ENERGY PREDICTED BY IDOCK:   -7.95 KCAL/MOL
REMARK 923 INTER-LIGAND FREE ENERGY PREDICTED BY IDOCK:   -7.82 KCAL/MOL
REMARK 924 INTRA-LIGAND FREE ENERGY PREDICTED BY IDOCK:   -0.13 KCAL/MOL
REMARK 927      BINDING AFFINITY PREDICTED BY RF-SCORE:    0.00 PKD
ROOT
HETATM    1  C   UNL     1     -13.416  13.711  72.371  1.00  0.00    -0.685 C  
HETATM    2  C   UNL     1     -12.403  14.098  71.306  1.00  0.00    -0.447 C  
HETATM    3  C   UNL     1     -11.533  14.430  70.392  1.00  0.00    -0.228 C  
ENDROOT
BRANCH   3   4
HETATM    4  C   UNL     1     -10.627  14.813  69.324  1.00  0.00    -0.240 C  
HETATM    5  O   UNL     1      -9.702  15.565  69.605  1.00  0.00    -0.270 OA 
HETATM    6  N   UNL     1     -10.896  14.389  68.036  1.00  0.00    -0.240 N  
HETATM    7  C   UNL     1     -10.245  14.998  66.892  1.00  0.00    -0.258 C  
HETATM    8  C   UNL     1     -11.364  15.082  65.868  1.00  0.00    -0.273 C  
HETATM    9  C   UNL     1     -12.259  13.878  66.161  1.00  0.00    -0.498 C  
HETATM   10  C   UNL     1     -11.907  13.435  67.594  1.00  0.00    -0.354 C  
BRANCH  10  11
HETATM   11  C   UNL     1     -11.338  12.031  67.565  1.00  0.00    -0.319 A  
HETATM   12  N   UNL     1     -11.157  11.229  68.605  1.00  0.00    -0.211 NA 
HETATM   13  C   UNL     1     -10.488  10.108  68.139  1.00  0.00    -0.206 A  
HETATM   14  N   UNL     1      -9.413   8.075  65.843  1.00  0.00    -0.425 NA 
HETATM   15  C   UNL     1     -10.324  10.206  66.767  1.00  0.00    -0.222 A  
HETATM   16  C   UNL     1      -9.783   9.380  65.705  1.00  0.00    -0.284 A  
HETATM   17  N   UNL     1     -10.800  11.460  66.430  1.00  0.00    -0.277 NA 
HETATM   18  H2  UNL     1      -9.524   7.647  66.763  1.00  0.00     0.000 HD 
HETATM   19  C   UNL     1     -10.657  11.937  65.136  1.00  0.00    -0.287 A  
HETATM   20  C   UNL     1     -10.076  11.143  64.227  1.00  0.00    -0.326 A  
HETATM   21  N   UNL     1      -9.656   9.860  64.488  1.00  0.00    -0.279 NA 
HETATM   22  H1  UNL     1      -9.032   7.494  65.096  1.00  0.00     0.000 HD 
BRANCH  13  23
HETATM   23  C   UNL     1     -10.072   9.031  69.043  1.00  0.00    -0.204 A  
HETATM   24  C   UNL     1      -9.314   6.859  70.710  1.00  0.00    -0.161 A  
HETATM   25  C   UNL     1     -10.649   7.024  70.320  1.00  0.00    -0.247 A  
HETATM   26  C   UNL     1      -8.752   8.893  69.505  1.00  0.00    -0.142 A  
HETATM   27  C   UNL     1     -11.020   8.104  69.497  1.00  0.00    -0.056 A  
HETATM   28  C   UNL     1      -8.368   7.804  70.309  1.00  0.00    -0.127 A  
BRANCH  24  29
HETATM   29  C   UNL     1      -8.926   5.648  71.494  1.00  0.00    -0.140 C  
HETATM   30  H   UNL     1      -7.041   5.666  70.622  1.00  0.00     0.000 HD 
HETATM   31  O   UNL     1      -9.748   5.153  72.255  1.00  0.00    -0.156 OA 
HETATM   32  N   UNL     1      -7.619   5.224  71.336  1.00  0.00    -0.095 N  
BRANCH  32  33
HETATM   33  C   UNL     1      -7.062   4.209  72.125  1.00  0.00    -0.055 A  
HETATM   34  C   UNL     1      -7.359   2.864  71.927  1.00  0.00    -0.043 A  
HETATM   35  C   UNL     1      -6.816   1.922  72.800  1.00  0.00    -0.022 A  
HETATM   36  C   UNL     1      -6.025   2.354  73.856  1.00  0.00    -0.004 A  
HETATM   37  C   UNL     1      -5.759   3.710  73.956  1.00  0.00    -0.004 A  
HETATM   38  N   UNL     1      -6.221   4.639  73.087  1.00  0.00    -0.034 NA 
ENDBRANCH  32  33
ENDBRANCH  24  29
ENDBRANCH  13  23
ENDBRANCH  10  11
ENDBRANCH   3   4
TORSDOF 5
ENDMDL
MODEL       39
REMARK 921   NORMALIZED FREE ENERGY PREDICTED BY IDOCK:   -6.55 KCAL/MOL
REMARK 922        TOTAL FREE ENERGY PREDICTED BY IDOCK:   -7.94 KCAL/MOL
REMARK 923 INTER-LIGAND FREE ENERGY PREDICTED BY IDOCK:   -6.62 KCAL/MOL
REMARK 924 INTRA-LIGAND FREE ENERGY PREDICTED BY IDOCK:   -1.32 KCAL/MOL
REMARK 927      BINDING AFFINITY PREDICTED BY RF-SCORE:    0.00 PKD
ROOT
HETATM    1  C   UNL     1      -6.086   1.708  66.435  1.00  0.00    -0.019 C  
HETATM    2  C   UNL     1      -6.131   2.204  67.870  1.00  0.00    -0.024 C  
HETATM    3  C   UNL     1      -6.170   2.630  69.103  1.00  0.00    -0.028 C  
ENDROOT
BRANCH   3   4
HETATM    4  C   UNL     1      -6.276   3.056  70.487  1.00  0.00    -0.023 C  
HETATM    5  O   UNL     1      -5.241   3.344  71.075  1.00  0.00    -0.003 OA 
HETATM    6  N   UNL     1      -7.515   3.031  71.100  1.00  0.00    -0.033 N  
HETATM    7  C   UNL     1      -7.644   3.113  72.542  1.00  0.00    -0.057 C  
HETATM    8  C   UNL     1      -8.753   2.120  72.842  1.00  0.00    -0.068 C  
HETATM    9  C   UNL     1      -9.663   2.161  71.615  1.00  0.00    -0.217 C  
HETATM   10  C   UNL     1      -8.817   2.789  70.490  1.00  0.00    -0.086 C  
BRANCH  10  11
HETATM   11  C   UNL     1      -9.450   4.092  70.047  1.00  0.00    -0.190 A  
HETATM   12  N   UNL     1      -9.881   5.070  70.832  1.00  0.00    -0.192 NA 
HETATM   13  C   UNL     1     -10.509   5.997  70.016  1.00  0.00    -0.250 A  
HETATM   14  N   UNL     1     -11.225   7.393  67.170  1.00  0.00    -0.450 NA 
HETATM   15  C   UNL     1     -10.391   5.602  68.693  1.00  0.00    -0.208 A  
HETATM   16  C   UNL     1     -10.758   6.131  67.395  1.00  0.00    -0.322 A  
HETATM   17  N   UNL     1      -9.785   4.358  68.735  1.00  0.00    -0.154 NA 
HETATM   18  H2  UNL     1     -11.323   8.010  67.976  1.00  0.00     0.000 HD 
HETATM   19  C   UNL     1      -9.640   3.613  67.576  1.00  0.00    -0.144 A  
HETATM   20  C   UNL     1     -10.075   4.139  66.423  1.00  0.00    -0.078 A  
HETATM   21  N   UNL     1     -10.613   5.400  66.312  1.00  0.00    -0.250 NA 
HETATM   22  H1  UNL     1     -11.483   7.765  66.256  1.00  0.00     0.000 HD 
BRANCH  13  23
HETATM   23  C   UNL     1     -11.158   7.191  70.567  1.00  0.00    -0.299 A  
HETATM   24  C   UNL     1     -12.400   9.561  71.521  1.00  0.00    -0.465 A  
HETATM   25  C   UNL     1     -11.101   9.598  71.000  1.00  0.00    -0.438 A  
HETATM   26  C   UNL     1     -12.431   7.158  71.161  1.00  0.00    -0.400 A  
HETATM   27  C   UNL     1     -10.488   8.421  70.532  1.00  0.00    -0.227 A  
HETATM   28  C   UNL     1     -13.059   8.334  71.611  1.00  0.00    -0.354 A  
BRANCH  24  29
HETATM   29  C   UNL     1     -13.068  10.838  71.912  1.00  0.00    -0.451 C  
HETATM   30  H   UNL     1     -11.372  11.910  71.369  1.00  0.00     0.000 HD 
HETATM   31  O   UNL     1     -14.210  10.794  72.351  1.00  0.00     0.489 OA 
HETATM   32  N   UNL     1     -12.343  11.992  71.671  1.00  0.00     0.068 N  
BRANCH  32  33
HETATM   33  C   UNL     1     -12.897  13.270  71.829  1.00  0.00    -0.269 A  
HETATM   34  C   UNL     1     -13.447  13.979  70.765  1.00  0.00     0.015 A  
HETATM   35  C   UNL     1     -13.915  15.272  70.992  1.00  0.00    -0.368 A  
HETATM   36  C   UNL     1     -13.790  15.825  72.260  1.00  0.00    -0.481 A  
HETATM   37  C   UNL     1     -13.257  15.032  73.264  1.00  0.00    -0.422 A  
HETATM   38  N   UNL     1     -12.853  13.753  73.086  1.00  0.00    -0.218 NA 
ENDBRANCH  32  33
ENDBRANCH  24  29
ENDBRANCH  13  23
ENDBRANCH  10  11
ENDBRANCH   3   4
TORSDOF 5
ENDMDL
MODEL       40
REMARK 921   NORMALIZED FREE ENERGY PREDICTED BY IDOCK:   -6.54 KCAL/MOL
REMARK 922        TOTAL FREE ENERGY PREDICTED BY IDOCK:   -7.93 KCAL/MOL
REMARK 923 INTER-LIGAND FREE ENERGY PREDICTED BY IDOCK:   -8.66 KCAL/MOL
REMARK 924 INTRA-LIGAND FREE ENERGY PREDICTED BY IDOCK:    0.73 KCAL/MOL
REMARK 927      BINDING AFFINITY PREDICTED BY RF-SCORE:    0.00 PKD
ROOT
HETATM    1  C   UNL     1     -10.051   4.601  65.822  1.00  0.00    -0.264 C  
HETATM    2  C   UNL     1      -9.910   4.665  67.333  1.00  0.00    -0.207 C  
HETATM    3  C   UNL     1      -9.788   4.721  68.631  1.00  0.00    -0.208 C  
ENDROOT
BRANCH   3   4
HETATM    4  C   UNL     1      -9.672   4.861  70.072  1.00  0.00    -0.215 C  
HETATM    5  O   UNL     1      -8.913   4.100  70.658  1.00  0.00    -0.085 OA 
HETATM    6  N   UNL     1     -10.479   5.776  70.721  1.00  0.00    -0.242 N  
HETATM    7  C   UNL     1     -10.660   5.734  72.159  1.00  0.00    -0.219 C  
HETATM    8  C   UNL     1     -12.138   6.042  72.326  1.00  0.00    -0.196 C  
HETATM    9  C   UNL     1     -12.481   6.973  71.162  1.00  0.00    -0.407 C  
HETATM   10  C   UNL     1     -11.352   6.785  70.131  1.00  0.00    -0.350 C  
BRANCH  10  11
HETATM   11  C   UNL     1     -10.609   8.093  69.949  1.00  0.00    -0.239 A  
HETATM   12  N   UNL     1     -11.062   9.182  69.343  1.00  0.00    -0.086 NA 
HETATM   13  C   UNL     1     -10.007  10.080  69.285  1.00  0.00    -0.213 A  
HETATM   14  N   UNL     1      -7.095  11.247  70.135  1.00  0.00    -0.429 NA 
HETATM   15  C   UNL     1      -8.908   9.544  69.937  1.00  0.00    -0.211 A  
HETATM   16  C   UNL     1      -7.566   9.974  70.275  1.00  0.00    -0.106 A  
HETATM   17  N   UNL     1      -9.281   8.258  70.286  1.00  0.00    -0.153 NA 
HETATM   18  H2  UNL     1      -7.736  11.948  69.763  1.00  0.00     0.000 HD 
HETATM   19  C   UNL     1      -8.355   7.389  70.841  1.00  0.00    -0.115 A  
HETATM   20  C   UNL     1      -7.111   7.836  71.053  1.00  0.00    -0.053 A  
HETATM   21  N   UNL     1      -6.708   9.127  70.798  1.00  0.00    -0.073 NA 
HETATM   22  H1  UNL     1      -6.151  11.548  70.373  1.00  0.00     0.000 HD 
BRANCH  13  23
HETATM   23  C   UNL     1     -10.141  11.381  68.622  1.00  0.00    -0.217 A  
HETATM   24  C   UNL     1     -10.385  13.958  67.450  1.00  0.00    -0.252 A  
HETATM   25  C   UNL     1     -11.237  13.565  68.491  1.00  0.00    -0.310 A  
HETATM   26  C   UNL     1      -9.346  11.762  67.528  1.00  0.00    -0.174 A  
HETATM   27  C   UNL     1     -11.114  12.286  69.065  1.00  0.00    -0.289 A  
HETATM   28  C   UNL     1      -9.446  13.047  66.963  1.00  0.00    -0.237 A  
BRANCH  24  29
HETATM   29  C   UNL     1     -10.463  15.356  66.931  1.00  0.00    -0.295 C  
HETATM   30  H   UNL     1      -9.683  16.080  68.715  1.00  0.00     0.000 HD 
HETATM   31  O   UNL     1     -10.900  15.539  65.802  1.00  0.00    -0.332 OA 
HETATM   32  N   UNL     1      -9.957  16.336  67.766  1.00  0.00    -0.242 N  
BRANCH  32  33
HETATM   33  C   UNL     1      -9.808  17.666  67.353  1.00  0.00    -0.305 A  
HETATM   34  C   UNL     1      -8.720  18.095  66.599  1.00  0.00    -0.279 A  
HETATM   35  C   UNL     1      -8.612  19.450  66.288  1.00  0.00    -0.360 A  
HETATM   36  C   UNL     1      -9.571  20.333  66.765  1.00  0.00    -0.548 A  
HETATM   37  C   UNL     1     -10.636  19.810  67.482  1.00  0.00    -0.408 A  
HETATM   38  N   UNL     1     -10.799  18.493  67.744  1.00  0.00    -0.337 NA 
ENDBRANCH  32  33
ENDBRANCH  24  29
ENDBRANCH  13  23
ENDBRANCH  10  11
ENDBRANCH   3   4
TORSDOF 5
ENDMDL
MODEL       41
REMARK 921   NORMALIZED FREE ENERGY PREDICTED BY IDOCK:   -6.39 KCAL/MOL
REMARK 922        TOTAL FREE ENERGY PREDICTED BY IDOCK:   -7.74 KCAL/MOL
REMARK 923 INTER-LIGAND FREE ENERGY PREDICTED BY IDOCK:   -6.44 KCAL/MOL
REMARK 924 INTRA-LIGAND FREE ENERGY PREDICTED BY IDOCK:   -1.30 KCAL/MOL
REMARK 927      BINDING AFFINITY PREDICTED BY RF-SCORE:    0.00 PKD
ROOT
HETATM    1  C   UNL     1      -9.596  19.165  68.528  1.00  0.00    -0.454 C  
HETATM    2  C   UNL     1     -10.023  18.177  67.455  1.00  0.00    -0.338 C  
HETATM    3  C   UNL     1     -10.389  17.329  66.535  1.00  0.00    -0.308 C  
ENDROOT
BRANCH   3   4
HETATM    4  C   UNL     1     -10.860  16.433  65.493  1.00  0.00    -0.215 C  
HETATM    5  O   UNL     1     -10.960  16.883  64.358  1.00  0.00    -1.016 OA 
HETATM    6  N   UNL     1     -11.254  15.155  65.840  1.00  0.00    -0.318 N  
HETATM    7  C   UNL     1     -12.037  14.336  64.935  1.00  0.00    -0.435 C  
HETATM    8  C   UNL     1     -13.029  13.656  65.862  1.00  0.00    -0.173 C  
HETATM    9  C   UNL     1     -12.284  13.493  67.187  1.00  0.00    -0.328 C  
HETATM   10  C   UNL     1     -11.106  14.485  67.127  1.00  0.00    -0.321 C  
BRANCH  10  11
HETATM   11  C   UNL     1      -9.799  13.722  67.184  1.00  0.00    -0.242 A  
HETATM   12  N   UNL     1      -9.553  12.532  66.653  1.00  0.00    -0.234 NA 
HETATM   13  C   UNL     1      -8.284  12.159  67.067  1.00  0.00    -0.164 A  
HETATM   14  N   UNL     1      -5.327  12.688  68.307  1.00  0.00    -0.059 NA 
HETATM   15  C   UNL     1      -7.721  13.183  67.811  1.00  0.00    -0.153 A  
HETATM   16  C   UNL     1      -6.451  13.446  68.457  1.00  0.00    -0.086 A  
HETATM   17  N   UNL     1      -8.719  14.133  67.939  1.00  0.00    -0.171 NA 
HETATM   18  H2  UNL     1      -5.385  11.875  67.693  1.00  0.00     0.000 HD 
HETATM   19  C   UNL     1      -8.529  15.240  68.751  1.00  0.00    -0.181 A  
HETATM   20  C   UNL     1      -7.353  15.375  69.378  1.00  0.00    -0.213 A  
HETATM   21  N   UNL     1      -6.300  14.503  69.225  1.00  0.00    -0.110 NA 
HETATM   22  H1  UNL     1      -4.433  12.874  68.761  1.00  0.00     0.000 HD 
BRANCH  13  23
HETATM   23  C   UNL     1      -7.709  10.858  66.707  1.00  0.00    -0.141 A  
HETATM   24  C   UNL     1      -6.700   8.283  66.059  1.00  0.00    -0.057 A  
HETATM   25  C   UNL     1      -7.026   8.608  67.382  1.00  0.00    -0.078 A  
HETATM   26  C   UNL     1      -7.306  10.542  65.399  1.00  0.00    -0.084 A  
HETATM   27  C   UNL     1      -7.522   9.886  67.698  1.00  0.00    -0.090 A  
HETATM   28  C   UNL     1      -6.830   9.259  65.070  1.00  0.00    -0.086 A  
BRANCH  24  29
HETATM   29  C   UNL     1      -6.277   6.888  65.732  1.00  0.00    -0.039 C  
HETATM   30  H   UNL     1      -7.544   6.143  67.201  1.00  0.00     0.000 HD 
HETATM   31  O   UNL     1      -5.452   6.717  64.845  1.00  0.00    -0.026 OA 
HETATM   32  N   UNL     1      -6.924   5.886  66.432  1.00  0.00    -0.059 N  
BRANCH  32  33
HETATM   33  C   UNL     1      -6.758   4.529  66.121  1.00  0.00    -0.053 A  
HETATM   34  C   UNL     1      -5.799   3.735  66.743  1.00  0.00    -0.023 A  
HETATM   35  C   UNL     1      -5.653   2.413  66.327  1.00  0.00    -0.017 A  
HETATM   36  C   UNL     1      -6.441   1.938  65.287  1.00  0.00    -0.023 A  
HETATM   37  C   UNL     1      -7.390   2.793  64.749  1.00  0.00    -0.067 A  
HETATM   38  N   UNL     1      -7.597   4.060  65.176  1.00  0.00    -0.080 NA 
ENDBRANCH  32  33
ENDBRANCH  24  29
ENDBRANCH  13  23
ENDBRANCH  10  11
ENDBRANCH   3   4
TORSDOF 5
ENDMDL
MODEL       42
REMARK 921   NORMALIZED FREE ENERGY PREDICTED BY IDOCK:   -6.32 KCAL/MOL
REMARK 922        TOTAL FREE ENERGY PREDICTED BY IDOCK:   -7.65 KCAL/MOL
REMARK 923 INTER-LIGAND FREE ENERGY PREDICTED BY IDOCK:   -8.33 KCAL/MOL
REMARK 924 INTRA-LIGAND FREE ENERGY PREDICTED BY IDOCK:    0.68 KCAL/MOL
REMARK 927      BINDING AFFINITY PREDICTED BY RF-SCORE:    0.00 PKD
ROOT
HETATM    1  C   UNL     1     -13.169  15.477  71.383  1.00  0.00    -0.587 C  
HETATM    2  C   UNL     1     -12.456  15.693  70.059  1.00  0.00    -0.249 C  
HETATM    3  C   UNL     1     -11.843  15.879  68.923  1.00  0.00    -0.314 C  
ENDROOT
BRANCH   3   4
HETATM    4  C   UNL     1     -11.208  16.027  67.625  1.00  0.00    -0.183 C  
HETATM    5  O   UNL     1     -10.582  17.058  67.413  1.00  0.00    -0.328 OA 
HETATM    6  N   UNL     1     -11.409  15.051  66.668  1.00  0.00    -0.326 N  
HETATM    7  C   UNL     1     -11.096  15.288  65.272  1.00  0.00    -0.376 C  
HETATM    8  C   UNL     1     -12.248  14.618  64.545  1.00  0.00    -0.473 C  
HETATM    9  C   UNL     1     -12.648  13.442  65.437  1.00  0.00    -0.528 C  
HETATM   10  C   UNL     1     -12.058  13.754  66.826  1.00  0.00    -0.418 C  
BRANCH  10  11
HETATM   11  C   UNL     1     -11.044  12.691  67.196  1.00  0.00    -0.280 A  
HETATM   12  N   UNL     1     -11.303  11.449  67.580  1.00  0.00    -0.361 NA 
HETATM   13  C   UNL     1     -10.095  10.879  67.950  1.00  0.00    -0.177 A  
HETATM   14  N   UNL     1      -6.853  10.689  68.065  1.00  0.00    -0.071 NA 
HETATM   15  C   UNL     1      -9.069  11.780  67.715  1.00  0.00    -0.178 A  
HETATM   16  C   UNL     1      -7.624  11.788  67.822  1.00  0.00    -0.127 A  
HETATM   17  N   UNL     1      -9.692  12.947  67.309  1.00  0.00    -0.216 NA 
HETATM   18  H2  UNL     1      -7.330   9.794  68.179  1.00  0.00     0.000 HD 
HETATM   19  C   UNL     1      -8.953  14.104  67.120  1.00  0.00    -0.225 A  
HETATM   20  C   UNL     1      -7.629  14.052  67.314  1.00  0.00    -0.070 A  
HETATM   21  N   UNL     1      -6.948  12.902  67.642  1.00  0.00    -0.138 NA 
HETATM   22  H1  UNL     1      -5.836  10.695  68.140  1.00  0.00     0.000 HD 
BRANCH  13  23
HETATM   23  C   UNL     1     -10.020   9.516  68.486  1.00  0.00    -0.184 A  
HETATM   24  C   UNL     1      -9.954   6.911  69.617  1.00  0.00    -0.179 A  
HETATM   25  C   UNL     1      -9.592   8.028  70.381  1.00  0.00    -0.174 A  
HETATM   26  C   UNL     1     -10.308   8.379  67.713  1.00  0.00    -0.297 A  
HETATM   27  C   UNL     1      -9.622   9.316  69.814  1.00  0.00    -0.203 A  
HETATM   28  C   UNL     1     -10.301   7.089  68.277  1.00  0.00    -0.223 A  
BRANCH  24  29
HETATM   29  C   UNL     1     -10.017   5.569  70.270  1.00  0.00    -0.216 C  
HETATM   30  H   UNL     1      -9.394   6.397  72.071  1.00  0.00     0.000 HD 
HETATM   31  O   UNL     1     -10.362   4.605  69.599  1.00  0.00    -0.169 OA 
HETATM   32  N   UNL     1      -9.740   5.548  71.625  1.00  0.00    -0.158 N  
BRANCH  32  33
HETATM   33  C   UNL     1      -9.920   4.399  72.407  1.00  0.00    -0.173 A  
HETATM   34  C   UNL     1      -8.988   3.366  72.437  1.00  0.00    -0.123 A  
HETATM   35  C   UNL     1      -9.274   2.226  73.188  1.00  0.00    -0.094 A  
HETATM   36  C   UNL     1     -10.490   2.142  73.853  1.00  0.00    -0.206 A  
HETATM   37  C   UNL     1     -11.342   3.232  73.790  1.00  0.00    -0.061 A  
HETATM   38  N   UNL     1     -11.062   4.375  73.122  1.00  0.00    -0.246 NA 
ENDBRANCH  32  33
ENDBRANCH  24  29
ENDBRANCH  13  23
ENDBRANCH  10  11
ENDBRANCH   3   4
TORSDOF 5
ENDMDL
MODEL       43
REMARK 921   NORMALIZED FREE ENERGY PREDICTED BY IDOCK:   -6.26 KCAL/MOL
REMARK 922        TOTAL FREE ENERGY PREDICTED BY IDOCK:   -7.57 KCAL/MOL
REMARK 923 INTER-LIGAND FREE ENERGY PREDICTED BY IDOCK:   -6.26 KCAL/MOL
REMARK 924 INTRA-LIGAND FREE ENERGY PREDICTED BY IDOCK:   -1.31 KCAL/MOL
REMARK 927      BINDING AFFINITY PREDICTED BY RF-SCORE:    0.00 PKD
ROOT
HETATM    1  C   UNL     1     -11.532  15.920  64.216  1.00  0.00    -0.197 C  
HETATM    2  C   UNL     1     -10.950  15.916  65.620  1.00  0.00    -0.207 C  
HETATM    3  C   UNL     1     -10.450  15.913  66.825  1.00  0.00    -0.309 C  
ENDROOT
BRANCH   3   4
HETATM    4  C   UNL     1      -9.867  15.834  68.153  1.00  0.00    -0.209 C  
HETATM    5  O   UNL     1     -10.401  16.479  69.047  1.00  0.00    -0.257 OA 
HETATM    6  N   UNL     1      -8.700  15.116  68.328  1.00  0.00    -0.166 N  
HETATM    7  C   UNL     1      -7.893  15.270  69.523  1.00  0.00    -0.204 C  
HETATM    8  C   UNL     1      -6.474  15.242  68.983  1.00  0.00    -0.111 C  
HETATM    9  C   UNL     1      -6.534  14.325  67.761  1.00  0.00    -0.181 C  
HETATM   10  C   UNL     1      -8.023  14.249  67.370  1.00  0.00    -0.192 C  
BRANCH  10  11
HETATM   11  C   UNL     1      -8.510  12.822  67.505  1.00  0.00    -0.181 A  
HETATM   12  N   UNL     1      -8.358  12.030  68.558  1.00  0.00    -0.137 NA 
HETATM   13  C   UNL     1      -8.829  10.778  68.194  1.00  0.00    -0.133 A  
HETATM   14  N   UNL     1     -10.487   8.693  66.332  1.00  0.00    -0.285 NA 
HETATM   15  C   UNL     1      -9.344  10.834  66.909  1.00  0.00    -0.160 A  
HETATM   16  C   UNL     1     -10.015   9.929  65.998  1.00  0.00    -0.268 A  
HETATM   17  N   UNL     1      -9.068  12.114  66.460  1.00  0.00    -0.210 NA 
HETATM   18  H2  UNL     1     -10.358   8.383  67.296  1.00  0.00     0.000 HD 
HETATM   19  C   UNL     1      -9.333  12.464  65.146  1.00  0.00     0.292 A  
HETATM   20  C   UNL     1      -9.884  11.546  64.341  1.00  0.00    -0.241 A  
HETATM   21  N   UNL     1     -10.251  10.287  64.755  1.00  0.00    -0.273 NA 
HETATM   22  H1  UNL     1     -10.959   8.056  65.691  1.00  0.00     0.000 HD 
BRANCH  13  23
HETATM   23  C   UNL     1      -8.759   9.634  69.109  1.00  0.00    -0.151 A  
HETATM   24  C   UNL     1      -8.749   7.403  70.867  1.00  0.00    -0.144 A  
HETATM   25  C   UNL     1      -9.576   8.505  71.120  1.00  0.00    -0.248 A  
HETATM   26  C   UNL     1      -7.881   8.555  68.912  1.00  0.00    -0.109 A  
HETATM   27  C   UNL     1      -9.574   9.609  70.248  1.00  0.00    -0.307 A  
HETATM   28  C   UNL     1      -7.892   7.437  69.766  1.00  0.00    -0.116 A  
BRANCH  24  29
HETATM   29  C   UNL     1      -8.846   6.199  71.746  1.00  0.00    -0.138 C  
HETATM   30  H   UNL     1     -10.589   5.613  70.778  1.00  0.00     0.000 HD 
HETATM   31  O   UNL     1      -7.986   6.023  72.600  1.00  0.00    -0.104 OA 
HETATM   32  N   UNL     1      -9.888   5.333  71.464  1.00  0.00    -0.166 N  
BRANCH  32  33
HETATM   33  C   UNL     1     -10.012   4.085  72.089  1.00  0.00    -0.172 A  
HETATM   34  C   UNL     1      -9.431   2.932  71.570  1.00  0.00    -0.216 A  
HETATM   35  C   UNL     1      -9.660   1.717  72.216  1.00  0.00    -0.165 A  
HETATM   36  C   UNL     1     -10.485   1.689  73.332  1.00  0.00    -0.189 A  
HETATM   37  C   UNL     1     -10.995   2.891  73.794  1.00  0.00    -0.222 A  
HETATM   38  N   UNL     1     -10.738   4.092  73.225  1.00  0.00    -0.186 NA 
ENDBRANCH  32  33
ENDBRANCH  24  29
ENDBRANCH  13  23
ENDBRANCH  10  11
ENDBRANCH   3   4
TORSDOF 5
ENDMDL
MODEL       44
REMARK 921   NORMALIZED FREE ENERGY PREDICTED BY IDOCK:   -6.23 KCAL/MOL
REMARK 922        TOTAL FREE ENERGY PREDICTED BY IDOCK:   -7.53 KCAL/MOL
REMARK 923 INTER-LIGAND FREE ENERGY PREDICTED BY IDOCK:   -6.37 KCAL/MOL
REMARK 924 INTRA-LIGAND FREE ENERGY PREDICTED BY IDOCK:   -1.15 KCAL/MOL
REMARK 927      BINDING AFFINITY PREDICTED BY RF-SCORE:    0.00 PKD
ROOT
HETATM    1  C   UNL     1      -9.475  19.173  67.747  1.00  0.00    -0.362 C  
HETATM    2  C   UNL     1     -10.002  18.129  66.777  1.00  0.00    -0.353 C  
HETATM    3  C   UNL     1     -10.454  17.233  65.944  1.00  0.00    -0.267 C  
ENDROOT
BRANCH   3   4
HETATM    4  C   UNL     1     -11.029  16.272  65.019  1.00  0.00    -0.298 C  
HETATM    5  O   UNL     1     -11.242  16.644  63.872  1.00  0.00    -0.955 OA 
HETATM    6  N   UNL     1     -11.390  15.024  65.491  1.00  0.00    -0.338 N  
HETATM    7  C   UNL     1     -12.262  14.153  64.728  1.00  0.00    -0.440 C  
HETATM    8  C   UNL     1     -13.158  13.547  65.795  1.00  0.00     0.055 C  
HETATM    9  C   UNL     1     -12.284  13.469  67.047  1.00  0.00    -0.351 C  
HETATM   10  C   UNL     1     -11.115  14.443  66.801  1.00  0.00    -0.323 C  
BRANCH  10  11
HETATM   11  C   UNL     1      -9.811  13.673  66.779  1.00  0.00    -0.271 A  
HETATM   12  N   UNL     1      -9.639  12.417  66.390  1.00  0.00    -0.243 NA 
HETATM   13  C   UNL     1      -8.323  12.083  66.669  1.00  0.00    -0.085 A  
HETATM   14  N   UNL     1      -5.221  12.730  67.394  1.00  0.00    -0.292 NA 
HETATM   15  C   UNL     1      -7.663  13.191  67.176  1.00  0.00    -0.019 A  
HETATM   16  C   UNL     1      -6.315  13.521  67.593  1.00  0.00    -0.147 A  
HETATM   17  N   UNL     1      -8.636  14.167  67.309  1.00  0.00    -0.208 NA 
HETATM   18  H2  UNL     1      -5.364  11.840  66.915  1.00  0.00     0.000 HD 
HETATM   19  C   UNL     1      -8.336  15.373  67.923  1.00  0.00    -0.144 A  
HETATM   20  C   UNL     1      -7.083  15.573  68.353  1.00  0.00    -0.111 A  
HETATM   21  N   UNL     1      -6.060  14.671  68.176  1.00  0.00    -0.129 NA 
HETATM   22  H1  UNL     1      -4.273  12.962  67.688  1.00  0.00     0.000 HD 
BRANCH  13  23
HETATM   23  C   UNL     1      -7.801  10.736  66.417  1.00  0.00    -0.148 A  
HETATM   24  C   UNL     1      -6.910   8.081  65.940  1.00  0.00    -0.057 A  
HETATM   25  C   UNL     1      -7.608   8.398  67.113  1.00  0.00    -0.093 A  
HETATM   26  C   UNL     1      -7.036  10.417  65.283  1.00  0.00    -0.099 A  
HETATM   27  C   UNL     1      -8.044   9.716  67.346  1.00  0.00    -0.110 A  
HETATM   28  C   UNL     1      -6.615   9.098  65.031  1.00  0.00    -0.073 A  
BRANCH  24  29
HETATM   29  C   UNL     1      -6.553   6.657  65.665  1.00  0.00    -0.050 C  
HETATM   30  H   UNL     1      -8.565   6.164  65.511  1.00  0.00     0.000 HD 
HETATM   31  O   UNL     1      -5.370   6.343  65.638  1.00  0.00    -0.013 OA 
HETATM   32  N   UNL     1      -7.615   5.814  65.391  1.00  0.00    -0.081 N  
BRANCH  32  33
HETATM   33  C   UNL     1      -7.429   4.496  64.953  1.00  0.00    -0.073 A  
HETATM   34  C   UNL     1      -7.099   4.188  63.636  1.00  0.00    -0.046 A  
HETATM   35  C   UNL     1      -7.000   2.848  63.266  1.00  0.00    -0.039 A  
HETATM   36  C   UNL     1      -7.264   1.864  64.208  1.00  0.00    -0.056 A  
HETATM   37  C   UNL     1      -7.555   2.265  65.502  1.00  0.00    -0.072 A  
HETATM   38  N   UNL     1      -7.596   3.556  65.904  1.00  0.00    -0.080 NA 
ENDBRANCH  32  33
ENDBRANCH  24  29
ENDBRANCH  13  23
ENDBRANCH  10  11
ENDBRANCH   3   4
TORSDOF 5
ENDMDL
MODEL       45
REMARK 921   NORMALIZED FREE ENERGY PREDICTED BY IDOCK:   -6.21 KCAL/MOL
REMARK 922        TOTAL FREE ENERGY PREDICTED BY IDOCK:   -7.50 KCAL/MOL
REMARK 923 INTER-LIGAND FREE ENERGY PREDICTED BY IDOCK:   -8.15 KCAL/MOL
REMARK 924 INTRA-LIGAND FREE ENERGY PREDICTED BY IDOCK:    0.65 KCAL/MOL
REMARK 927      BINDING AFFINITY PREDICTED BY RF-SCORE:    0.00 PKD
ROOT
HETATM    1  C   UNL     1      -5.666  16.913  66.679  1.00  0.00    -0.127 C  
HETATM    2  C   UNL     1      -7.181  16.897  66.798  1.00  0.00    -0.278 C  
HETATM    3  C   UNL     1      -8.481  16.883  66.901  1.00  0.00    -0.243 C  
ENDROOT
BRANCH   3   4
HETATM    4  C   UNL     1      -9.923  16.932  67.065  1.00  0.00    -0.279 C  
HETATM    5  O   UNL     1     -10.510  17.923  66.648  1.00  0.00    -0.354 OA 
HETATM    6  N   UNL     1     -10.552  15.913  67.754  1.00  0.00    -0.295 N  
HETATM    7  C   UNL     1     -11.910  16.059  68.242  1.00  0.00     0.005 C  
HETATM    8  C   UNL     1     -11.855  15.396  69.607  1.00  0.00    -0.368 C  
HETATM    9  C   UNL     1     -10.809  14.290  69.468  1.00  0.00    -0.148 C  
HETATM   10  C   UNL     1      -9.980  14.655  68.220  1.00  0.00    -0.222 C  
BRANCH  10  11
HETATM   11  C   UNL     1     -10.142  13.574  67.171  1.00  0.00    -0.245 A  
HETATM   12  N   UNL     1      -9.531  12.397  67.147  1.00  0.00    -0.193 NA 
HETATM   13  C   UNL     1      -9.865  11.794  65.944  1.00  0.00    -0.238 A  
HETATM   14  N   UNL     1     -11.629  11.412  63.242  1.00  0.00    -0.848 NA 
HETATM   15  C   UNL     1     -10.758  12.599  65.256  1.00  0.00    -0.289 A  
HETATM   16  C   UNL     1     -11.510  12.527  64.019  1.00  0.00    -0.409 A  
HETATM   17  N   UNL     1     -10.865  13.754  66.010  1.00  0.00    -0.281 NA 
HETATM   18  H2  UNL     1     -11.151  10.566  63.554  1.00  0.00     0.000 HD 
HETATM   19  C   UNL     1     -11.586  14.836  65.530  1.00  0.00    -0.301 A  
HETATM   20  C   UNL     1     -12.191  14.721  64.341  1.00  0.00    -0.428 A  
HETATM   21  N   UNL     1     -12.182  13.571  63.586  1.00  0.00    -0.674 NA 
HETATM   22  H1  UNL     1     -12.158  11.362  62.371  1.00  0.00     0.000 HD 
BRANCH  13  23
HETATM   23  C   UNL     1      -9.311  10.492  65.558  1.00  0.00    -0.245 A  
HETATM   24  C   UNL     1      -8.358   7.922  64.811  1.00  0.00    -0.066 A  
HETATM   25  C   UNL     1      -9.124   8.087  65.972  1.00  0.00    -0.193 A  
HETATM   26  C   UNL     1      -8.480  10.320  64.439  1.00  0.00    -0.182 A  
HETATM   27  C   UNL     1      -9.590   9.363  66.340  1.00  0.00    -0.285 A  
HETATM   28  C   UNL     1      -8.028   9.045  64.051  1.00  0.00    -0.145 A  
BRANCH  24  29
HETATM   29  C   UNL     1      -7.966   6.545  64.384  1.00  0.00    -0.103 C  
HETATM   30  H   UNL     1      -9.144   5.726  65.886  1.00  0.00     0.000 HD 
HETATM   31  O   UNL     1      -7.198   6.420  63.439  1.00  0.00    -0.050 OA 
HETATM   32  N   UNL     1      -8.575   5.509  65.068  1.00  0.00    -0.147 N  
BRANCH  32  33
HETATM   33  C   UNL     1      -8.438   4.171  64.675  1.00  0.00    -0.110 A  
HETATM   34  C   UNL     1      -7.321   3.408  65.006  1.00  0.00    -0.072 A  
HETATM   35  C   UNL     1      -7.231   2.106  64.517  1.00  0.00    -0.053 A  
HETATM   36  C   UNL     1      -8.236   1.621  63.692  1.00  0.00    -0.062 A  
HETATM   37  C   UNL     1      -9.324   2.441  63.441  1.00  0.00    -0.094 A  
HETATM   38  N   UNL     1      -9.468   3.685  63.953  1.00  0.00    -0.134 NA 
ENDBRANCH  32  33
ENDBRANCH  24  29
ENDBRANCH  13  23
ENDBRANCH  10  11
ENDBRANCH   3   4
TORSDOF 5
ENDMDL
MODEL       46
REMARK 921   NORMALIZED FREE ENERGY PREDICTED BY IDOCK:   -6.17 KCAL/MOL
REMARK 922        TOTAL FREE ENERGY PREDICTED BY IDOCK:   -7.45 KCAL/MOL
REMARK 923 INTER-LIGAND FREE ENERGY PREDICTED BY IDOCK:   -6.29 KCAL/MOL
REMARK 924 INTRA-LIGAND FREE ENERGY PREDICTED BY IDOCK:   -1.17 KCAL/MOL
REMARK 927      BINDING AFFINITY PREDICTED BY RF-SCORE:    0.00 PKD
ROOT
HETATM    1  C   UNL     1      -5.279   4.922  70.822  1.00  0.00    -0.004 C  
HETATM    2  C   UNL     1      -6.544   5.660  71.228  1.00  0.00    -0.045 C  
HETATM    3  C   UNL     1      -7.629   6.294  71.577  1.00  0.00    -0.099 C  
ENDROOT
BRANCH   3   4
HETATM    4  C   UNL     1      -8.814   7.061  71.918  1.00  0.00    -0.125 C  
HETATM    5  O   UNL     1      -8.916   7.468  73.068  1.00  0.00    -0.134 OA 
HETATM    6  N   UNL     1      -9.804   7.220  70.966  1.00  0.00    -0.183 N  
HETATM    7  C   UNL     1     -11.133   7.671  71.330  1.00  0.00    -0.246 C  
HETATM    8  C   UNL     1     -12.034   6.812  70.460  1.00  0.00    -0.385 C  
HETATM    9  C   UNL     1     -11.228   6.557  69.186  1.00  0.00    -0.367 C  
HETATM   10  C   UNL     1      -9.762   6.857  69.554  1.00  0.00    -0.158 C  
BRANCH  10  11
HETATM   11  C   UNL     1      -9.258   8.017  68.720  1.00  0.00    -0.143 A  
HETATM   12  N   UNL     1      -9.230   9.294  69.075  1.00  0.00    -0.142 NA 
HETATM   13  C   UNL     1      -8.827  10.015  67.962  1.00  0.00    -0.125 A  
HETATM   14  N   UNL     1      -7.506  10.367  65.013  1.00  0.00    -0.265 NA 
HETATM   15  C   UNL     1      -8.536   9.141  66.927  1.00  0.00    -0.123 A  
HETATM   16  C   UNL     1      -8.028   9.237  65.573  1.00  0.00    -0.104 A  
HETATM   17  N   UNL     1      -8.885   7.887  67.398  1.00  0.00    -0.127 NA 
HETATM   18  H2  UNL     1      -7.471  11.207  65.592  1.00  0.00     0.000 HD 
HETATM   19  C   UNL     1      -8.846   6.789  66.553  1.00  0.00    -0.143 A  
HETATM   20  C   UNL     1      -8.438   6.972  65.291  1.00  0.00    -0.052 A  
HETATM   21  N   UNL     1      -8.006   8.179  64.793  1.00  0.00    -0.140 NA 
HETATM   22  H1  UNL     1      -7.149  10.434  64.061  1.00  0.00     0.000 HD 
BRANCH  13  23
HETATM   23  C   UNL     1      -8.741  11.479  67.984  1.00  0.00    -0.151 A  
HETATM   24  C   UNL     1      -8.695  14.318  68.072  1.00  0.00    -0.177 A  
HETATM   25  C   UNL     1      -9.680  13.644  67.339  1.00  0.00    -0.228 A  
HETATM   26  C   UNL     1      -7.716  12.170  68.652  1.00  0.00    -0.089 A  
HETATM   27  C   UNL     1      -9.696  12.238  67.295  1.00  0.00    -0.195 A  
HETATM   28  C   UNL     1      -7.705  13.576  68.719  1.00  0.00    -0.044 A  
BRANCH  24  29
HETATM   29  C   UNL     1      -8.761  15.805  68.191  1.00  0.00    -0.173 C  
HETATM   30  H   UNL     1      -7.047  15.992  67.032  1.00  0.00     0.000 HD 
HETATM   31  O   UNL     1      -9.672  16.302  68.840  1.00  0.00    -0.227 OA 
HETATM   32  N   UNL     1      -7.803  16.508  67.482  1.00  0.00    -0.150 N  
BRANCH  32  33
HETATM   33  C   UNL     1      -7.836  17.903  67.361  1.00  0.00    -0.208 A  
HETATM   34  C   UNL     1      -8.567  18.547  66.366  1.00  0.00    -0.272 A  
HETATM   35  C   UNL     1      -8.491  19.936  66.272  1.00  0.00    -0.373 A  
HETATM   36  C   UNL     1      -7.668  20.630  67.148  1.00  0.00    -0.348 A  
HETATM   37  C   UNL     1      -7.003  19.908  68.125  1.00  0.00    -0.296 A  
HETATM   38  N   UNL     1      -7.107  18.568  68.279  1.00  0.00    -0.249 NA 
ENDBRANCH  32  33
ENDBRANCH  24  29
ENDBRANCH  13  23
ENDBRANCH  10  11
ENDBRANCH   3   4
TORSDOF 5
ENDMDL
MODEL       47
REMARK 921   NORMALIZED FREE ENERGY PREDICTED BY IDOCK:   -6.11 KCAL/MOL
REMARK 922        TOTAL FREE ENERGY PREDICTED BY IDOCK:   -7.37 KCAL/MOL
REMARK 923 INTER-LIGAND FREE ENERGY PREDICTED BY IDOCK:   -6.30 KCAL/MOL
REMARK 924 INTRA-LIGAND FREE ENERGY PREDICTED BY IDOCK:   -1.07 KCAL/MOL
REMARK 927      BINDING AFFINITY PREDICTED BY RF-SCORE:    0.00 PKD
ROOT
HETATM    1  C   UNL     1      -6.364  17.835  66.129  1.00  0.00    -0.278 C  
HETATM    2  C   UNL     1      -7.673  17.065  66.081  1.00  0.00    -0.292 C  
HETATM    3  C   UNL     1      -8.797  16.404  66.039  1.00  0.00    -0.296 C  
ENDROOT
BRANCH   3   4
HETATM    4  C   UNL     1     -10.054  15.689  65.914  1.00  0.00    -0.353 C  
HETATM    5  O   UNL     1     -10.693  15.837  64.879  1.00  0.00    -0.456 OA 
HETATM    6  N   UNL     1     -10.514  14.952  66.989  1.00  0.00    -0.268 N  
HETATM    7  C   UNL     1     -11.890  14.501  67.060  1.00  0.00    -0.385 C  
HETATM    8  C   UNL     1     -12.242  14.708  68.523  1.00  0.00    -0.135 C  
HETATM    9  C   UNL     1     -10.932  14.488  69.280  1.00  0.00    -0.282 C  
HETATM   10  C   UNL     1      -9.814  14.637  68.229  1.00  0.00    -0.222 C  
BRANCH  10  11
HETATM   11  C   UNL     1      -9.063  13.328  68.099  1.00  0.00    -0.207 A  
HETATM   12  N   UNL     1      -9.543  12.183  67.632  1.00  0.00    -0.185 NA 
HETATM   13  C   UNL     1      -8.562  11.223  67.827  1.00  0.00    -0.126 A  
HETATM   14  N   UNL     1      -5.537  10.199  68.431  1.00  0.00    -0.038 NA 
HETATM   15  C   UNL     1      -7.432  11.821  68.362  1.00  0.00    -0.105 A  
HETATM   16  C   UNL     1      -6.092  11.410  68.729  1.00  0.00    -0.048 A  
HETATM   17  N   UNL     1      -7.790  13.137  68.597  1.00  0.00    -0.100 NA 
HETATM   18  H2  UNL     1      -6.109   9.534  67.910  1.00  0.00     0.000 HD 
HETATM   19  C   UNL     1      -6.923  13.988  69.262  1.00  0.00    -0.084 A  
HETATM   20  C   UNL     1      -5.729  13.512  69.640  1.00  0.00    -0.104 A  
HETATM   21  N   UNL     1      -5.291  12.238  69.363  1.00  0.00    -0.065 NA 
HETATM   22  H1  UNL     1      -4.594   9.910  68.690  1.00  0.00     0.000 HD 
BRANCH  13  23
HETATM   23  C   UNL     1      -8.781   9.817  67.473  1.00  0.00    -0.125 A  
HETATM   24  C   UNL     1      -9.329   7.120  66.768  1.00  0.00    -0.199 A  
HETATM   25  C   UNL     1     -10.032   7.741  67.809  1.00  0.00    -0.220 A  
HETATM   26  C   UNL     1      -8.034   9.157  66.484  1.00  0.00    -0.100 A  
HETATM   27  C   UNL     1      -9.754   9.076  68.157  1.00  0.00    -0.172 A  
HETATM   28  C   UNL     1      -8.320   7.829  66.114  1.00  0.00    -0.129 A  
BRANCH  24  29
HETATM   29  C   UNL     1      -9.715   5.741  66.347  1.00  0.00    -0.147 C  
HETATM   30  H   UNL     1      -8.843   6.046  64.487  1.00  0.00     0.000 HD 
HETATM   31  O   UNL     1     -10.324   5.033  67.140  1.00  0.00    -0.203 OA 
HETATM   32  N   UNL     1      -9.280   5.352  65.093  1.00  0.00    -0.025 N  
BRANCH  32  33
HETATM   33  C   UNL     1      -9.420   4.038  64.627  1.00  0.00    -0.169 A  
HETATM   34  C   UNL     1      -8.427   3.078  64.798  1.00  0.00    -0.095 A  
HETATM   35  C   UNL     1      -8.616   1.812  64.244  1.00  0.00    -0.085 A  
HETATM   36  C   UNL     1      -9.768   1.558  63.513  1.00  0.00    -0.117 A  
HETATM   37  C   UNL     1     -10.715   2.566  63.421  1.00  0.00    -0.216 A  
HETATM   38  N   UNL     1     -10.587   3.781  64.002  1.00  0.00    -0.273 NA 
ENDBRANCH  32  33
ENDBRANCH  24  29
ENDBRANCH  13  23
ENDBRANCH  10  11
ENDBRANCH   3   4
TORSDOF 5
ENDMDL
MODEL       48
REMARK 921   NORMALIZED FREE ENERGY PREDICTED BY IDOCK:   -6.01 KCAL/MOL
REMARK 922        TOTAL FREE ENERGY PREDICTED BY IDOCK:   -7.25 KCAL/MOL
REMARK 923 INTER-LIGAND FREE ENERGY PREDICTED BY IDOCK:   -6.00 KCAL/MOL
REMARK 924 INTRA-LIGAND FREE ENERGY PREDICTED BY IDOCK:   -1.25 KCAL/MOL
REMARK 927      BINDING AFFINITY PREDICTED BY RF-SCORE:    0.00 PKD
ROOT
HETATM    1  C   UNL     1      -5.258  18.866  69.900  1.00  0.00    -0.210 C  
HETATM    2  C   UNL     1      -6.148  18.409  68.756  1.00  0.00    -0.208 C  
HETATM    3  C   UNL     1      -6.912  18.016  67.775  1.00  0.00    -0.209 C  
ENDROOT
BRANCH   3   4
HETATM    4  C   UNL     1      -7.790  17.656  66.675  1.00  0.00    -0.248 C  
HETATM    5  O   UNL     1      -7.513  18.086  65.562  1.00  0.00    -0.538 OA 
HETATM    6  N   UNL     1      -8.933  16.927  66.944  1.00  0.00    -0.215 N  
HETATM    7  C   UNL     1     -10.006  16.824  65.975  1.00  0.00    -0.313 C  
HETATM    8  C   UNL     1     -11.254  16.926  66.835  1.00  0.00     0.414 C  
HETATM    9  C   UNL     1     -10.864  16.297  68.172  1.00  0.00    -0.342 C  
HETATM   10  C   UNL     1      -9.323  16.295  68.199  1.00  0.00    -0.210 C  
BRANCH  10  11
HETATM   11  C   UNL     1      -8.820  14.868  68.257  1.00  0.00    -0.172 A  
HETATM   12  N   UNL     1      -9.399  13.801  67.723  1.00  0.00    -0.205 NA 
HETATM   13  C   UNL     1      -8.674  12.696  68.139  1.00  0.00    -0.190 A  
HETATM   14  N   UNL     1      -6.080  11.187  69.388  1.00  0.00    -0.062 NA 
HETATM   15  C   UNL     1      -7.585  13.113  68.888  1.00  0.00     0.040 A  
HETATM   16  C   UNL     1      -6.448  12.492  69.538  1.00  0.00    -0.083 A  
HETATM   17  N   UNL     1      -7.733  14.483  69.016  1.00  0.00    -0.129 NA 
HETATM   18  H2  UNL     1      -6.648  10.605  68.772  1.00  0.00     0.000 HD 
HETATM   19  C   UNL     1      -6.875  15.204  69.831  1.00  0.00    -0.154 A  
HETATM   20  C   UNL     1      -5.893  14.546  70.462  1.00  0.00    -0.173 A  
HETATM   21  N   UNL     1      -5.653  13.201  70.309  1.00  0.00    -0.127 NA 
HETATM   22  H1  UNL     1      -5.280  10.751  69.846  1.00  0.00     0.000 HD 
BRANCH  13  23
HETATM   23  C   UNL     1      -9.075  11.332  67.777  1.00  0.00    -0.152 A  
HETATM   24  C   UNL     1      -9.729   8.667  67.044  1.00  0.00    -0.262 A  
HETATM   25  C   UNL     1      -9.098   9.521  66.131  1.00  0.00    -0.207 A  
HETATM   26  C   UNL     1      -9.775  10.487  68.653  1.00  0.00    -0.175 A  
HETATM   27  C   UNL     1      -8.779  10.842  66.498  1.00  0.00    -0.165 A  
HETATM   28  C   UNL     1     -10.078   9.158  68.303  1.00  0.00    -0.221 A  
BRANCH  24  29
HETATM   29  C   UNL     1      -9.960   7.240  66.670  1.00  0.00    -0.176 C  
HETATM   30  H   UNL     1      -8.032   7.110  65.908  1.00  0.00     0.000 HD 
HETATM   31  O   UNL     1     -11.050   6.738  66.911  1.00  0.00    -0.397 OA 
HETATM   32  N   UNL     1      -8.871   6.576  66.133  1.00  0.00    -0.150 N  
BRANCH  32  33
HETATM   33  C   UNL     1      -8.882   5.197  65.888  1.00  0.00    -0.142 A  
HETATM   34  C   UNL     1      -9.253   4.662  64.657  1.00  0.00    -0.119 A  
HETATM   35  C   UNL     1      -9.303   3.276  64.517  1.00  0.00    -0.143 A  
HETATM   36  C   UNL     1      -9.016   2.473  65.613  1.00  0.00    -0.131 A  
HETATM   37  C   UNL     1      -8.627   3.094  66.789  1.00  0.00    -0.118 A  
HETATM   38  N   UNL     1      -8.508   4.434  66.935  1.00  0.00    -0.105 NA 
ENDBRANCH  32  33
ENDBRANCH  24  29
ENDBRANCH  13  23
ENDBRANCH  10  11
ENDBRANCH   3   4
TORSDOF 5
ENDMDL
MODEL       49
REMARK 921   NORMALIZED FREE ENERGY PREDICTED BY IDOCK:   -5.99 KCAL/MOL
REMARK 922        TOTAL FREE ENERGY PREDICTED BY IDOCK:   -7.22 KCAL/MOL
REMARK 923 INTER-LIGAND FREE ENERGY PREDICTED BY IDOCK:   -6.17 KCAL/MOL
REMARK 924 INTRA-LIGAND FREE ENERGY PREDICTED BY IDOCK:   -1.05 KCAL/MOL
REMARK 927      BINDING AFFINITY PREDICTED BY RF-SCORE:    0.00 PKD
ROOT
HETATM    1  C   UNL     1      -9.292   4.532  72.955  1.00  0.00    -0.145 C  
HETATM    2  C   UNL     1      -9.807   5.113  71.648  1.00  0.00    -0.230 C  
HETATM    3  C   UNL     1     -10.249   5.611  70.527  1.00  0.00    -0.297 C  
ENDROOT
BRANCH   3   4
HETATM    4  C   UNL     1     -10.664   6.174  69.254  1.00  0.00    -0.318 C  
HETATM    5  O   UNL     1     -11.866   6.267  69.038  1.00  0.00     0.067 OA 
HETATM    6  N   UNL     1      -9.698   6.492  68.318  1.00  0.00    -0.130 N  
HETATM    7  C   UNL     1     -10.044   6.732  66.930  1.00  0.00    -0.202 C  
HETATM    8  C   UNL     1      -8.914   6.055  66.175  1.00  0.00    -0.160 C  
HETATM    9  C   UNL     1      -7.692   6.194  67.083  1.00  0.00    -0.101 C  
HETATM   10  C   UNL     1      -8.249   6.503  68.487  1.00  0.00    -0.121 C  
BRANCH  10  11
HETATM   11  C   UNL     1      -7.774   7.871  68.930  1.00  0.00    -0.105 A  
HETATM   12  N   UNL     1      -7.950   9.017  68.286  1.00  0.00    -0.104 NA 
HETATM   13  C   UNL     1      -7.235   9.983  68.977  1.00  0.00    -0.076 A  
HETATM   14  N   UNL     1      -5.644  11.181  71.544  1.00  0.00    -0.351 NA 
HETATM   15  C   UNL     1      -6.670   9.418  70.108  1.00  0.00    -0.066 A  
HETATM   16  C   UNL     1      -5.886   9.874  71.239  1.00  0.00    -0.029 A  
HETATM   17  N   UNL     1      -6.957   8.067  70.025  1.00  0.00    -0.048 NA 
HETATM   18  H2  UNL     1      -6.043  11.891  70.930  1.00  0.00     0.000 HD 
HETATM   19  C   UNL     1      -6.415   7.180  70.941  1.00  0.00    -0.044 A  
HETATM   20  C   UNL     1      -5.636   7.669  71.915  1.00  0.00    -0.036 A  
HETATM   21  N   UNL     1      -5.381   9.009  72.091  1.00  0.00    -0.055 NA 
HETATM   22  H1  UNL     1      -5.092  11.501  72.340  1.00  0.00     0.000 HD 
BRANCH  13  23
HETATM   23  C   UNL     1      -7.162  11.370  68.504  1.00  0.00    -0.093 A  
HETATM   24  C   UNL     1      -7.103  14.088  67.680  1.00  0.00    -0.193 A  
HETATM   25  C   UNL     1      -8.314  13.385  67.731  1.00  0.00    -0.178 A  
HETATM   26  C   UNL     1      -5.948  12.066  68.375  1.00  0.00    -0.050 A  
HETATM   27  C   UNL     1      -8.337  12.038  68.136  1.00  0.00    -0.165 A  
HETATM   28  C   UNL     1      -5.918  13.420  67.993  1.00  0.00    -0.129 A  
BRANCH  24  29
HETATM   29  C   UNL     1      -7.118  15.545  67.351  1.00  0.00    -0.202 C  
HETATM   30  H   UNL     1      -9.144  15.643  67.797  1.00  0.00     0.000 HD 
HETATM   31  O   UNL     1      -6.076  16.075  66.987  1.00  0.00    -0.324 OA 
HETATM   32  N   UNL     1      -8.320  16.195  67.560  1.00  0.00    -0.156 N  
BRANCH  32  33
HETATM   33  C   UNL     1      -8.446  17.587  67.456  1.00  0.00    -0.213 A  
HETATM   34  C   UNL     1      -8.007  18.451  68.456  1.00  0.00    -0.333 A  
HETATM   35  C   UNL     1      -8.232  19.818  68.306  1.00  0.00    -0.312 A  
HETATM   36  C   UNL     1      -8.911  20.274  67.184  1.00  0.00    -0.469 A  
HETATM   37  C   UNL     1      -9.283  19.344  66.227  1.00  0.00    -0.348 A  
HETATM   38  N   UNL     1      -9.022  18.019  66.317  1.00  0.00    -0.456 NA 
ENDBRANCH  32  33
ENDBRANCH  24  29
ENDBRANCH  13  23
ENDBRANCH  10  11
ENDBRANCH   3   4
TORSDOF 5
ENDMDL
MODEL       50
REMARK 921   NORMALIZED FREE ENERGY PREDICTED BY IDOCK:   -5.98 KCAL/MOL
REMARK 922        TOTAL FREE ENERGY PREDICTED BY IDOCK:   -7.20 KCAL/MOL
REMARK 923 INTER-LIGAND FREE ENERGY PREDICTED BY IDOCK:   -7.12 KCAL/MOL
REMARK 924 INTRA-LIGAND FREE ENERGY PREDICTED BY IDOCK:   -0.08 KCAL/MOL
REMARK 927      BINDING AFFINITY PREDICTED BY RF-SCORE:    0.00 PKD
ROOT
HETATM    1  C   UNL     1     -12.720  12.080  63.668  1.00  0.00    -0.550 C  
HETATM    2  C   UNL     1     -12.386  12.781  64.974  1.00  0.00    -0.559 C  
HETATM    3  C   UNL     1     -12.099  13.382  66.095  1.00  0.00    -0.481 C  
ENDROOT
BRANCH   3   4
HETATM    4  C   UNL     1     -11.742  14.110  67.301  1.00  0.00    -0.392 C  
HETATM    5  O   UNL     1     -12.652  14.590  67.965  1.00  0.00     0.106 OA 
HETATM    6  N   UNL     1     -10.405  14.303  67.594  1.00  0.00    -0.246 N  
HETATM    7  C   UNL     1      -9.983  15.287  68.571  1.00  0.00    -0.222 C  
HETATM    8  C   UNL     1      -8.746  15.894  67.932  1.00  0.00    -0.168 C  
HETATM    9  C   UNL     1      -8.124  14.759  67.118  1.00  0.00    -0.226 C  
HETATM   10  C   UNL     1      -9.245  13.717  66.932  1.00  0.00    -0.250 C  
BRANCH  10  11
HETATM   11  C   UNL     1      -8.846  12.419  67.605  1.00  0.00    -0.177 A  
HETATM   12  N   UNL     1      -9.660  11.539  68.172  1.00  0.00    -0.181 NA 
HETATM   13  C   UNL     1      -8.861  10.583  68.780  1.00  0.00    -0.158 A  
HETATM   14  N   UNL     1      -6.078   8.992  69.314  1.00  0.00    -0.041 NA 
HETATM   15  C   UNL     1      -7.530  10.856  68.512  1.00  0.00    -0.103 A  
HETATM   16  C   UNL     1      -6.247  10.239  68.788  1.00  0.00    -0.047 A  
HETATM   17  N   UNL     1      -7.533  12.061  67.831  1.00  0.00    -0.104 NA 
HETATM   18  H2  UNL     1      -6.917   8.453  69.529  1.00  0.00     0.000 HD 
HETATM   19  C   UNL     1      -6.338  12.695  67.528  1.00  0.00    -0.159 A  
HETATM   20  C   UNL     1      -5.193  12.098  67.885  1.00  0.00    -0.065 A  
HETATM   21  N   UNL     1      -5.130  10.866  68.492  1.00  0.00    -0.037 NA 
HETATM   22  H1  UNL     1      -5.176   8.559  69.508  1.00  0.00     0.000 HD 
BRANCH  13  23
HETATM   23  C   UNL     1      -9.438   9.481  69.556  1.00  0.00    -0.195 A  
HETATM   24  C   UNL     1     -10.508   7.263  70.973  1.00  0.00    -0.226 A  
HETATM   25  C   UNL     1     -10.842   7.478  69.630  1.00  0.00    -0.210 A  
HETATM   26  C   UNL     1      -9.172   9.293  70.923  1.00  0.00    -0.300 A  
HETATM   27  C   UNL     1     -10.313   8.581  68.934  1.00  0.00    -0.226 A  
HETATM   28  C   UNL     1      -9.680   8.181  71.621  1.00  0.00    -0.238 A  
BRANCH  24  29
HETATM   29  C   UNL     1     -10.996   6.030  71.659  1.00  0.00    -0.272 C  
HETATM   30  H   UNL     1      -9.210   5.061  71.224  1.00  0.00     0.000 HD 
HETATM   31  O   UNL     1     -12.115   6.037  72.155  1.00  0.00    -0.304 OA 
HETATM   32  N   UNL     1     -10.090   4.986  71.734  1.00  0.00    -0.194 N  
BRANCH  32  33
HETATM   33  C   UNL     1     -10.341   3.832  72.488  1.00  0.00    -0.132 A  
HETATM   34  C   UNL     1     -10.746   3.884  73.818  1.00  0.00    -0.311 A  
HETATM   35  C   UNL     1     -10.908   2.688  74.517  1.00  0.00    -0.016 A  
HETATM   36  C   UNL     1     -10.628   1.488  73.878  1.00  0.00    -0.175 A  
HETATM   37  C   UNL     1     -10.259   1.532  72.543  1.00  0.00    -0.139 A  
HETATM   38  N   UNL     1     -10.157   2.673  71.823  1.00  0.00    -0.118 NA 
ENDBRANCH  32  33
ENDBRANCH  24  29
ENDBRANCH  13  23
ENDBRANCH  10  11
ENDBRANCH   3   4
TORSDOF 5
ENDMDL
MODEL       51
REMARK 921   NORMALIZED FREE ENERGY PREDICTED BY IDOCK:   -5.91 KCAL/MOL
REMARK 922        TOTAL FREE ENERGY PREDICTED BY IDOCK:   -7.12 KCAL/MOL
REMARK 923 INTER-LIGAND FREE ENERGY PREDICTED BY IDOCK:   -6.35 KCAL/MOL
REMARK 924 INTRA-LIGAND FREE ENERGY PREDICTED BY IDOCK:   -0.77 KCAL/MOL
REMARK 927      BINDING AFFINITY PREDICTED BY RF-SCORE:    0.00 PKD
ROOT
HETATM    1  C   UNL     1      -6.744   2.757  65.232  1.00  0.00    -0.040 C  
HETATM    2  C   UNL     1      -7.150   3.472  66.510  1.00  0.00    -0.063 C  
HETATM    3  C   UNL     1      -7.498   4.086  67.607  1.00  0.00    -0.068 C  
ENDROOT
BRANCH   3   4
HETATM    4  C   UNL     1      -7.819   4.739  68.863  1.00  0.00    -0.076 C  
HETATM    5  O   UNL     1      -7.170   4.421  69.852  1.00  0.00    -0.048 OA 
HETATM    6  N   UNL     1      -8.888   5.614  68.907  1.00  0.00    -0.109 N  
HETATM    7  C   UNL     1      -9.468   6.032  70.169  1.00  0.00    -0.158 C  
HETATM    8  C   UNL     1     -10.958   6.035  69.875  1.00  0.00    -0.458 C  
HETATM    9  C   UNL     1     -11.069   6.401  68.395  1.00  0.00    -0.374 C  
HETATM   10  C   UNL     1      -9.676   6.130  67.793  1.00  0.00    -0.116 C  
BRANCH  10  11
HETATM   11  C   UNL     1      -9.086   7.426  67.277  1.00  0.00    -0.124 A  
HETATM   12  N   UNL     1      -9.296   8.641  67.765  1.00  0.00    -0.140 NA 
HETATM   13  C   UNL     1      -8.676   9.534  66.905  1.00  0.00    -0.128 A  
HETATM   14  N   UNL     1      -6.625  10.380  64.531  1.00  0.00    -0.307 NA 
HETATM   15  C   UNL     1      -8.014   8.834  65.910  1.00  0.00    -0.104 A  
HETATM   16  C   UNL     1      -7.159   9.150  64.784  1.00  0.00    -0.096 A  
HETATM   17  N   UNL     1      -8.344   7.506  66.116  1.00  0.00    -0.131 NA 
HETATM   18  H2  UNL     1      -6.845  11.133  65.183  1.00  0.00     0.000 HD 
HETATM   19  C   UNL     1      -7.951   6.539  65.204  1.00  0.00    -0.123 A  
HETATM   20  C   UNL     1      -7.227   6.922  64.144  1.00  0.00    -0.068 A  
HETATM   21  N   UNL     1      -6.805   8.214  63.932  1.00  0.00    -0.073 NA 
HETATM   22  H1  UNL     1      -6.024  10.603  63.738  1.00  0.00     0.000 HD 
BRANCH  13  23
HETATM   23  C   UNL     1      -8.758  10.984  67.114  1.00  0.00    -0.135 A  
HETATM   24  C   UNL     1      -8.793  13.800  67.483  1.00  0.00    -0.197 A  
HETATM   25  C   UNL     1      -7.873  13.003  68.176  1.00  0.00    -0.145 A  
HETATM   26  C   UNL     1      -9.722  11.789  66.485  1.00  0.00    -0.224 A  
HETATM   27  C   UNL     1      -7.862  11.607  67.992  1.00  0.00    -0.128 A  
HETATM   28  C   UNL     1      -9.726  13.187  66.646  1.00  0.00    -0.261 A  
BRANCH  24  29
HETATM   29  C   UNL     1      -8.715  15.286  67.613  1.00  0.00    -0.172 C  
HETATM   30  H   UNL     1      -7.713  15.408  65.797  1.00  0.00     0.000 HD 
HETATM   31  O   UNL     1      -9.199  15.816  68.605  1.00  0.00    -0.189 OA 
HETATM   32  N   UNL     1      -8.149  15.953  66.541  1.00  0.00    -0.264 N  
BRANCH  32  33
HETATM   33  C   UNL     1      -8.156  17.351  66.441  1.00  0.00    -0.280 A  
HETATM   34  C   UNL     1      -7.052  18.071  65.996  1.00  0.00    -0.330 A  
HETATM   35  C   UNL     1      -7.118  19.464  65.992  1.00  0.00    -0.291 A  
HETATM   36  C   UNL     1      -8.265  20.089  66.461  1.00  0.00    -0.347 A  
HETATM   37  C   UNL     1      -9.326  19.289  66.856  1.00  0.00    -0.318 A  
HETATM   38  N   UNL     1      -9.313  17.937  66.811  1.00  0.00    -0.267 NA 
ENDBRANCH  32  33
ENDBRANCH  24  29
ENDBRANCH  13  23
ENDBRANCH  10  11
ENDBRANCH   3   4
TORSDOF 5
ENDMDL
MODEL       52
REMARK 921   NORMALIZED FREE ENERGY PREDICTED BY IDOCK:   -5.85 KCAL/MOL
REMARK 922        TOTAL FREE ENERGY PREDICTED BY IDOCK:   -7.04 KCAL/MOL
REMARK 923 INTER-LIGAND FREE ENERGY PREDICTED BY IDOCK:   -9.04 KCAL/MOL
REMARK 924 INTRA-LIGAND FREE ENERGY PREDICTED BY IDOCK:    2.01 KCAL/MOL
REMARK 927      BINDING AFFINITY PREDICTED BY RF-SCORE:    0.00 PKD
ROOT
HETATM    1  C   UNL     1      -5.420  20.248  71.683  1.00  0.00    -0.401 C  
HETATM    2  C   UNL     1      -5.851  20.316  70.228  1.00  0.00    -0.384 C  
HETATM    3  C   UNL     1      -6.221  20.374  68.978  1.00  0.00    -0.351 C  
ENDROOT
BRANCH   3   4
HETATM    4  C   UNL     1      -6.708  20.417  67.611  1.00  0.00    -0.275 C  
HETATM    5  O   UNL     1      -5.982  20.923  66.764  1.00  0.00    -0.201 OA 
HETATM    6  N   UNL     1      -7.989  19.972  67.343  1.00  0.00    -0.294 N  
HETATM    7  C   UNL     1      -8.653  20.292  66.094  1.00  0.00    -0.085 C  
HETATM    8  C   UNL     1     -10.079  20.580  66.529  1.00  0.00    -0.286 C  
HETATM    9  C   UNL     1     -10.311  19.680  67.743  1.00  0.00    -0.586 C  
HETATM   10  C   UNL     1      -8.908  19.281  68.241  1.00  0.00    -0.337 C  
BRANCH  10  11
HETATM   11  C   UNL     1      -8.738  17.780  68.126  1.00  0.00    -0.266 A  
HETATM   12  N   UNL     1      -9.642  16.856  68.420  1.00  0.00    -0.246 NA 
HETATM   13  C   UNL     1      -9.016  15.625  68.303  1.00  0.00    -0.181 A  
HETATM   14  N   UNL     1      -6.656  13.614  67.329  1.00  0.00    -0.447 NA 
HETATM   15  C   UNL     1      -7.717  15.809  67.858  1.00  0.00    -0.133 A  
HETATM   16  C   UNL     1      -6.596  14.967  67.487  1.00  0.00    -0.125 A  
HETATM   17  N   UNL     1      -7.532  17.180  67.822  1.00  0.00    -0.171 NA 
HETATM   18  H2  UNL     1      -7.557  13.160  67.483  1.00  0.00     0.000 HD 
HETATM   19  C   UNL     1      -6.282  17.710  67.545  1.00  0.00    -0.157 A  
HETATM   20  C   UNL     1      -5.276  16.864  67.288  1.00  0.00    -0.142 A  
HETATM   21  N   UNL     1      -5.420  15.497  67.233  1.00  0.00    -0.329 NA 
HETATM   22  H1  UNL     1      -5.868  13.022  67.068  1.00  0.00     0.000 HD 
BRANCH  13  23
HETATM   23  C   UNL     1      -9.715  14.374  68.614  1.00  0.00    -0.216 A  
HETATM   24  C   UNL     1     -10.965  11.912  69.280  1.00  0.00    -0.208 A  
HETATM   25  C   UNL     1      -9.752  11.928  68.579  1.00  0.00    -0.173 A  
HETATM   26  C   UNL     1     -10.967  14.341  69.249  1.00  0.00    -0.271 A  
HETATM   27  C   UNL     1      -9.139  13.151  68.248  1.00  0.00    -0.181 A  
HETATM   28  C   UNL     1     -11.577  13.123  69.604  1.00  0.00    -0.321 A  
BRANCH  24  29
HETATM   29  C   UNL     1     -11.541  10.603  69.712  1.00  0.00    -0.309 C  
HETATM   30  H   UNL     1      -9.647   9.920  70.225  1.00  0.00     0.000 HD 
HETATM   31  O   UNL     1     -12.749  10.433  69.617  1.00  0.00    -0.103 OA 
HETATM   32  N   UNL     1     -10.643   9.704  70.260  1.00  0.00    -0.256 N  
BRANCH  32  33
HETATM   33  C   UNL     1     -11.056   8.507  70.861  1.00  0.00    -0.255 A  
HETATM   34  C   UNL     1     -11.311   7.354  70.125  1.00  0.00    -0.200 A  
HETATM   35  C   UNL     1     -11.784   6.225  70.792  1.00  0.00    -0.289 A  
HETATM   36  C   UNL     1     -12.018   6.294  72.159  1.00  0.00    -0.338 A  
HETATM   37  C   UNL     1     -11.707   7.475  72.812  1.00  0.00    -0.183 A  
HETATM   38  N   UNL     1     -11.187   8.565  72.202  1.00  0.00    -0.342 NA 
ENDBRANCH  32  33
ENDBRANCH  24  29
ENDBRANCH  13  23
ENDBRANCH  10  11
ENDBRANCH   3   4
TORSDOF 5
ENDMDL
MODEL       53
REMARK 921   NORMALIZED FREE ENERGY PREDICTED BY IDOCK:   -5.85 KCAL/MOL
REMARK 922        TOTAL FREE ENERGY PREDICTED BY IDOCK:   -7.03 KCAL/MOL
REMARK 923 INTER-LIGAND FREE ENERGY PREDICTED BY IDOCK:   -5.71 KCAL/MOL
REMARK 924 INTRA-LIGAND FREE ENERGY PREDICTED BY IDOCK:   -1.32 KCAL/MOL
REMARK 927      BINDING AFFINITY PREDICTED BY RF-SCORE:    0.00 PKD
ROOT
HETATM    1  C   UNL     1      -9.373   1.693  69.290  1.00  0.00    -0.171 C  
HETATM    2  C   UNL     1      -9.419   2.608  68.078  1.00  0.00    -0.205 C  
HETATM    3  C   UNL     1      -9.460   3.394  67.037  1.00  0.00    -0.188 C  
ENDROOT
BRANCH   3   4
HETATM    4  C   UNL     1      -9.576   4.296  65.906  1.00  0.00    -0.191 C  
HETATM    5  O   UNL     1     -10.495   4.107  65.119  1.00  0.00    -0.230 OA 
HETATM    6  N   UNL     1      -8.605   5.262  65.718  1.00  0.00    -0.133 N  
HETATM    7  C   UNL     1      -8.470   5.960  64.455  1.00  0.00     0.020 C  
HETATM    8  C   UNL     1      -6.965   6.050  64.273  1.00  0.00    -0.051 C  
HETATM    9  C   UNL     1      -6.401   6.144  65.691  1.00  0.00    -0.038 C  
HETATM   10  C   UNL     1      -7.520   5.634  66.620  1.00  0.00    -0.087 C  
BRANCH  10  11
HETATM   11  C   UNL     1      -7.957   6.750  67.547  1.00  0.00    -0.115 A  
HETATM   12  N   UNL     1      -8.111   8.028  67.229  1.00  0.00    -0.120 NA 
HETATM   13  C   UNL     1      -8.381   8.708  68.407  1.00  0.00    -0.127 A  
HETATM   14  N   UNL     1      -9.256   8.939  71.528  1.00  0.00    -0.260 NA 
HETATM   15  C   UNL     1      -8.461   7.804  69.453  1.00  0.00    -0.134 A  
HETATM   16  C   UNL     1      -8.762   7.850  70.870  1.00  0.00    -0.137 A  
HETATM   17  N   UNL     1      -8.117   6.580  68.907  1.00  0.00    -0.114 NA 
HETATM   18  H2  UNL     1      -9.426   9.783  70.981  1.00  0.00     0.000 HD 
HETATM   19  C   UNL     1      -7.964   5.469  69.722  1.00  0.00    -0.090 A  
HETATM   20  C   UNL     1      -8.185   5.609  71.036  1.00  0.00    -0.121 A  
HETATM   21  N   UNL     1      -8.605   6.782  71.620  1.00  0.00    -0.125 NA 
HETATM   22  H1  UNL     1      -9.467   8.971  72.525  1.00  0.00     0.000 HD 
BRANCH  13  23
HETATM   23  C   UNL     1      -8.552  10.164  68.432  1.00  0.00    -0.119 A  
HETATM   24  C   UNL     1      -8.778  12.996  68.409  1.00  0.00    -0.115 A  
HETATM   25  C   UNL     1      -7.617  12.378  68.891  1.00  0.00     0.035 A  
HETATM   26  C   UNL     1      -9.738  10.797  68.023  1.00  0.00    -0.174 A  
HETATM   27  C   UNL     1      -7.511  10.975  68.904  1.00  0.00    -0.123 A  
HETATM   28  C   UNL     1      -9.843  12.200  67.986  1.00  0.00    -0.202 A  
BRANCH  24  29
HETATM   29  C   UNL     1      -8.824  14.485  68.306  1.00  0.00    -0.179 C  
HETATM   30  H   UNL     1      -8.657  14.364  66.239  1.00  0.00     0.000 HD 
HETATM   31  O   UNL     1      -8.925  15.142  69.334  1.00  0.00    -0.225 OA 
HETATM   32  N   UNL     1      -8.817  14.998  67.021  1.00  0.00    -0.219 N  
BRANCH  32  33
HETATM   33  C   UNL     1      -9.022  16.359  66.758  1.00  0.00    -0.236 A  
HETATM   34  C   UNL     1      -7.972  17.269  66.682  1.00  0.00    -0.296 A  
HETATM   35  C   UNL     1      -8.267  18.618  66.485  1.00  0.00    -0.301 A  
HETATM   36  C   UNL     1      -9.595  19.016  66.404  1.00  0.00    -0.386 A  
HETATM   37  C   UNL     1     -10.572  18.035  66.461  1.00  0.00    -0.253 A  
HETATM   38  N   UNL     1     -10.312  16.713  66.588  1.00  0.00    -0.301 NA 
ENDBRANCH  32  33
ENDBRANCH  24  29
ENDBRANCH  13  23
ENDBRANCH  10  11
ENDBRANCH   3   4
TORSDOF 5
ENDMDL
MODEL       54
REMARK 921   NORMALIZED FREE ENERGY PREDICTED BY IDOCK:   -5.82 KCAL/MOL
REMARK 922        TOTAL FREE ENERGY PREDICTED BY IDOCK:   -6.99 KCAL/MOL
REMARK 923 INTER-LIGAND FREE ENERGY PREDICTED BY IDOCK:   -6.87 KCAL/MOL
REMARK 924 INTRA-LIGAND FREE ENERGY PREDICTED BY IDOCK:   -0.12 KCAL/MOL
REMARK 927      BINDING AFFINITY PREDICTED BY RF-SCORE:    0.00 PKD
ROOT
HETATM    1  C   UNL     1     -11.395   7.527  70.841  1.00  0.00    -0.297 C  
HETATM    2  C   UNL     1     -11.021   6.859  69.528  1.00  0.00    -0.289 C  
HETATM    3  C   UNL     1     -10.700   6.286  68.401  1.00  0.00    -0.356 C  
ENDROOT
BRANCH   3   4
HETATM    4  C   UNL     1     -10.363   5.717  67.109  1.00  0.00    -0.240 C  
HETATM    5  O   UNL     1     -11.274   5.243  66.441  1.00  0.00     0.002 OA 
HETATM    6  N   UNL     1      -9.035   5.656  66.731  1.00  0.00    -0.114 N  
HETATM    7  C   UNL     1      -8.602   4.813  65.633  1.00  0.00    -0.127 C  
HETATM    8  C   UNL     1      -7.293   4.236  66.142  1.00  0.00    -0.076 C  
HETATM    9  C   UNL     1      -6.705   5.323  67.042  1.00  0.00    -0.058 C  
HETATM   10  C   UNL     1      -7.882   6.254  67.394  1.00  0.00    -0.101 C  
BRANCH  10  11
HETATM   11  C   UNL     1      -7.612   7.640  66.847  1.00  0.00    -0.102 A  
HETATM   12  N   UNL     1      -8.124   8.780  67.293  1.00  0.00    -0.101 NA 
HETATM   13  C   UNL     1      -7.719   9.775  66.416  1.00  0.00    -0.102 A  
HETATM   14  N   UNL     1      -5.878  11.032  64.051  1.00  0.00    -0.349 NA 
HETATM   15  C   UNL     1      -6.882   9.231  65.455  1.00  0.00    -0.074 A  
HETATM   16  C   UNL     1      -6.102   9.716  64.334  1.00  0.00    -0.089 A  
HETATM   17  N   UNL     1      -6.884   7.868  65.697  1.00  0.00    -0.052 NA 
HETATM   18  H2  UNL     1      -6.290  11.726  64.675  1.00  0.00     0.000 HD 
HETATM   19  C   UNL     1      -6.246   7.003  64.823  1.00  0.00    -0.037 A  
HETATM   20  C   UNL     1      -5.611   7.522  63.764  1.00  0.00    -0.041 A  
HETATM   21  N   UNL     1      -5.510   8.872  63.519  1.00  0.00    -0.063 NA 
HETATM   22  H1  UNL     1      -5.330  11.373  63.262  1.00  0.00     0.000 HD 
BRANCH  13  23
HETATM   23  C   UNL     1      -8.156  11.165  66.576  1.00  0.00    -0.163 A  
HETATM   24  C   UNL     1      -9.119  13.816  66.917  1.00  0.00    -0.253 A  
HETATM   25  C   UNL     1      -9.733  12.947  66.006  1.00  0.00    -0.228 A  
HETATM   26  C   UNL     1      -7.506  12.073  67.430  1.00  0.00    -0.152 A  
HETATM   27  C   UNL     1      -9.249  11.636  65.838  1.00  0.00    -0.206 A  
HETATM   28  C   UNL     1      -7.996  13.378  67.620  1.00  0.00    -0.174 A  
BRANCH  24  29
HETATM   29  C   UNL     1      -9.715  15.165  67.156  1.00  0.00    -0.228 C  
HETATM   30  H   UNL     1      -7.819  15.977  67.407  1.00  0.00     0.000 HD 
HETATM   31  O   UNL     1     -10.933  15.282  67.124  1.00  0.00    -0.324 OA 
HETATM   32  N   UNL     1      -8.812  16.198  67.327  1.00  0.00    -0.182 N  
BRANCH  32  33
HETATM   33  C   UNL     1      -9.214  17.539  67.394  1.00  0.00    -0.238 A  
HETATM   34  C   UNL     1      -9.373  18.326  66.258  1.00  0.00    -0.223 A  
HETATM   35  C   UNL     1      -9.709  19.670  66.415  1.00  0.00    -0.503 A  
HETATM   36  C   UNL     1      -9.841  20.190  67.696  1.00  0.00    -0.567 A  
HETATM   37  C   UNL     1      -9.694  19.323  68.767  1.00  0.00    -0.446 A  
HETATM   38  N   UNL     1      -9.431  18.002  68.642  1.00  0.00    -0.317 NA 
ENDBRANCH  32  33
ENDBRANCH  24  29
ENDBRANCH  13  23
ENDBRANCH  10  11
ENDBRANCH   3   4
TORSDOF 5
ENDMDL
MODEL       55
REMARK 921   NORMALIZED FREE ENERGY PREDICTED BY IDOCK:   -5.73 KCAL/MOL
REMARK 922        TOTAL FREE ENERGY PREDICTED BY IDOCK:   -6.88 KCAL/MOL
REMARK 923 INTER-LIGAND FREE ENERGY PREDICTED BY IDOCK:   -7.61 KCAL/MOL
REMARK 924 INTRA-LIGAND FREE ENERGY PREDICTED BY IDOCK:    0.73 KCAL/MOL
REMARK 927      BINDING AFFINITY PREDICTED BY RF-SCORE:    0.00 PKD
ROOT
HETATM    1  C   UNL     1      -5.309  18.982  63.320  1.00  0.00    -0.272 C  
HETATM    2  C   UNL     1      -5.721  19.410  64.719  1.00  0.00    -0.273 C  
HETATM    3  C   UNL     1      -6.075  19.777  65.919  1.00  0.00    -0.198 C  
ENDROOT
BRANCH   3   4
HETATM    4  C   UNL     1      -6.536  20.217  67.224  1.00  0.00    -0.218 C  
HETATM    5  O   UNL     1      -7.004  21.346  67.311  1.00  0.00    -0.573 OA 
HETATM    6  N   UNL     1      -6.348  19.388  68.314  1.00  0.00    -0.229 N  
HETATM    7  C   UNL     1      -6.469  19.887  69.670  1.00  0.00    -0.353 C  
HETATM    8  C   UNL     1      -5.332  19.189  70.394  1.00  0.00    -0.231 C  
HETATM    9  C   UNL     1      -5.181  17.842  69.686  1.00  0.00    -0.188 C  
HETATM   10  C   UNL     1      -5.883  18.006  68.324  1.00  0.00    -0.172 C  
BRANCH  10  11
HETATM   11  C   UNL     1      -7.054  17.049  68.239  1.00  0.00    -0.190 A  
HETATM   12  N   UNL     1      -6.992  15.733  68.086  1.00  0.00    -0.112 NA 
HETATM   13  C   UNL     1      -8.292  15.283  67.918  1.00  0.00    -0.148 A  
HETATM   14  N   UNL     1     -11.529  15.539  68.067  1.00  0.00    -0.335 NA 
HETATM   15  C   UNL     1      -9.169  16.349  68.044  1.00  0.00    -0.204 A  
HETATM   16  C   UNL     1     -10.605  16.543  68.038  1.00  0.00    -0.328 A  
HETATM   17  N   UNL     1      -8.367  17.469  68.172  1.00  0.00    -0.241 NA 
HETATM   18  H2  UNL     1     -11.182  14.580  68.096  1.00  0.00     0.000 HD 
HETATM   19  C   UNL     1      -8.932  18.734  68.183  1.00  0.00    -0.308 A  
HETATM   20  C   UNL     1     -10.265  18.837  68.096  1.00  0.00    -0.381 A  
HETATM   21  N   UNL     1     -11.114  17.755  68.045  1.00  0.00    -0.067 NA 
HETATM   22  H1  UNL     1     -12.539  15.676  68.063  1.00  0.00     0.000 HD 
BRANCH  13  23
HETATM   23  C   UNL     1      -8.590  13.870  67.664  1.00  0.00    -0.190 A  
HETATM   24  C   UNL     1      -9.223  11.127  67.285  1.00  0.00    -0.166 A  
HETATM   25  C   UNL     1      -8.479  11.538  68.398  1.00  0.00    -0.159 A  
HETATM   26  C   UNL     1      -9.270  13.431  66.515  1.00  0.00    -0.182 A  
HETATM   27  C   UNL     1      -8.164  12.898  68.579  1.00  0.00    -0.065 A  
HETATM   28  C   UNL     1      -9.608  12.076  66.338  1.00  0.00    -0.239 A  
BRANCH  24  29
HETATM   29  C   UNL     1      -9.635   9.696  67.171  1.00  0.00    -0.166 C  
HETATM   30  H   UNL     1      -8.262   9.165  68.637  1.00  0.00     0.000 HD 
HETATM   31  O   UNL     1     -10.507   9.398  66.365  1.00  0.00    -0.204 OA 
HETATM   32  N   UNL     1      -9.028   8.824  68.057  1.00  0.00    -0.140 N  
BRANCH  32  33
HETATM   33  C   UNL     1      -9.429   7.487  68.184  1.00  0.00    -0.143 A  
HETATM   34  C   UNL     1     -10.563   7.115  68.901  1.00  0.00    -0.218 A  
HETATM   35  C   UNL     1     -10.854   5.759  69.036  1.00  0.00    -0.330 A  
HETATM   36  C   UNL     1      -9.992   4.822  68.484  1.00  0.00    -0.160 A  
HETATM   37  C   UNL     1      -8.904   5.286  67.762  1.00  0.00    -0.105 A  
HETATM   38  N   UNL     1      -8.632   6.596  67.560  1.00  0.00    -0.120 NA 
ENDBRANCH  32  33
ENDBRANCH  24  29
ENDBRANCH  13  23
ENDBRANCH  10  11
ENDBRANCH   3   4
TORSDOF 5
ENDMDL
MODEL       56
REMARK 921   NORMALIZED FREE ENERGY PREDICTED BY IDOCK:   -5.64 KCAL/MOL
REMARK 922        TOTAL FREE ENERGY PREDICTED BY IDOCK:   -6.77 KCAL/MOL
REMARK 923 INTER-LIGAND FREE ENERGY PREDICTED BY IDOCK:   -6.01 KCAL/MOL
REMARK 924 INTRA-LIGAND FREE ENERGY PREDICTED BY IDOCK:   -0.76 KCAL/MOL
REMARK 927      BINDING AFFINITY PREDICTED BY RF-SCORE:    0.00 PKD
ROOT
HETATM    1  C   UNL     1      -5.272  15.868  71.217  1.00  0.00    -0.054 C  
HETATM    2  C   UNL     1      -6.014  15.792  69.893  1.00  0.00    -0.166 C  
HETATM    3  C   UNL     1      -6.650  15.726  68.757  1.00  0.00    -0.113 C  
ENDROOT
BRANCH   3   4
HETATM    4  C   UNL     1      -7.306  15.707  67.461  1.00  0.00    -0.185 C  
HETATM    5  O   UNL     1      -6.607  15.860  66.467  1.00  0.00    -0.061 OA 
HETATM    6  N   UNL     1      -8.683  15.609  67.411  1.00  0.00    -0.173 N  
HETATM    7  C   UNL     1      -9.418  15.919  66.200  1.00  0.00    -0.340 C  
HETATM    8  C   UNL     1     -10.638  16.658  66.721  1.00  0.00    -0.214 C  
HETATM    9  C   UNL     1     -10.915  16.045  68.094  1.00  0.00    -0.339 C  
HETATM   10  C   UNL     1      -9.607  15.342  68.508  1.00  0.00    -0.201 C  
BRANCH  10  11
HETATM   11  C   UNL     1      -9.854  13.854  68.648  1.00  0.00    -0.175 A  
HETATM   12  N   UNL     1      -9.243  12.884  67.981  1.00  0.00    -0.206 NA 
HETATM   13  C   UNL     1      -9.877  11.699  68.320  1.00  0.00    -0.199 A  
HETATM   14  N   UNL     1     -11.796   9.815  70.145  1.00  0.00    -0.446 NA 
HETATM   15  C   UNL     1     -10.851  11.953  69.272  1.00  0.00    -0.104 A  
HETATM   16  C   UNL     1     -11.789  11.177  70.058  1.00  0.00    -0.361 A  
HETATM   17  N   UNL     1     -10.875  13.329  69.414  1.00  0.00    -0.025 NA 
HETATM   18  H2  UNL     1     -11.086   9.305  69.617  1.00  0.00     0.000 HD 
HETATM   19  C   UNL     1     -11.843  13.933  70.201  1.00  0.00    -0.298 A  
HETATM   20  C   UNL     1     -12.726  13.151  70.835  1.00  0.00    -0.233 A  
HETATM   21  N   UNL     1     -12.699  11.776  70.793  1.00  0.00    -0.221 NA 
HETATM   22  H1  UNL     1     -12.457   9.269  70.697  1.00  0.00     0.000 HD 
BRANCH  13  23
HETATM   23  C   UNL     1      -9.490  10.420  67.716  1.00  0.00    -0.159 A  
HETATM   24  C   UNL     1      -8.693   7.907  66.658  1.00  0.00    -0.154 A  
HETATM   25  C   UNL     1      -7.757   8.752  67.267  1.00  0.00    -0.096 A  
HETATM   26  C   UNL     1     -10.400   9.595  67.035  1.00  0.00    -0.315 A  
HETATM   27  C   UNL     1      -8.156   9.998  67.786  1.00  0.00    -0.109 A  
HETATM   28  C   UNL     1     -10.015   8.338  66.533  1.00  0.00    -0.320 A  
BRANCH  24  29
HETATM   29  C   UNL     1      -8.268   6.547  66.211  1.00  0.00    -0.119 C  
HETATM   30  H   UNL     1      -9.942   6.406  64.989  1.00  0.00     0.000 HD 
HETATM   31  O   UNL     1      -7.234   6.075  66.668  1.00  0.00    -0.071 OA 
HETATM   32  N   UNL     1      -9.064   5.956  65.247  1.00  0.00     0.041 N  
BRANCH  32  33
HETATM   33  C   UNL     1      -8.704   4.760  64.611  1.00  0.00    -0.153 A  
HETATM   34  C   UNL     1      -9.170   3.520  65.038  1.00  0.00    -0.149 A  
HETATM   35  C   UNL     1      -8.710   2.373  64.393  1.00  0.00    -0.100 A  
HETATM   36  C   UNL     1      -7.780   2.498  63.370  1.00  0.00    -0.064 A  
HETATM   37  C   UNL     1      -7.396   3.774  62.993  1.00  0.00    -0.050 A  
HETATM   38  N   UNL     1      -7.874   4.907  63.558  1.00  0.00    -0.076 NA 
ENDBRANCH  32  33
ENDBRANCH  24  29
ENDBRANCH  13  23
ENDBRANCH  10  11
ENDBRANCH   3   4
TORSDOF 5
ENDMDL
MODEL       57
REMARK 921   NORMALIZED FREE ENERGY PREDICTED BY IDOCK:   -5.59 KCAL/MOL
REMARK 922        TOTAL FREE ENERGY PREDICTED BY IDOCK:   -6.70 KCAL/MOL
REMARK 923 INTER-LIGAND FREE ENERGY PREDICTED BY IDOCK:   -6.31 KCAL/MOL
REMARK 924 INTRA-LIGAND FREE ENERGY PREDICTED BY IDOCK:   -0.39 KCAL/MOL
REMARK 927      BINDING AFFINITY PREDICTED BY RF-SCORE:    0.00 PKD
ROOT
HETATM    1  C   UNL     1      -6.629   8.570  74.135  1.00  0.00    -0.150 C  
HETATM    2  C   UNL     1      -7.962   8.464  73.413  1.00  0.00    -0.160 C  
HETATM    3  C   UNL     1      -9.106   8.372  72.794  1.00  0.00    -0.299 C  
ENDROOT
BRANCH   3   4
HETATM    4  C   UNL     1     -10.385   8.351  72.107  1.00  0.00    -0.327 C  
HETATM    5  O   UNL     1     -11.371   8.731  72.728  1.00  0.00    -0.083 OA 
HETATM    6  N   UNL     1     -10.449   7.827  70.830  1.00  0.00    -0.208 N  
HETATM    7  C   UNL     1     -11.717   7.467  70.226  1.00  0.00    -0.023 C  
HETATM    8  C   UNL     1     -11.395   6.172  69.502  1.00  0.00    -0.426 C  
HETATM    9  C   UNL     1      -9.932   6.308  69.080  1.00  0.00    -0.181 C  
HETATM   10  C   UNL     1      -9.346   7.425  69.965  1.00  0.00    -0.151 C  
BRANCH  10  11
HETATM   11  C   UNL     1      -8.903   8.582  69.093  1.00  0.00    -0.142 A  
HETATM   12  N   UNL     1      -8.869   9.863  69.434  1.00  0.00    -0.173 NA 
HETATM   13  C   UNL     1      -8.538  10.577  68.293  1.00  0.00    -0.127 A  
HETATM   14  N   UNL     1      -7.389  10.913  65.271  1.00  0.00    -0.357 NA 
HETATM   15  C   UNL     1      -8.296   9.695  67.251  1.00  0.00    -0.114 A  
HETATM   16  C   UNL     1      -7.866   9.783  65.870  1.00  0.00    -0.108 A  
HETATM   17  N   UNL     1      -8.603   8.443  67.753  1.00  0.00    -0.130 NA 
HETATM   18  H2  UNL     1      -7.331  11.759  65.839  1.00  0.00     0.000 HD 
HETATM   19  C   UNL     1      -8.599   7.337  66.918  1.00  0.00    -0.124 A  
HETATM   20  C   UNL     1      -8.265   7.511  65.633  1.00  0.00    -0.133 A  
HETATM   21  N   UNL     1      -7.876   8.718  65.100  1.00  0.00    -0.102 NA 
HETATM   22  H1  UNL     1      -7.087  10.974  64.299  1.00  0.00     0.000 HD 
BRANCH  13  23
HETATM   23  C   UNL     1      -8.468  12.041  68.296  1.00  0.00    -0.167 A  
HETATM   24  C   UNL     1      -8.218  14.871  68.245  1.00  0.00    -0.145 A  
HETATM   25  C   UNL     1      -7.241  14.081  68.864  1.00  0.00    -0.108 A  
HETATM   26  C   UNL     1      -9.475  12.852  67.746  1.00  0.00    -0.202 A  
HETATM   27  C   UNL     1      -7.371  12.680  68.890  1.00  0.00    -0.016 A  
HETATM   28  C   UNL     1      -9.342  14.252  67.695  1.00  0.00    -0.201 A  
BRANCH  24  29
HETATM   29  C   UNL     1      -8.004  16.345  68.136  1.00  0.00    -0.160 C  
HETATM   30  H   UNL     1      -6.038  16.124  68.770  1.00  0.00     0.000 HD 
HETATM   31  O   UNL     1      -8.936  17.048  67.767  1.00  0.00    -0.219 OA 
HETATM   32  N   UNL     1      -6.721  16.787  68.402  1.00  0.00    -0.149 N  
BRANCH  32  33
HETATM   33  C   UNL     1      -6.325  18.113  68.181  1.00  0.00    -0.190 A  
HETATM   34  C   UNL     1      -6.580  19.128  69.098  1.00  0.00    -0.336 A  
HETATM   35  C   UNL     1      -6.215  20.433  68.772  1.00  0.00    -0.357 A  
HETATM   36  C   UNL     1      -5.641  20.686  67.533  1.00  0.00    -0.243 A  
HETATM   37  C   UNL     1      -5.397  19.608  66.698  1.00  0.00    -0.163 A  
HETATM   38  N   UNL     1      -5.683  18.324  67.015  1.00  0.00    -0.140 NA 
ENDBRANCH  32  33
ENDBRANCH  24  29
ENDBRANCH  13  23
ENDBRANCH  10  11
ENDBRANCH   3   4
TORSDOF 5
ENDMDL
MODEL       58
REMARK 921   NORMALIZED FREE ENERGY PREDICTED BY IDOCK:   -5.57 KCAL/MOL
REMARK 922        TOTAL FREE ENERGY PREDICTED BY IDOCK:   -6.68 KCAL/MOL
REMARK 923 INTER-LIGAND FREE ENERGY PREDICTED BY IDOCK:   -6.26 KCAL/MOL
REMARK 924 INTRA-LIGAND FREE ENERGY PREDICTED BY IDOCK:   -0.41 KCAL/MOL
REMARK 927      BINDING AFFINITY PREDICTED BY RF-SCORE:    0.00 PKD
ROOT
HETATM    1  C   UNL     1      -5.552  20.517  71.526  1.00  0.00    -0.249 C  
HETATM    2  C   UNL     1      -6.101  20.205  70.144  1.00  0.00    -0.387 C  
HETATM    3  C   UNL     1      -6.572  19.937  68.958  1.00  0.00    -0.364 C  
ENDROOT
BRANCH   3   4
HETATM    4  C   UNL     1      -7.112  19.718  67.628  1.00  0.00    -0.252 C  
HETATM    5  O   UNL     1      -6.577  20.303  66.693  1.00  0.00    -0.208 OA 
HETATM    6  N   UNL     1      -8.245  18.940  67.486  1.00  0.00    -0.266 N  
HETATM    7  C   UNL     1      -9.021  18.955  66.262  1.00  0.00    -0.259 C  
HETATM    8  C   UNL     1     -10.454  18.915  66.765  1.00  0.00    -0.497 C  
HETATM    9  C   UNL     1     -10.394  18.112  68.065  1.00  0.00    -0.405 C  
HETATM   10  C   UNL     1      -8.915  18.133  68.500  1.00  0.00    -0.296 C  
BRANCH  10  11
HETATM   11  C   UNL     1      -8.369  16.720  68.504  1.00  0.00    -0.243 A  
HETATM   12  N   UNL     1      -8.890  15.668  67.887  1.00  0.00    -0.171 NA 
HETATM   13  C   UNL     1      -8.149  14.563  68.277  1.00  0.00    -0.140 A  
HETATM   14  N   UNL     1      -5.566  13.066  69.560  1.00  0.00    -0.083 NA 
HETATM   15  C   UNL     1      -7.108  14.971  69.096  1.00  0.00    -0.149 A  
HETATM   16  C   UNL     1      -5.982  14.349  69.763  1.00  0.00    -0.119 A  
HETATM   17  N   UNL     1      -7.305  16.327  69.290  1.00  0.00    -0.228 NA 
HETATM   18  H2  UNL     1      -6.088  12.501  68.889  1.00  0.00     0.000 HD 
HETATM   19  C   UNL     1      -6.508  17.027  70.182  1.00  0.00     0.348 A  
HETATM   20  C   UNL     1      -5.534  16.365  70.820  1.00  0.00    -0.056 A  
HETATM   21  N   UNL     1      -5.245  15.037  70.606  1.00  0.00    -0.125 NA 
HETATM   22  H1  UNL     1      -4.774  12.628  70.030  1.00  0.00     0.000 HD 
BRANCH  13  23
HETATM   23  C   UNL     1      -8.490  13.211  67.823  1.00  0.00    -0.185 A  
HETATM   24  C   UNL     1      -9.030  10.556  66.970  1.00  0.00    -0.149 A  
HETATM   25  C   UNL     1      -8.000  11.298  66.378  1.00  0.00    -0.125 A  
HETATM   26  C   UNL     1      -9.566  12.480  68.354  1.00  0.00    -0.176 A  
HETATM   27  C   UNL     1      -7.740  12.615  66.801  1.00  0.00     0.208 A  
HETATM   28  C   UNL     1      -9.819  11.155  67.953  1.00  0.00    -0.187 A  
BRANCH  24  29
HETATM   29  C   UNL     1      -9.217   9.126  66.579  1.00  0.00    -0.175 C  
HETATM   30  H   UNL     1      -8.356   8.507  68.366  1.00  0.00     0.000 HD 
HETATM   31  O   UNL     1      -9.735   8.876  65.498  1.00  0.00    -0.147 OA 
HETATM   32  N   UNL     1      -8.843   8.191  67.527  1.00  0.00    -0.134 N  
BRANCH  32  33
HETATM   33  C   UNL     1      -9.111   6.824  67.375  1.00  0.00    -0.117 A  
HETATM   34  C   UNL     1     -10.330   6.353  66.895  1.00  0.00    -0.306 A  
HETATM   35  C   UNL     1     -10.541   4.976  66.839  1.00  0.00    -0.183 A  
HETATM   36  C   UNL     1      -9.547   4.119  67.292  1.00  0.00    -0.228 A  
HETATM   37  C   UNL     1      -8.355   4.678  67.725  1.00  0.00    -0.103 A  
HETATM   38  N   UNL     1      -8.099   6.007  67.731  1.00  0.00    -0.108 NA 
ENDBRANCH  32  33
ENDBRANCH  24  29
ENDBRANCH  13  23
ENDBRANCH  10  11
ENDBRANCH   3   4
TORSDOF 5
ENDMDL
MODEL       59
REMARK 921   NORMALIZED FREE ENERGY PREDICTED BY IDOCK:   -5.55 KCAL/MOL
REMARK 922        TOTAL FREE ENERGY PREDICTED BY IDOCK:   -6.65 KCAL/MOL
REMARK 923 INTER-LIGAND FREE ENERGY PREDICTED BY IDOCK:   -7.08 KCAL/MOL
REMARK 924 INTRA-LIGAND FREE ENERGY PREDICTED BY IDOCK:    0.43 KCAL/MOL
REMARK 927      BINDING AFFINITY PREDICTED BY RF-SCORE:    0.00 PKD
ROOT
HETATM    1  C   UNL     1     -13.443  14.925  71.484  1.00  0.00    -0.491 C  
HETATM    2  C   UNL     1     -12.511  15.533  70.450  1.00  0.00    -0.443 C  
HETATM    3  C   UNL     1     -11.711  16.055  69.562  1.00  0.00    -0.275 C  
ENDROOT
BRANCH   3   4
HETATM    4  C   UNL     1     -10.883  16.681  68.546  1.00  0.00    -0.356 C  
HETATM    5  O   UNL     1     -10.443  17.800  68.781  1.00  0.00    -0.343 OA 
HETATM    6  N   UNL     1     -10.702  16.034  67.339  1.00  0.00    -0.316 N  
HETATM    7  C   UNL     1     -10.183  16.732  66.179  1.00  0.00    -0.351 C  
HETATM    8  C   UNL     1     -11.021  16.176  65.042  1.00  0.00    -0.357 C  
HETATM    9  C   UNL     1     -11.344  14.740  65.455  1.00  0.00    -0.356 C  
HETATM   10  C   UNL     1     -11.101  14.678  66.976  1.00  0.00    -0.333 C  
BRANCH  10  11
HETATM   11  C   UNL     1      -9.986  13.697  67.271  1.00  0.00    -0.240 A  
HETATM   12  N   UNL     1     -10.124  12.431  67.644  1.00  0.00    -0.196 NA 
HETATM   13  C   UNL     1      -8.856  11.956  67.940  1.00  0.00    -0.172 A  
HETATM   14  N   UNL     1      -5.608  12.030  67.886  1.00  0.00    -0.053 NA 
HETATM   15  C   UNL     1      -7.920  12.942  67.672  1.00  0.00    -0.167 A  
HETATM   16  C   UNL     1      -6.477  13.066  67.705  1.00  0.00    -0.160 A  
HETATM   17  N   UNL     1      -8.656  14.060  67.321  1.00  0.00    -0.208 NA 
HETATM   18  H2  UNL     1      -6.004  11.098  68.007  1.00  0.00     0.000 HD 
HETATM   19  C   UNL     1      -8.024  15.276  67.118  1.00  0.00    -0.218 A  
HETATM   20  C   UNL     1      -6.691  15.329  67.243  1.00  0.00    -0.024 A  
HETATM   21  N   UNL     1      -5.904  14.234  67.512  1.00  0.00    -0.352 NA 
HETATM   22  H1  UNL     1      -4.592  12.118  67.910  1.00  0.00     0.000 HD 
BRANCH  13  23
HETATM   23  C   UNL     1      -8.643  10.596  68.444  1.00  0.00    -0.134 A  
HETATM   24  C   UNL     1      -8.338   7.972  69.490  1.00  0.00    -0.127 A  
HETATM   25  C   UNL     1      -8.421   9.076  70.349  1.00  0.00    -0.201 A  
HETATM   26  C   UNL     1      -8.482   9.487  67.596  1.00  0.00    -0.122 A  
HETATM   27  C   UNL     1      -8.569  10.374  69.825  1.00  0.00     0.018 A  
HETATM   28  C   UNL     1      -8.357   8.184  68.111  1.00  0.00    -0.129 A  
BRANCH  24  29
HETATM   29  C   UNL     1      -8.290   6.597  70.070  1.00  0.00    -0.135 C  
HETATM   30  H   UNL     1      -9.597   5.915  68.607  1.00  0.00     0.000 HD 
HETATM   31  O   UNL     1      -7.597   6.401  71.061  1.00  0.00    -0.086 OA 
HETATM   32  N   UNL     1      -8.995   5.629  69.379  1.00  0.00    -0.114 N  
BRANCH  32  33
HETATM   33  C   UNL     1      -8.912   4.268  69.703  1.00  0.00    -0.102 A  
HETATM   34  C   UNL     1      -8.081   3.388  69.014  1.00  0.00    -0.071 A  
HETATM   35  C   UNL     1      -8.108   2.037  69.354  1.00  0.00    -0.061 A  
HETATM   36  C   UNL     1      -8.982   1.604  70.342  1.00  0.00    -0.133 A  
HETATM   37  C   UNL     1      -9.749   2.556  70.994  1.00  0.00    -0.085 A  
HETATM   38  N   UNL     1      -9.697   3.882  70.728  1.00  0.00    -0.191 NA 
ENDBRANCH  32  33
ENDBRANCH  24  29
ENDBRANCH  13  23
ENDBRANCH  10  11
ENDBRANCH   3   4
TORSDOF 5
ENDMDL
MODEL       60
REMARK 921   NORMALIZED FREE ENERGY PREDICTED BY IDOCK:   -5.49 KCAL/MOL
REMARK 922        TOTAL FREE ENERGY PREDICTED BY IDOCK:   -6.58 KCAL/MOL
REMARK 923 INTER-LIGAND FREE ENERGY PREDICTED BY IDOCK:   -7.80 KCAL/MOL
REMARK 924 INTRA-LIGAND FREE ENERGY PREDICTED BY IDOCK:    1.22 KCAL/MOL
REMARK 927      BINDING AFFINITY PREDICTED BY RF-SCORE:    0.00 PKD
ROOT
HETATM    1  C   UNL     1      -9.236  10.762  62.421  1.00  0.00    -0.307 C  
HETATM    2  C   UNL     1      -8.182   9.945  63.150  1.00  0.00    -0.155 C  
HETATM    3  C   UNL     1      -7.278   9.245  63.777  1.00  0.00    -0.095 C  
ENDROOT
BRANCH   3   4
HETATM    4  C   UNL     1      -6.308   8.483  64.544  1.00  0.00    -0.066 C  
HETATM    5  O   UNL     1      -5.225   9.008  64.773  1.00  0.00    -0.041 OA 
HETATM    6  N   UNL     1      -6.611   7.183  64.902  1.00  0.00    -0.043 N  
HETATM    7  C   UNL     1      -5.584   6.269  65.361  1.00  0.00    -0.017 C  
HETATM    8  C   UNL     1      -5.972   4.959  64.697  1.00  0.00    -0.021 C  
HETATM    9  C   UNL     1      -7.497   5.001  64.601  1.00  0.00    -0.075 C  
HETATM   10  C   UNL     1      -7.884   6.484  64.762  1.00  0.00    -0.112 C  
BRANCH  10  11
HETATM   11  C   UNL     1      -8.727   6.655  66.008  1.00  0.00    -0.147 A  
HETATM   12  N   UNL     1      -9.301   7.775  66.428  1.00  0.00    -0.189 NA 
HETATM   13  C   UNL     1      -9.849   7.506  67.673  1.00  0.00    -0.161 A  
HETATM   14  N   UNL     1     -10.905   5.568  70.058  1.00  0.00    -0.294 NA 
HETATM   15  C   UNL     1      -9.661   6.168  67.980  1.00  0.00    -0.120 A  
HETATM   16  C   UNL     1     -10.030   5.269  69.055  1.00  0.00    -0.189 A  
HETATM   17  N   UNL     1      -8.886   5.662  66.952  1.00  0.00    -0.113 NA 
HETATM   18  H2  UNL     1     -11.331   6.496  70.052  1.00  0.00     0.000 HD 
HETATM   19  C   UNL     1      -8.398   4.366  67.019  1.00  0.00    -0.101 A  
HETATM   20  C   UNL     1      -8.719   3.620  68.084  1.00  0.00    -0.105 A  
HETATM   21  N   UNL     1      -9.549   4.046  69.095  1.00  0.00    -0.180 NA 
HETATM   22  H1  UNL     1     -11.164   4.935  70.814  1.00  0.00     0.000 HD 
BRANCH  13  23
HETATM   23  C   UNL     1     -10.517   8.548  68.459  1.00  0.00    -0.205 A  
HETATM   24  C   UNL     1     -11.719  10.555  70.071  1.00  0.00    -0.394 A  
HETATM   25  C   UNL     1     -11.470   9.279  70.591  1.00  0.00    -0.327 A  
HETATM   26  C   UNL     1     -10.842   9.808  67.931  1.00  0.00    -0.298 A  
HETATM   27  C   UNL     1     -10.878   8.287  69.788  1.00  0.00    -0.186 A  
HETATM   28  C   UNL     1     -11.414  10.813  68.733  1.00  0.00    -0.364 A  
BRANCH  24  29
HETATM   29  C   UNL     1     -12.249  11.621  70.973  1.00  0.00    -0.231 C  
HETATM   30  H   UNL     1     -11.103  13.047  69.987  1.00  0.00     0.000 HD 
HETATM   31  O   UNL     1     -13.050  11.309  71.844  1.00  0.00    -0.493 OA 
HETATM   32  N   UNL     1     -11.828  12.909  70.691  1.00  0.00    -0.111 N  
BRANCH  32  33
HETATM   33  C   UNL     1     -12.365  14.029  71.339  1.00  0.00    -0.326 A  
HETATM   34  C   UNL     1     -11.564  15.005  71.926  1.00  0.00    -0.426 A  
HETATM   35  C   UNL     1     -12.178  16.053  72.611  1.00  0.00    -0.619 A  
HETATM   36  C   UNL     1     -13.562  16.075  72.716  1.00  0.00    -0.462 A  
HETATM   37  C   UNL     1     -14.278  15.077  72.074  1.00  0.00    -0.555 A  
HETATM   38  N   UNL     1     -13.712  14.085  71.349  1.00  0.00    -0.274 NA 
ENDBRANCH  32  33
ENDBRANCH  24  29
ENDBRANCH  13  23
ENDBRANCH  10  11
ENDBRANCH   3   4
TORSDOF 5
ENDMDL
MODEL       61
REMARK 921   NORMALIZED FREE ENERGY PREDICTED BY IDOCK:   -5.37 KCAL/MOL
REMARK 922        TOTAL FREE ENERGY PREDICTED BY IDOCK:   -6.42 KCAL/MOL
REMARK 923 INTER-LIGAND FREE ENERGY PREDICTED BY IDOCK:   -5.79 KCAL/MOL
REMARK 924 INTRA-LIGAND FREE ENERGY PREDICTED BY IDOCK:   -0.63 KCAL/MOL
REMARK 927      BINDING AFFINITY PREDICTED BY RF-SCORE:    0.00 PKD
ROOT
HETATM    1  C   UNL     1     -10.961  16.631  64.712  1.00  0.00    -0.123 C  
HETATM    2  C   UNL     1     -10.160  16.583  66.002  1.00  0.00    -0.368 C  
HETATM    3  C   UNL     1      -9.473  16.542  67.110  1.00  0.00    -0.246 C  
ENDROOT
BRANCH   3   4
HETATM    4  C   UNL     1      -8.684  16.421  68.323  1.00  0.00    -0.201 C  
HETATM    5  O   UNL     1      -8.850  17.264  69.196  1.00  0.00    -0.135 OA 
HETATM    6  N   UNL     1      -7.728  15.426  68.402  1.00  0.00    -0.117 N  
HETATM    7  C   UNL     1      -6.693  15.454  69.417  1.00  0.00    -0.166 C  
HETATM    8  C   UNL     1      -5.461  14.986  68.662  1.00  0.00    -0.093 C  
HETATM    9  C   UNL     1      -5.991  14.019  67.603  1.00  0.00    -0.048 C  
HETATM   10  C   UNL     1      -7.496  14.325  67.474  1.00  0.00    -0.182 C  
BRANCH  10  11
HETATM   11  C   UNL     1      -8.297  13.106  67.881  1.00  0.00    -0.170 A  
HETATM   12  N   UNL     1      -7.862  12.073  68.590  1.00  0.00    -0.121 NA 
HETATM   13  C   UNL     1      -8.881  11.133  68.603  1.00  0.00    -0.155 A  
HETATM   14  N   UNL     1     -11.945  10.120  68.215  1.00  0.00    -0.384 NA 
HETATM   15  C   UNL     1      -9.987  11.643  67.942  1.00  0.00    -0.182 A  
HETATM   16  C   UNL     1     -11.343  11.214  67.664  1.00  0.00    -0.284 A  
HETATM   17  N   UNL     1      -9.577  12.860  67.427  1.00  0.00    -0.198 NA 
HETATM   18  H2  UNL     1     -11.399   9.563  68.872  1.00  0.00     0.000 HD 
HETATM   19  C   UNL     1     -10.412  13.579  66.586  1.00  0.00    -0.274 A  
HETATM   20  C   UNL     1     -11.624  13.079  66.313  1.00  0.00    -0.360 A  
HETATM   21  N   UNL     1     -12.112  11.914  66.859  1.00  0.00    -0.505 NA 
HETATM   22  H1  UNL     1     -12.899   9.819  68.018  1.00  0.00     0.000 HD 
BRANCH  13  23
HETATM   23  C   UNL     1      -8.717   9.831  69.256  1.00  0.00    -0.165 A  
HETATM   24  C   UNL     1      -8.519   7.318  70.566  1.00  0.00    -0.138 A  
HETATM   25  C   UNL     1      -8.847   8.473  71.288  1.00  0.00    -0.240 A  
HETATM   26  C   UNL     1      -8.317   8.677  68.562  1.00  0.00    -0.123 A  
HETATM   27  C   UNL     1      -8.940   9.716  70.635  1.00  0.00    -0.103 A  
HETATM   28  C   UNL     1      -8.243   7.426  69.202  1.00  0.00    -0.121 A  
BRANCH  24  29
HETATM   29  C   UNL     1      -8.532   5.995  71.259  1.00  0.00    -0.128 C  
HETATM   30  H   UNL     1      -6.529   5.708  70.786  1.00  0.00     0.000 HD 
HETATM   31  O   UNL     1      -9.573   5.614  71.778  1.00  0.00    -0.155 OA 
HETATM   32  N   UNL     1      -7.318   5.334  71.314  1.00  0.00    -0.080 N  
BRANCH  32  33
HETATM   33  C   UNL     1      -7.134   4.169  72.070  1.00  0.00    -0.051 A  
HETATM   34  C   UNL     1      -6.631   4.194  73.367  1.00  0.00    -0.050 A  
HETATM   35  C   UNL     1      -6.414   2.985  74.026  1.00  0.00    -0.029 A  
HETATM   36  C   UNL     1      -6.672   1.795  73.359  1.00  0.00    -0.018 A  
HETATM   37  C   UNL     1      -7.199   1.868  72.080  1.00  0.00    -0.038 A  
HETATM   38  N   UNL     1      -7.480   3.027  71.441  1.00  0.00    -0.040 NA 
ENDBRANCH  32  33
ENDBRANCH  24  29
ENDBRANCH  13  23
ENDBRANCH  10  11
ENDBRANCH   3   4
TORSDOF 5
ENDMDL
MODEL       62
REMARK 921   NORMALIZED FREE ENERGY PREDICTED BY IDOCK:   -5.36 KCAL/MOL
REMARK 922        TOTAL FREE ENERGY PREDICTED BY IDOCK:   -6.41 KCAL/MOL
REMARK 923 INTER-LIGAND FREE ENERGY PREDICTED BY IDOCK:   -7.24 KCAL/MOL
REMARK 924 INTRA-LIGAND FREE ENERGY PREDICTED BY IDOCK:    0.84 KCAL/MOL
REMARK 927      BINDING AFFINITY PREDICTED BY RF-SCORE:    0.00 PKD
ROOT
HETATM    1  C   UNL     1      -5.986  17.262  66.683  1.00  0.00    -0.242 C  
HETATM    2  C   UNL     1      -7.477  17.186  66.968  1.00  0.00    -0.223 C  
HETATM    3  C   UNL     1      -8.757  17.121  67.212  1.00  0.00    -0.213 C  
ENDROOT
BRANCH   3   4
HETATM    4  C   UNL     1     -10.175  17.118  67.525  1.00  0.00    -0.323 C  
HETATM    5  O   UNL     1     -10.855  18.038  67.087  1.00  0.00    -0.312 OA 
HETATM    6  N   UNL     1     -10.672  16.141  68.365  1.00  0.00    -0.283 N  
HETATM    7  C   UNL     1     -11.979  16.270  68.981  1.00  0.00     0.063 C  
HETATM    8  C   UNL     1     -11.747  15.741  70.386  1.00  0.00    -0.390 C  
HETATM    9  C   UNL     1     -10.661  14.676  70.234  1.00  0.00     0.082 C  
HETATM   10  C   UNL     1      -9.987  14.959  68.878  1.00  0.00    -0.233 C  
BRANCH  10  11
HETATM   11  C   UNL     1     -10.194  13.779  67.952  1.00  0.00    -0.245 A  
HETATM   12  N   UNL     1      -9.837  12.522  68.180  1.00  0.00    -0.217 NA 
HETATM   13  C   UNL     1     -10.091  11.812  67.016  1.00  0.00    -0.209 A  
HETATM   14  N   UNL     1     -11.445  11.345  64.100  1.00  0.00    -0.309 NA 
HETATM   15  C   UNL     1     -10.683  12.649  66.085  1.00  0.00    -0.267 A  
HETATM   16  C   UNL     1     -11.229  12.526  64.748  1.00  0.00    -0.306 A  
HETATM   17  N   UNL     1     -10.674  13.906  66.664  1.00  0.00    -0.280 NA 
HETATM   18  H2  UNL     1     -11.204  10.485  64.592  1.00  0.00     0.000 HD 
HETATM   19  C   UNL     1     -11.076  15.014  65.935  1.00  0.00    -0.334 A  
HETATM   20  C   UNL     1     -11.496  14.829  64.677  1.00  0.00    -0.381 A  
HETATM   21  N   UNL     1     -11.600  13.595  64.079  1.00  0.00    -0.355 NA 
HETATM   22  H1  UNL     1     -11.830  11.259  63.159  1.00  0.00     0.000 HD 
BRANCH  13  23
HETATM   23  C   UNL     1      -9.757  10.389  66.896  1.00  0.00    -0.223 A  
HETATM   24  C   UNL     1      -9.021   7.649  66.753  1.00  0.00    -0.166 A  
HETATM   25  C   UNL     1      -8.069   8.654  66.536  1.00  0.00    -0.103 A  
HETATM   26  C   UNL     1     -10.713   9.370  67.036  1.00  0.00    -0.207 A  
HETATM   27  C   UNL     1      -8.440  10.010  66.604  1.00  0.00    -0.126 A  
HETATM   28  C   UNL     1     -10.347   8.012  66.992  1.00  0.00    -0.414 A  
BRANCH  24  29
HETATM   29  C   UNL     1      -8.582   6.222  66.781  1.00  0.00    -0.116 C  
HETATM   30  H   UNL     1     -10.183   5.688  65.569  1.00  0.00     0.000 HD 
HETATM   31  O   UNL     1      -7.581   5.928  67.421  1.00  0.00    -0.093 OA 
HETATM   32  N   UNL     1      -9.325   5.350  66.006  1.00  0.00    -0.158 N  
BRANCH  32  33
HETATM   33  C   UNL     1      -8.940   4.019  65.799  1.00  0.00    -0.131 A  
HETATM   34  C   UNL     1      -9.170   3.022  66.742  1.00  0.00    -0.164 A  
HETATM   35  C   UNL     1      -8.694   1.736  66.489  1.00  0.00    -0.119 A  
HETATM   36  C   UNL     1      -7.978   1.497  65.324  1.00  0.00    -0.073 A  
HETATM   37  C   UNL     1      -7.824   2.544  64.429  1.00  0.00    -0.077 A  
HETATM   38  N   UNL     1      -8.330   3.784  64.620  1.00  0.00    -0.096 NA 
ENDBRANCH  32  33
ENDBRANCH  24  29
ENDBRANCH  13  23
ENDBRANCH  10  11
ENDBRANCH   3   4
TORSDOF 5
ENDMDL
MODEL       63
REMARK 921   NORMALIZED FREE ENERGY PREDICTED BY IDOCK:   -5.34 KCAL/MOL
REMARK 922        TOTAL FREE ENERGY PREDICTED BY IDOCK:   -6.38 KCAL/MOL
REMARK 923 INTER-LIGAND FREE ENERGY PREDICTED BY IDOCK:   -6.11 KCAL/MOL
REMARK 924 INTRA-LIGAND FREE ENERGY PREDICTED BY IDOCK:   -0.28 KCAL/MOL
REMARK 927      BINDING AFFINITY PREDICTED BY RF-SCORE:    0.00 PKD
ROOT
HETATM    1  C   UNL     1     -10.008  19.286  69.190  1.00  0.00    -0.373 C  
HETATM    2  C   UNL     1      -9.742  18.100  68.278  1.00  0.00    -0.344 C  
HETATM    3  C   UNL     1      -9.513  17.082  67.496  1.00  0.00    -0.246 C  
ENDROOT
BRANCH   3   4
HETATM    4  C   UNL     1      -9.319  15.974  66.577  1.00  0.00    -0.268 C  
HETATM    5  O   UNL     1      -8.240  15.892  66.004  1.00  0.00    -0.119 OA 
HETATM    6  N   UNL     1     -10.378  15.123  66.324  1.00  0.00    -0.282 N  
HETATM    7  C   UNL     1     -10.365  14.221  65.189  1.00  0.00    -0.415 C  
HETATM    8  C   UNL     1     -11.795  14.291  64.681  1.00  0.00    -0.459 C  
HETATM    9  C   UNL     1     -12.645  14.540  65.927  1.00  0.00    -0.157 C  
HETATM   10  C   UNL     1     -11.671  15.069  66.998  1.00  0.00    -0.188 C  
BRANCH  10  11
HETATM   11  C   UNL     1     -11.625  14.103  68.163  1.00  0.00    -0.331 A  
HETATM   12  N   UNL     1     -10.963  12.955  68.214  1.00  0.00    -0.244 NA 
HETATM   13  C   UNL     1     -11.316  12.337  69.404  1.00  0.00    -0.228 A  
HETATM   14  N   UNL     1     -12.564  12.240  72.403  1.00  0.00     0.397 NA 
HETATM   15  C   UNL     1     -12.160  13.168  70.123  1.00  0.00    -0.321 A  
HETATM   16  C   UNL     1     -12.812  13.150  71.417  1.00  0.00    -0.311 A  
HETATM   17  N   UNL     1     -12.405  14.248  69.292  1.00  0.00    -0.245 NA 
HETATM   18  H2  UNL     1     -11.866  11.520  72.216  1.00  0.00     0.000 HD 
HETATM   19  C   UNL     1     -13.331  15.213  69.657  1.00  0.00     1.025 A  
HETATM   20  C   UNL     1     -13.952  15.085  70.837  1.00  0.00    -0.136 A  
HETATM   21  N   UNL     1     -13.689  14.076  71.735  1.00  0.00    -0.388 NA 
HETATM   22  H1  UNL     1     -13.024  12.227  73.313  1.00  0.00     0.000 HD 
BRANCH  13  23
HETATM   23  C   UNL     1     -10.807  11.009  69.761  1.00  0.00    -0.205 A  
HETATM   24  C   UNL     1      -9.928   8.386  70.406  1.00  0.00    -0.199 A  
HETATM   25  C   UNL     1     -11.139   8.876  70.913  1.00  0.00    -0.328 A  
HETATM   26  C   UNL     1      -9.561  10.530  69.323  1.00  0.00    -0.199 A  
HETATM   27  C   UNL     1     -11.567  10.178  70.593  1.00  0.00    -0.429 A  
HETATM   28  C   UNL     1      -9.134   9.222  69.619  1.00  0.00    -0.173 A  
BRANCH  24  29
HETATM   29  C   UNL     1      -9.547   6.966  70.670  1.00  0.00    -0.169 C  
HETATM   30  H   UNL     1      -9.055   6.707  68.669  1.00  0.00     0.000 HD 
HETATM   31  O   UNL     1      -9.652   6.532  71.810  1.00  0.00    -0.154 OA 
HETATM   32  N   UNL     1      -9.032   6.272  69.591  1.00  0.00    -0.135 N  
BRANCH  32  33
HETATM   33  C   UNL     1      -8.478   4.991  69.720  1.00  0.00    -0.088 A  
HETATM   34  C   UNL     1      -9.018   3.878  69.083  1.00  0.00    -0.172 A  
HETATM   35  C   UNL     1      -8.447   2.628  69.319  1.00  0.00    -0.099 A  
HETATM   36  C   UNL     1      -7.383   2.526  70.205  1.00  0.00    -0.036 A  
HETATM   37  C   UNL     1      -6.893   3.693  70.770  1.00  0.00    -0.033 A  
HETATM   38  N   UNL     1      -7.386   4.925  70.509  1.00  0.00    -0.053 NA 
ENDBRANCH  32  33
ENDBRANCH  24  29
ENDBRANCH  13  23
ENDBRANCH  10  11
ENDBRANCH   3   4
TORSDOF 5
ENDMDL
MODEL       64
REMARK 921   NORMALIZED FREE ENERGY PREDICTED BY IDOCK:   -5.28 KCAL/MOL
REMARK 922        TOTAL FREE ENERGY PREDICTED BY IDOCK:   -6.30 KCAL/MOL
REMARK 923 INTER-LIGAND FREE ENERGY PREDICTED BY IDOCK:   -6.54 KCAL/MOL
REMARK 924 INTRA-LIGAND FREE ENERGY PREDICTED BY IDOCK:    0.24 KCAL/MOL
REMARK 927      BINDING AFFINITY PREDICTED BY RF-SCORE:    0.00 PKD
ROOT
HETATM    1  C   UNL     1      -8.492   7.905  64.906  1.00  0.00    -0.045 C  
HETATM    2  C   UNL     1      -7.938   6.803  65.794  1.00  0.00    -0.112 C  
HETATM    3  C   UNL     1      -7.463   5.858  66.555  1.00  0.00    -0.087 C  
ENDROOT
BRANCH   3   4
HETATM    4  C   UNL     1      -6.934   4.857  67.465  1.00  0.00    -0.061 C  
HETATM    5  O   UNL     1      -5.727   4.859  67.673  1.00  0.00    -0.016 OA 
HETATM    6  N   UNL     1      -7.791   3.903  67.981  1.00  0.00    -0.073 N  
HETATM    7  C   UNL     1      -7.286   2.698  68.609  1.00  0.00    -0.048 C  
HETATM    8  C   UNL     1      -8.241   1.627  68.111  1.00  0.00    -0.070 C  
HETATM    9  C   UNL     1      -9.580   2.344  67.935  1.00  0.00    -0.057 C  
HETATM   10  C   UNL     1      -9.244   3.846  67.874  1.00  0.00    -0.165 C  
BRANCH  10  11
HETATM   11  C   UNL     1      -9.893   4.558  69.043  1.00  0.00    -0.132 A  
HETATM   12  N   UNL     1     -10.443   5.765  69.029  1.00  0.00    -0.243 NA 
HETATM   13  C   UNL     1     -10.782   6.071  70.338  1.00  0.00    -0.292 A  
HETATM   14  N   UNL     1     -11.375   5.372  73.456  1.00  0.00    -0.468 NA 
HETATM   15  C   UNL     1     -10.492   4.989  71.154  1.00  0.00    -0.135 A  
HETATM   16  C   UNL     1     -10.653   4.647  72.553  1.00  0.00    -0.179 A  
HETATM   17  N   UNL     1      -9.862   4.070  70.334  1.00  0.00    -0.188 NA 
HETATM   18  H2  UNL     1     -11.837   6.218  73.120  1.00  0.00     0.000 HD 
HETATM   19  C   UNL     1      -9.314   2.916  70.870  1.00  0.00    -0.150 A  
HETATM   20  C   UNL     1      -9.436   2.707  72.188  1.00  0.00    -0.110 A  
HETATM   21  N   UNL     1     -10.119   3.547  73.036  1.00  0.00    -0.142 NA 
HETATM   22  H1  UNL     1     -11.488   5.131  74.440  1.00  0.00     0.000 HD 
BRANCH  13  23
HETATM   23  C   UNL     1     -11.366   7.367  70.698  1.00  0.00    -0.304 A  
HETATM   24  C   UNL     1     -12.520   9.832  71.512  1.00  0.00    -0.495 A  
HETATM   25  C   UNL     1     -13.246   8.638  71.612  1.00  0.00    -0.381 A  
HETATM   26  C   UNL     1     -10.679   8.582  70.534  1.00  0.00    -0.246 A  
HETATM   27  C   UNL     1     -12.671   7.420  71.204  1.00  0.00    -0.318 A  
HETATM   28  C   UNL     1     -11.238   9.801  70.961  1.00  0.00    -0.451 A  
BRANCH  24  29
HETATM   29  C   UNL     1     -13.110  11.093  72.051  1.00  0.00    -0.328 C  
HETATM   30  H   UNL     1     -11.499  12.181  71.316  1.00  0.00     0.000 HD 
HETATM   31  O   UNL     1     -14.177  11.034  72.649  1.00  0.00     0.767 OA 
HETATM   32  N   UNL     1     -12.415  12.253  71.759  1.00  0.00     0.031 N  
BRANCH  32  33
HETATM   33  C   UNL     1     -12.927  13.525  72.051  1.00  0.00    -0.324 A  
HETATM   34  C   UNL     1     -12.581  14.220  73.206  1.00  0.00    -0.202 A  
HETATM   35  C   UNL     1     -13.187  15.450  73.455  1.00  0.00    -0.482 A  
HETATM   36  C   UNL     1     -14.139  15.928  72.565  1.00  0.00    -0.368 A  
HETATM   37  C   UNL     1     -14.397  15.182  71.426  1.00  0.00    -0.499 A  
HETATM   38  N   UNL     1     -13.777  14.017  71.128  1.00  0.00    -0.167 NA 
ENDBRANCH  32  33
ENDBRANCH  24  29
ENDBRANCH  13  23
ENDBRANCH  10  11
ENDBRANCH   3   4
TORSDOF 5
ENDMDL
MODEL       65
REMARK 921   NORMALIZED FREE ENERGY PREDICTED BY IDOCK:   -5.28 KCAL/MOL
REMARK 922        TOTAL FREE ENERGY PREDICTED BY IDOCK:   -6.30 KCAL/MOL
REMARK 923 INTER-LIGAND FREE ENERGY PREDICTED BY IDOCK:   -6.85 KCAL/MOL
REMARK 924 INTRA-LIGAND FREE ENERGY PREDICTED BY IDOCK:    0.56 KCAL/MOL
REMARK 927      BINDING AFFINITY PREDICTED BY RF-SCORE:    0.00 PKD
ROOT
HETATM    1  C   UNL     1      -8.231   6.262  62.894  1.00  0.00    -0.026 C  
HETATM    2  C   UNL     1      -7.953   5.746  64.296  1.00  0.00    -0.125 C  
HETATM    3  C   UNL     1      -7.714   5.304  65.500  1.00  0.00    -0.087 C  
ENDROOT
BRANCH   3   4
HETATM    4  C   UNL     1      -7.389   4.866  66.846  1.00  0.00    -0.085 C  
HETATM    5  O   UNL     1      -6.344   4.247  67.006  1.00  0.00    -0.038 OA 
HETATM    6  N   UNL     1      -8.303   5.086  67.859  1.00  0.00    -0.101 N  
HETATM    7  C   UNL     1      -8.203   4.392  69.128  1.00  0.00    -0.071 C  
HETATM    8  C   UNL     1      -9.650   4.067  69.455  1.00  0.00    -0.257 C  
HETATM    9  C   UNL     1     -10.459   5.211  68.845  1.00  0.00    -0.131 C  
HETATM   10  C   UNL     1      -9.530   5.874  67.810  1.00  0.00    -0.113 C  
BRANCH  10  11
HETATM   11  C   UNL     1      -9.259   7.308  68.216  1.00  0.00    -0.133 A  
HETATM   12  N   UNL     1      -9.960   8.377  67.863  1.00  0.00    -0.174 NA 
HETATM   13  C   UNL     1      -9.278   9.484  68.343  1.00  0.00    -0.130 A  
HETATM   14  N   UNL     1      -7.099  11.006  70.212  1.00  0.00    -0.454 NA 
HETATM   15  C   UNL     1      -8.172   9.067  69.066  1.00  0.00    -0.119 A  
HETATM   16  C   UNL     1      -7.123   9.692  69.847  1.00  0.00    -0.095 A  
HETATM   17  N   UNL     1      -8.132   7.693  68.914  1.00  0.00    -0.125 NA 
HETATM   18  H2  UNL     1      -7.878  11.593  69.913  1.00  0.00     0.000 HD 
HETATM   19  C   UNL     1      -7.059   6.967  69.406  1.00  0.00    -0.079 A  
HETATM   20  C   UNL     1      -6.087   7.626  70.051  1.00  0.00    -0.026 A  
HETATM   21  N   UNL     1      -6.115   8.979  70.299  1.00  0.00    -0.037 NA 
HETATM   22  H1  UNL     1      -6.360  11.445  70.761  1.00  0.00     0.000 HD 
BRANCH  13  23
HETATM   23  C   UNL     1      -9.747  10.848  68.081  1.00  0.00    -0.174 A  
HETATM   24  C   UNL     1     -10.634  13.520  67.695  1.00  0.00    -0.246 A  
HETATM   25  C   UNL     1     -11.236  12.702  68.661  1.00  0.00    -0.323 A  
HETATM   26  C   UNL     1      -9.206  11.657  67.067  1.00  0.00    -0.185 A  
HETATM   27  C   UNL     1     -10.795  11.378  68.845  1.00  0.00    -0.259 A  
HETATM   28  C   UNL     1      -9.625  12.989  66.891  1.00  0.00    -0.243 A  
BRANCH  24  29
HETATM   29  C   UNL     1     -11.046  14.952  67.592  1.00  0.00    -0.311 C  
HETATM   30  H   UNL     1      -9.089  15.556  67.940  1.00  0.00     0.000 HD 
HETATM   31  O   UNL     1     -12.222  15.210  67.374  1.00  0.00     0.040 OA 
HETATM   32  N   UNL     1     -10.023  15.878  67.686  1.00  0.00    -0.235 N  
BRANCH  32  33
HETATM   33  C   UNL     1     -10.226  17.243  67.444  1.00  0.00    -0.325 A  
HETATM   34  C   UNL     1     -10.491  17.742  66.172  1.00  0.00    -0.301 A  
HETATM   35  C   UNL     1     -10.612  19.121  66.005  1.00  0.00    -0.524 A  
HETATM   36  C   UNL     1     -10.433  19.954  67.100  1.00  0.00    -0.566 A  
HETATM   37  C   UNL     1     -10.202  19.366  68.334  1.00  0.00    -0.418 A  
HETATM   38  N   UNL     1     -10.143  18.029  68.536  1.00  0.00    -0.377 NA 
ENDBRANCH  32  33
ENDBRANCH  24  29
ENDBRANCH  13  23
ENDBRANCH  10  11
ENDBRANCH   3   4
TORSDOF 5
ENDMDL
MODEL       66
REMARK 921   NORMALIZED FREE ENERGY PREDICTED BY IDOCK:   -5.26 KCAL/MOL
REMARK 922        TOTAL FREE ENERGY PREDICTED BY IDOCK:   -6.27 KCAL/MOL
REMARK 923 INTER-LIGAND FREE ENERGY PREDICTED BY IDOCK:   -7.77 KCAL/MOL
REMARK 924 INTRA-LIGAND FREE ENERGY PREDICTED BY IDOCK:    1.50 KCAL/MOL
REMARK 927      BINDING AFFINITY PREDICTED BY RF-SCORE:    0.00 PKD
ROOT
HETATM    1  C   UNL     1     -11.790  14.595  70.371  1.00  0.00    -0.365 C  
HETATM    2  C   UNL     1     -11.202  14.557  68.970  1.00  0.00    -0.289 C  
HETATM    3  C   UNL     1     -10.697  14.525  67.768  1.00  0.00    -0.256 C  
ENDROOT
BRANCH   3   4
HETATM    4  C   UNL     1     -10.190  14.432  66.411  1.00  0.00    -0.289 C  
HETATM    5  O   UNL     1      -9.333  15.237  66.067  1.00  0.00    -0.307 OA 
HETATM    6  N   UNL     1     -10.753  13.510  65.549  1.00  0.00    -0.283 N  
HETATM    7  C   UNL     1     -10.540  13.589  64.117  1.00  0.00    -0.158 C  
HETATM    8  C   UNL     1     -11.904  13.235  63.549  1.00  0.00    -0.477 C  
HETATM    9  C   UNL     1     -12.510  12.258  64.557  1.00  0.00    -0.464 C  
HETATM   10  C   UNL     1     -11.710  12.454  65.860  1.00  0.00    -0.419 C  
BRANCH  10  11
HETATM   11  C   UNL     1     -10.990  11.168  66.210  1.00  0.00    -0.163 A  
HETATM   12  N   UNL     1     -11.006  10.545  67.381  1.00  0.00    -0.301 NA 
HETATM   13  C   UNL     1     -10.104   9.496  67.293  1.00  0.00    -0.215 A  
HETATM   14  N   UNL     1      -8.202   7.384  65.717  1.00  0.00    -0.128 NA 
HETATM   15  C   UNL     1      -9.583   9.442  66.011  1.00  0.00    -0.261 A  
HETATM   16  C   UNL     1      -8.676   8.585  65.274  1.00  0.00    -0.140 A  
HETATM   17  N   UNL     1     -10.096  10.550  65.360  1.00  0.00    -0.288 NA 
HETATM   18  H2  UNL     1      -8.510   7.067  66.637  1.00  0.00     0.000 HD 
HETATM   19  C   UNL     1      -9.662  10.873  64.084  1.00  0.00    -0.296 A  
HETATM   20  C   UNL     1      -8.762  10.073  63.497  1.00  0.00    -0.222 A  
HETATM   21  N   UNL     1      -8.278   8.918  64.066  1.00  0.00    -0.163 NA 
HETATM   22  H1  UNL     1      -7.564   6.782  65.198  1.00  0.00     0.000 HD 
BRANCH  13  23
HETATM   23  C   UNL     1      -9.826   8.625  68.440  1.00  0.00    -0.189 A  
HETATM   24  C   UNL     1      -9.410   6.909  70.665  1.00  0.00    -0.162 A  
HETATM   25  C   UNL     1     -10.316   7.974  70.747  1.00  0.00    -0.214 A  
HETATM   26  C   UNL     1      -8.866   7.599  68.399  1.00  0.00    -0.130 A  
HETATM   27  C   UNL     1     -10.515   8.824  69.643  1.00  0.00    -0.220 A  
HETATM   28  C   UNL     1      -8.677   6.731  69.490  1.00  0.00    -0.133 A  
BRANCH  24  29
HETATM   29  C   UNL     1      -9.295   5.957  71.810  1.00  0.00    -0.148 C  
HETATM   30  H   UNL     1     -10.869   4.831  71.055  1.00  0.00     0.000 HD 
HETATM   31  O   UNL     1      -8.438   6.162  72.660  1.00  0.00    -0.121 OA 
HETATM   32  N   UNL     1     -10.144   4.866  71.772  1.00  0.00    -0.196 N  
BRANCH  32  33
HETATM   33  C   UNL     1     -10.041   3.806  72.682  1.00  0.00    -0.163 A  
HETATM   34  C   UNL     1     -11.116   3.385  73.460  1.00  0.00    -0.317 A  
HETATM   35  C   UNL     1     -10.911   2.368  74.391  1.00  0.00    -0.050 A  
HETATM   36  C   UNL     1      -9.640   1.830  74.539  1.00  0.00    -0.102 A  
HETATM   37  C   UNL     1      -8.638   2.291  73.700  1.00  0.00    -0.063 A  
HETATM   38  N   UNL     1      -8.823   3.231  72.744  1.00  0.00    -0.084 NA 
ENDBRANCH  32  33
ENDBRANCH  24  29
ENDBRANCH  13  23
ENDBRANCH  10  11
ENDBRANCH   3   4
TORSDOF 5
ENDMDL
MODEL       67
REMARK 921   NORMALIZED FREE ENERGY PREDICTED BY IDOCK:   -5.25 KCAL/MOL
REMARK 922        TOTAL FREE ENERGY PREDICTED BY IDOCK:   -6.26 KCAL/MOL
REMARK 923 INTER-LIGAND FREE ENERGY PREDICTED BY IDOCK:   -5.78 KCAL/MOL
REMARK 924 INTRA-LIGAND FREE ENERGY PREDICTED BY IDOCK:   -0.48 KCAL/MOL
REMARK 927      BINDING AFFINITY PREDICTED BY RF-SCORE:    0.00 PKD
ROOT
HETATM    1  C   UNL     1      -9.870  19.211  68.513  1.00  0.00    -0.483 C  
HETATM    2  C   UNL     1     -10.184  18.230  67.396  1.00  0.00    -0.385 C  
HETATM    3  C   UNL     1     -10.453  17.388  66.437  1.00  0.00    -0.267 C  
ENDROOT
BRANCH   3   4
HETATM    4  C   UNL     1     -10.694  16.403  65.398  1.00  0.00    -0.296 C  
HETATM    5  O   UNL     1     -10.416  16.713  64.245  1.00  0.00     0.151 OA 
HETATM    6  N   UNL     1     -11.299  15.208  65.736  1.00  0.00    -0.289 N  
HETATM    7  C   UNL     1     -11.868  14.338  64.725  1.00  0.00    -0.429 C  
HETATM    8  C   UNL     1     -13.149  13.848  65.378  1.00  0.00    -0.236 C  
HETATM    9  C   UNL     1     -12.838  13.802  66.874  1.00  0.00     0.565 C  
HETATM   10  C   UNL     1     -11.597  14.696  67.069  1.00  0.00    -0.371 C  
BRANCH  10  11
HETATM   11  C   UNL     1     -10.447  13.858  67.589  1.00  0.00    -0.245 A  
HETATM   12  N   UNL     1     -10.376  12.534  67.605  1.00  0.00    -0.216 NA 
HETATM   13  C   UNL     1      -9.219  12.200  68.291  1.00  0.00    -0.192 A  
HETATM   14  N   UNL     1      -6.300  12.796  69.589  1.00  0.00    -0.228 NA 
HETATM   15  C   UNL     1      -8.537  13.355  68.637  1.00  0.00     0.010 A  
HETATM   16  C   UNL     1      -7.284  13.690  69.284  1.00  0.00     0.071 A  
HETATM   17  N   UNL     1      -9.363  14.397  68.252  1.00  0.00    -0.200 NA 
HETATM   18  H2  UNL     1      -6.458  11.819  69.344  1.00  0.00     0.000 HD 
HETATM   19  C   UNL     1      -9.038  15.703  68.579  1.00  0.00    -0.196 A  
HETATM   20  C   UNL     1      -7.898  15.927  69.247  1.00  0.00    -0.226 A  
HETATM   21  N   UNL     1      -7.003  14.939  69.586  1.00  0.00    -0.176 NA 
HETATM   22  H1  UNL     1      -5.419  13.033  70.044  1.00  0.00     0.000 HD 
BRANCH  13  23
HETATM   23  C   UNL     1      -8.855  10.803  68.549  1.00  0.00    -0.149 A  
HETATM   24  C   UNL     1      -8.274   8.067  69.046  1.00  0.00    -0.128 A  
HETATM   25  C   UNL     1      -9.116   8.783  69.905  1.00  0.00    -0.158 A  
HETATM   26  C   UNL     1      -7.953  10.091  67.739  1.00  0.00    -0.105 A  
HETATM   27  C   UNL     1      -9.397  10.140  69.657  1.00  0.00    -0.215 A  
HETATM   28  C   UNL     1      -7.684   8.728  67.968  1.00  0.00    -0.101 A  
BRANCH  24  29
HETATM   29  C   UNL     1      -8.076   6.603  69.269  1.00  0.00    -0.116 C  
HETATM   30  H   UNL     1     -10.099   6.375  69.680  1.00  0.00     0.000 HD 
HETATM   31  O   UNL     1      -6.950   6.138  69.149  1.00  0.00    -0.063 OA 
HETATM   32  N   UNL     1      -9.223   5.876  69.530  1.00  0.00    -0.134 N  
BRANCH  32  33
HETATM   33  C   UNL     1      -9.221   4.476  69.597  1.00  0.00    -0.130 A  
HETATM   34  C   UNL     1      -9.057   3.787  70.795  1.00  0.00    -0.179 A  
HETATM   35  C   UNL     1      -8.999   2.395  70.765  1.00  0.00    -0.155 A  
HETATM   36  C   UNL     1      -9.073   1.740  69.543  1.00  0.00    -0.157 A  
HETATM   37  C   UNL     1      -9.267   2.507  68.406  1.00  0.00    -0.198 A  
HETATM   38  N   UNL     1      -9.390   3.854  68.412  1.00  0.00    -0.156 NA 
ENDBRANCH  32  33
ENDBRANCH  24  29
ENDBRANCH  13  23
ENDBRANCH  10  11
ENDBRANCH   3   4
TORSDOF 5
ENDMDL
MODEL       68
REMARK 921   NORMALIZED FREE ENERGY PREDICTED BY IDOCK:   -5.17 KCAL/MOL
REMARK 922        TOTAL FREE ENERGY PREDICTED BY IDOCK:   -6.16 KCAL/MOL
REMARK 923 INTER-LIGAND FREE ENERGY PREDICTED BY IDOCK:   -5.09 KCAL/MOL
REMARK 924 INTRA-LIGAND FREE ENERGY PREDICTED BY IDOCK:   -1.06 KCAL/MOL
REMARK 927      BINDING AFFINITY PREDICTED BY RF-SCORE:    0.00 PKD
ROOT
HETATM    1  C   UNL     1      -6.474  18.454  68.722  1.00  0.00    -0.239 C  
HETATM    2  C   UNL     1      -7.717  17.894  68.051  1.00  0.00    -0.245 C  
HETATM    3  C   UNL     1      -8.783  17.412  67.475  1.00  0.00    -0.221 C  
ENDROOT
BRANCH   3   4
HETATM    4  C   UNL     1      -9.994  16.847  66.906  1.00  0.00    -0.279 C  
HETATM    5  O   UNL     1     -10.485  17.413  65.937  1.00  0.00    -0.442 OA 
HETATM    6  N   UNL     1     -10.582  15.763  67.529  1.00  0.00    -0.303 N  
HETATM    7  C   UNL     1     -11.944  15.367  67.226  1.00  0.00     0.303 C  
HETATM    8  C   UNL     1     -12.502  14.993  68.589  1.00  0.00     0.216 C  
HETATM    9  C   UNL     1     -11.306  14.448  69.369  1.00  0.00    -0.319 C  
HETATM   10  C   UNL     1     -10.055  14.961  68.628  1.00  0.00    -0.237 C  
BRANCH  10  11
HETATM   11  C   UNL     1      -9.264  13.784  68.097  1.00  0.00    -0.199 A  
HETATM   12  N   UNL     1      -9.744  12.593  67.763  1.00  0.00    -0.200 NA 
HETATM   13  C   UNL     1      -8.655  11.787  67.466  1.00  0.00    -0.157 A  
HETATM   14  N   UNL     1      -5.544  11.215  66.720  1.00  0.00    -0.085 NA 
HETATM   15  C   UNL     1      -7.491  12.533  67.554  1.00  0.00    -0.151 A  
HETATM   16  C   UNL     1      -6.077  12.319  67.318  1.00  0.00    -0.153 A  
HETATM   17  N   UNL     1      -7.886  13.773  68.026  1.00  0.00    -0.137 NA 
HETATM   18  H2  UNL     1      -6.190  10.485  66.416  1.00  0.00     0.000 HD 
HETATM   19  C   UNL     1      -6.938  14.727  68.359  1.00  0.00    -0.114 A  
HETATM   20  C   UNL     1      -5.644  14.426  68.186  1.00  0.00    -0.124 A  
HETATM   21  N   UNL     1      -5.200  13.241  67.647  1.00  0.00    -0.281 NA 
HETATM   22  H1  UNL     1      -4.550  11.064  66.555  1.00  0.00     0.000 HD 
BRANCH  13  23
HETATM   23  C   UNL     1      -8.820  10.374  67.110  1.00  0.00    -0.141 A  
HETATM   24  C   UNL     1      -9.027   7.643  66.358  1.00  0.00    -0.198 A  
HETATM   25  C   UNL     1      -8.883   8.640  65.385  1.00  0.00    -0.198 A  
HETATM   26  C   UNL     1      -9.039   9.370  68.067  1.00  0.00    -0.131 A  
HETATM   27  C   UNL     1      -8.785   9.992  65.762  1.00  0.00    -0.160 A  
HETATM   28  C   UNL     1      -9.116   8.013  67.701  1.00  0.00    -0.144 A  
BRANCH  24  29
HETATM   29  C   UNL     1      -9.021   6.209  65.940  1.00  0.00    -0.121 C  
HETATM   30  H   UNL     1      -7.053   6.386  65.299  1.00  0.00     0.000 HD 
HETATM   31  O   UNL     1     -10.037   5.545  66.103  1.00  0.00    -0.156 OA 
HETATM   32  N   UNL     1      -7.816   5.728  65.459  1.00  0.00    -0.097 N  
BRANCH  32  33
HETATM   33  C   UNL     1      -7.608   4.370  65.186  1.00  0.00    -0.077 A  
HETATM   34  C   UNL     1      -7.168   3.474  66.156  1.00  0.00    -0.068 A  
HETATM   35  C   UNL     1      -6.920   2.153  65.785  1.00  0.00    -0.043 A  
HETATM   36  C   UNL     1      -7.086   1.780  64.458  1.00  0.00    -0.047 A  
HETATM   37  C   UNL     1      -7.556   2.733  63.569  1.00  0.00    -0.063 A  
HETATM   38  N   UNL     1      -7.865   4.004  63.914  1.00  0.00    -0.082 NA 
ENDBRANCH  32  33
ENDBRANCH  24  29
ENDBRANCH  13  23
ENDBRANCH  10  11
ENDBRANCH   3   4
TORSDOF 5
ENDMDL
MODEL       69
REMARK 921   NORMALIZED FREE ENERGY PREDICTED BY IDOCK:   -5.12 KCAL/MOL
REMARK 922        TOTAL FREE ENERGY PREDICTED BY IDOCK:   -6.09 KCAL/MOL
REMARK 923 INTER-LIGAND FREE ENERGY PREDICTED BY IDOCK:   -6.40 KCAL/MOL
REMARK 924 INTRA-LIGAND FREE ENERGY PREDICTED BY IDOCK:    0.31 KCAL/MOL
REMARK 927      BINDING AFFINITY PREDICTED BY RF-SCORE:    0.00 PKD
ROOT
HETATM    1  C   UNL     1     -12.636  12.571  63.958  1.00  0.00    -0.481 C  
HETATM    2  C   UNL     1     -11.290  11.898  63.741  1.00  0.00    -0.532 C  
HETATM    3  C   UNL     1     -10.135  11.321  63.555  1.00  0.00    -0.443 C  
ENDROOT
BRANCH   3   4
HETATM    4  C   UNL     1      -8.824  10.747  63.312  1.00  0.00    -0.185 C  
HETATM    5  O   UNL     1      -8.171  11.196  62.378  1.00  0.00    -0.213 OA 
HETATM    6  N   UNL     1      -8.412   9.673  64.079  1.00  0.00    -0.170 N  
HETATM    7  C   UNL     1      -7.288   8.849  63.679  1.00  0.00    -0.102 C  
HETATM    8  C   UNL     1      -7.753   7.446  64.027  1.00  0.00    -0.121 C  
HETATM    9  C   UNL     1      -8.659   7.621  65.246  1.00  0.00    -0.044 C  
HETATM   10  C   UNL     1      -9.058   9.109  65.259  1.00  0.00    -0.195 C  
BRANCH  10  11
HETATM   11  C   UNL     1      -8.531   9.764  66.519  1.00  0.00    -0.124 A  
HETATM   12  N   UNL     1      -8.165  11.031  66.659  1.00  0.00    -0.148 NA 
HETATM   13  C   UNL     1      -7.619  11.156  67.927  1.00  0.00    -0.099 A  
HETATM   14  N   UNL     1      -7.047  10.209  70.983  1.00  0.00    -0.325 NA 
HETATM   15  C   UNL     1      -7.723   9.947  68.596  1.00  0.00    -0.081 A  
HETATM   16  C   UNL     1      -7.414   9.440  69.918  1.00  0.00    -0.100 A  
HETATM   17  N   UNL     1      -8.234   9.057  67.667  1.00  0.00    -0.109 NA 
HETATM   18  H2  UNL     1      -6.985  11.217  70.838  1.00  0.00     0.000 HD 
HETATM   19  C   UNL     1      -8.337   7.710  67.974  1.00  0.00    -0.124 A  
HETATM   20  C   UNL     1      -7.958   7.304  69.193  1.00  0.00    -0.119 A  
HETATM   21  N   UNL     1      -7.518   8.155  70.180  1.00  0.00    -0.060 NA 
HETATM   22  H1  UNL     1      -6.829   9.852  71.913  1.00  0.00     0.000 HD 
BRANCH  13  23
HETATM   23  C   UNL     1      -7.054  12.424  68.399  1.00  0.00    -0.106 A  
HETATM   24  C   UNL     1      -6.050  14.884  69.404  1.00  0.00    -0.109 A  
HETATM   25  C   UNL     1      -7.386  14.773  69.000  1.00  0.00    -0.139 A  
HETATM   26  C   UNL     1      -5.699  12.574  68.738  1.00  0.00    -0.062 A  
HETATM   27  C   UNL     1      -7.878  13.553  68.499  1.00  0.00    -0.125 A  
HETATM   28  C   UNL     1      -5.204  13.783  69.260  1.00  0.00    -0.081 A  
BRANCH  24  29
HETATM   29  C   UNL     1      -5.580  16.155  70.031  1.00  0.00    -0.171 C  
HETATM   30  H   UNL     1      -5.982  17.191  68.275  1.00  0.00     0.000 HD 
HETATM   31  O   UNL     1      -5.181  16.127  71.188  1.00  0.00    -0.159 OA 
HETATM   32  N   UNL     1      -5.704  17.292  69.252  1.00  0.00    -0.181 N  
BRANCH  32  33
HETATM   33  C   UNL     1      -5.463  18.576  69.758  1.00  0.00    -0.212 A  
HETATM   34  C   UNL     1      -5.421  18.843  71.123  1.00  0.00    -0.210 A  
HETATM   35  C   UNL     1      -5.244  20.160  71.543  1.00  0.00    -0.389 A  
HETATM   36  C   UNL     1      -5.149  21.167  70.592  1.00  0.00    -0.153 A  
HETATM   37  C   UNL     1      -5.171  20.803  69.255  1.00  0.00    -0.344 A  
HETATM   38  N   UNL     1      -5.277  19.526  68.820  1.00  0.00    -0.188 NA 
ENDBRANCH  32  33
ENDBRANCH  24  29
ENDBRANCH  13  23
ENDBRANCH  10  11
ENDBRANCH   3   4
TORSDOF 5
ENDMDL
MODEL       70
REMARK 921   NORMALIZED FREE ENERGY PREDICTED BY IDOCK:   -5.12 KCAL/MOL
REMARK 922        TOTAL FREE ENERGY PREDICTED BY IDOCK:   -6.09 KCAL/MOL
REMARK 923 INTER-LIGAND FREE ENERGY PREDICTED BY IDOCK:   -7.13 KCAL/MOL
REMARK 924 INTRA-LIGAND FREE ENERGY PREDICTED BY IDOCK:    1.04 KCAL/MOL
REMARK 927      BINDING AFFINITY PREDICTED BY RF-SCORE:    0.00 PKD
ROOT
HETATM    1  C   UNL     1     -10.877  19.932  65.446  1.00  0.00    -0.116 C  
HETATM    2  C   UNL     1      -9.887  19.474  66.503  1.00  0.00    -0.498 C  
HETATM    3  C   UNL     1      -9.038  19.081  67.412  1.00  0.00    -0.325 C  
ENDROOT
BRANCH   3   4
HETATM    4  C   UNL     1      -8.110  18.709  68.465  1.00  0.00    -0.341 C  
HETATM    5  O   UNL     1      -8.010  19.462  69.427  1.00  0.00    -0.206 OA 
HETATM    6  N   UNL     1      -7.325  17.584  68.299  1.00  0.00    -0.215 N  
HETATM    7  C   UNL     1      -6.162  17.346  69.131  1.00  0.00    -0.228 C  
HETATM    8  C   UNL     1      -5.145  16.796  68.148  1.00  0.00    -0.116 C  
HETATM    9  C   UNL     1      -5.971  16.042  67.105  1.00  0.00    -0.014 C  
HETATM   10  C   UNL     1      -7.410  16.575  67.249  1.00  0.00    -0.166 C  
BRANCH  10  11
HETATM   11  C   UNL     1      -8.328  15.445  67.668  1.00  0.00    -0.161 A  
HETATM   12  N   UNL     1      -8.181  14.158  67.383  1.00  0.00    -0.184 NA 
HETATM   13  C   UNL     1      -9.318  13.510  67.842  1.00  0.00    -0.215 A  
HETATM   14  N   UNL     1     -12.039  13.247  69.598  1.00  0.00    -0.297 NA 
HETATM   15  C   UNL     1     -10.141  14.421  68.483  1.00  0.00    -0.244 A  
HETATM   16  C   UNL     1     -11.396  14.386  69.207  1.00  0.00    -0.284 A  
HETATM   17  N   UNL     1      -9.538  15.653  68.300  1.00  0.00    -0.199 NA 
HETATM   18  H2  UNL     1     -11.604  12.355  69.362  1.00  0.00     0.000 HD 
HETATM   19  C   UNL     1     -10.179  16.812  68.706  1.00  0.00    -0.299 A  
HETATM   20  C   UNL     1     -11.375  16.703  69.300  1.00  0.00    -0.025 A  
HETATM   21  N   UNL     1     -11.984  15.502  69.577  1.00  0.00    -0.358 NA 
HETATM   22  H1  UNL     1     -12.922  13.223  70.107  1.00  0.00     0.000 HD 
BRANCH  13  23
HETATM   23  C   UNL     1      -9.516  12.072  67.639  1.00  0.00    -0.185 A  
HETATM   24  C   UNL     1      -9.824   9.291  67.145  1.00  0.00    -0.251 A  
HETATM   25  C   UNL     1     -10.148  10.230  66.157  1.00  0.00    -0.307 A  
HETATM   26  C   UNL     1      -9.268  11.121  68.644  1.00  0.00    -0.173 A  
HETATM   27  C   UNL     1      -9.997  11.607  66.408  1.00  0.00    -0.235 A  
HETATM   28  C   UNL     1      -9.394   9.742  68.394  1.00  0.00    -0.135 A  
BRANCH  24  29
HETATM   29  C   UNL     1      -9.890   7.835  66.819  1.00  0.00    -0.241 C  
HETATM   30  H   UNL     1      -7.864   7.830  66.357  1.00  0.00     0.000 HD 
HETATM   31  O   UNL     1     -10.965   7.258  66.924  1.00  0.00    -0.343 OA 
HETATM   32  N   UNL     1      -8.687   7.240  66.485  1.00  0.00    -0.127 N  
BRANCH  32  33
HETATM   33  C   UNL     1      -8.559   5.855  66.316  1.00  0.00    -0.132 A  
HETATM   34  C   UNL     1      -8.955   4.946  67.293  1.00  0.00    -0.113 A  
HETATM   35  C   UNL     1      -8.731   3.587  67.075  1.00  0.00    -0.128 A  
HETATM   36  C   UNL     1      -8.092   3.185  65.910  1.00  0.00    -0.086 A  
HETATM   37  C   UNL     1      -7.760   4.158  64.981  1.00  0.00    -0.082 A  
HETATM   38  N   UNL     1      -8.024   5.476  65.138  1.00  0.00    -0.104 NA 
ENDBRANCH  32  33
ENDBRANCH  24  29
ENDBRANCH  13  23
ENDBRANCH  10  11
ENDBRANCH   3   4
TORSDOF 5
ENDMDL
MODEL       71
REMARK 921   NORMALIZED FREE ENERGY PREDICTED BY IDOCK:   -5.06 KCAL/MOL
REMARK 922        TOTAL FREE ENERGY PREDICTED BY IDOCK:   -6.02 KCAL/MOL
REMARK 923 INTER-LIGAND FREE ENERGY PREDICTED BY IDOCK:   -6.77 KCAL/MOL
REMARK 924 INTRA-LIGAND FREE ENERGY PREDICTED BY IDOCK:    0.75 KCAL/MOL
REMARK 927      BINDING AFFINITY PREDICTED BY RF-SCORE:    0.00 PKD
ROOT
HETATM    1  C   UNL     1     -13.440  14.928  71.491  1.00  0.00    -0.491 C  
HETATM    2  C   UNL     1     -12.458  15.542  70.507  1.00  0.00    -0.472 C  
HETATM    3  C   UNL     1     -11.615  16.068  69.662  1.00  0.00    -0.299 C  
ENDROOT
BRANCH   3   4
HETATM    4  C   UNL     1     -10.738  16.698  68.691  1.00  0.00    -0.349 C  
HETATM    5  O   UNL     1     -10.242  17.778  68.989  1.00  0.00    -0.367 OA 
HETATM    6  N   UNL     1     -10.573  16.103  67.455  1.00  0.00    -0.311 N  
HETATM    7  C   UNL     1      -9.998  16.829  66.339  1.00  0.00    -0.304 C  
HETATM    8  C   UNL     1     -10.847  16.377  65.164  1.00  0.00    -0.289 C  
HETATM    9  C   UNL     1     -11.253  14.942  65.499  1.00  0.00    -0.348 C  
HETATM   10  C   UNL     1     -11.039  14.792  67.017  1.00  0.00    -0.333 C  
BRANCH  10  11
HETATM   11  C   UNL     1      -9.984  13.737  67.278  1.00  0.00    -0.239 A  
HETATM   12  N   UNL     1     -10.042  12.457  66.933  1.00  0.00    -0.218 NA 
HETATM   13  C   UNL     1      -8.934  11.838  67.491  1.00  0.00    -0.168 A  
HETATM   14  N   UNL     1      -5.992  11.772  68.870  1.00  0.00    -0.049 NA 
HETATM   15  C   UNL     1      -8.149  12.784  68.130  1.00  0.00    -0.158 A  
HETATM   16  C   UNL     1      -6.880  12.807  68.829  1.00  0.00    -0.096 A  
HETATM   17  N   UNL     1      -8.863  13.966  68.050  1.00  0.00    -0.175 NA 
HETATM   18  H2  UNL     1      -6.240  10.917  68.370  1.00  0.00     0.000 HD 
HETATM   19  C   UNL     1      -8.418  15.097  68.716  1.00  0.00    -0.180 A  
HETATM   20  C   UNL     1      -7.273  15.019  69.407  1.00  0.00    -0.194 A  
HETATM   21  N   UNL     1      -6.484  13.893  69.455  1.00  0.00    -0.116 NA 
HETATM   22  H1  UNL     1      -5.099  11.788  69.363  1.00  0.00     0.000 HD 
BRANCH  13  23
HETATM   23  C   UNL     1      -8.711  10.394  67.356  1.00  0.00    -0.125 A  
HETATM   24  C   UNL     1      -8.406   7.581  67.108  1.00  0.00    -0.121 A  
HETATM   25  C   UNL     1      -9.008   8.134  68.246  1.00  0.00    -0.136 A  
HETATM   26  C   UNL     1      -8.043   9.828  66.257  1.00  0.00    -0.113 A  
HETATM   27  C   UNL     1      -9.154   9.529  68.365  1.00  0.00    -0.127 A  
HETATM   28  C   UNL     1      -7.913   8.433  66.119  1.00  0.00    -0.100 A  
BRANCH  24  29
HETATM   29  C   UNL     1      -8.360   6.096  66.956  1.00  0.00    -0.105 C  
HETATM   30  H   UNL     1      -8.844   6.271  64.943  1.00  0.00     0.000 HD 
HETATM   31  O   UNL     1      -8.095   5.413  67.936  1.00  0.00    -0.099 OA 
HETATM   32  N   UNL     1      -8.559   5.618  65.673  1.00  0.00    -0.146 N  
BRANCH  32  33
HETATM   33  C   UNL     1      -8.382   4.268  65.342  1.00  0.00    -0.110 A  
HETATM   34  C   UNL     1      -7.150   3.754  64.947  1.00  0.00    -0.065 A  
HETATM   35  C   UNL     1      -7.074   2.414  64.568  1.00  0.00    -0.053 A  
HETATM   36  C   UNL     1      -8.229   1.644  64.565  1.00  0.00    -0.070 A  
HETATM   37  C   UNL     1      -9.404   2.234  65.003  1.00  0.00    -0.077 A  
HETATM   38  N   UNL     1      -9.494   3.512  65.436  1.00  0.00    -0.161 NA 
ENDBRANCH  32  33
ENDBRANCH  24  29
ENDBRANCH  13  23
ENDBRANCH  10  11
ENDBRANCH   3   4
TORSDOF 5
ENDMDL
MODEL       72
REMARK 921   NORMALIZED FREE ENERGY PREDICTED BY IDOCK:   -5.06 KCAL/MOL
REMARK 922        TOTAL FREE ENERGY PREDICTED BY IDOCK:   -6.01 KCAL/MOL
REMARK 923 INTER-LIGAND FREE ENERGY PREDICTED BY IDOCK:   -5.61 KCAL/MOL
REMARK 924 INTRA-LIGAND FREE ENERGY PREDICTED BY IDOCK:   -0.41 KCAL/MOL
REMARK 927      BINDING AFFINITY PREDICTED BY RF-SCORE:    0.00 PKD
ROOT
HETATM    1  C   UNL     1      -5.184  15.269  69.050  1.00  0.00    -0.098 C  
HETATM    2  C   UNL     1      -6.511  15.234  68.310  1.00  0.00    -0.115 C  
HETATM    3  C   UNL     1      -7.650  15.204  67.675  1.00  0.00    -0.194 C  
ENDROOT
BRANCH   3   4
HETATM    4  C   UNL     1      -8.889  15.228  66.919  1.00  0.00    -0.254 C  
HETATM    5  O   UNL     1      -8.820  15.471  65.720  1.00  0.00    -0.156 OA 
HETATM    6  N   UNL     1     -10.086  15.068  67.592  1.00  0.00    -0.230 N  
HETATM    7  C   UNL     1     -11.351  15.412  66.973  1.00  0.00    -0.175 C  
HETATM    8  C   UNL     1     -12.121  16.061  68.109  1.00  0.00     0.464 C  
HETATM    9  C   UNL     1     -11.628  15.358  69.373  1.00  0.00    -0.354 C  
HETATM   10  C   UNL     1     -10.291  14.695  68.987  1.00  0.00    -0.235 C  
BRANCH  10  11
HETATM   11  C   UNL     1     -10.412  13.192  69.125  1.00  0.00     0.099 A  
HETATM   12  N   UNL     1      -9.768  12.277  68.413  1.00  0.00    -0.211 NA 
HETATM   13  C   UNL     1     -10.286  11.043  68.777  1.00  0.00    -0.198 A  
HETATM   14  N   UNL     1     -11.941   9.003  70.690  1.00  0.00    -0.469 NA 
HETATM   15  C   UNL     1     -11.219  11.214  69.787  1.00  0.00    -0.245 A  
HETATM   16  C   UNL     1     -12.046  10.362  70.618  1.00  0.00    -0.348 A  
HETATM   17  N   UNL     1     -11.342  12.583  69.944  1.00  0.00    -0.067 NA 
HETATM   18  H2  UNL     1     -11.226   8.554  70.117  1.00  0.00     0.000 HD 
HETATM   19  C   UNL     1     -12.305  13.105  70.793  1.00  0.00    -0.321 A  
HETATM   20  C   UNL     1     -13.086  12.252  71.470  1.00  0.00    -0.257 A  
HETATM   21  N   UNL     1     -12.955  10.884  71.411  1.00  0.00    -0.419 NA 
HETATM   22  H1  UNL     1     -12.523   8.404  71.275  1.00  0.00     0.000 HD 
BRANCH  13  23
HETATM   23  C   UNL     1      -9.837   9.802  68.137  1.00  0.00    -0.170 A  
HETATM   24  C   UNL     1      -8.941   7.352  67.014  1.00  0.00    -0.142 A  
HETATM   25  C   UNL     1      -8.099   8.104  67.843  1.00  0.00    -0.128 A  
HETATM   26  C   UNL     1     -10.640   9.074  67.244  1.00  0.00    -0.301 A  
HETATM   27  C   UNL     1      -8.547   9.320  68.394  1.00  0.00    -0.124 A  
HETATM   28  C   UNL     1     -10.209   7.847  66.706  1.00  0.00    -0.358 A  
BRANCH  24  29
HETATM   29  C   UNL     1      -8.483   6.016  66.529  1.00  0.00    -0.115 C  
HETATM   30  H   UNL     1      -7.005   5.973  67.988  1.00  0.00     0.000 HD 
HETATM   31  O   UNL     1      -9.063   5.505  65.579  1.00  0.00    -0.155 OA 
HETATM   32  N   UNL     1      -7.465   5.429  67.258  1.00  0.00    -0.083 N  
BRANCH  32  33
HETATM   33  C   UNL     1      -7.044   4.112  67.029  1.00  0.00    -0.067 A  
HETATM   34  C   UNL     1      -6.082   3.793  66.076  1.00  0.00    -0.028 A  
HETATM   35  C   UNL     1      -5.769   2.451  65.863  1.00  0.00    -0.018 A  
HETATM   36  C   UNL     1      -6.447   1.475  66.580  1.00  0.00    -0.023 A  
HETATM   37  C   UNL     1      -7.367   1.889  67.530  1.00  0.00    -0.055 A  
HETATM   38  N   UNL     1      -7.644   3.185  67.803  1.00  0.00    -0.061 NA 
ENDBRANCH  32  33
ENDBRANCH  24  29
ENDBRANCH  13  23
ENDBRANCH  10  11
ENDBRANCH   3   4
TORSDOF 5
ENDMDL
MODEL       73
REMARK 921   NORMALIZED FREE ENERGY PREDICTED BY IDOCK:   -4.98 KCAL/MOL
REMARK 922        TOTAL FREE ENERGY PREDICTED BY IDOCK:   -5.91 KCAL/MOL
REMARK 923 INTER-LIGAND FREE ENERGY PREDICTED BY IDOCK:   -4.93 KCAL/MOL
REMARK 924 INTRA-LIGAND FREE ENERGY PREDICTED BY IDOCK:   -0.98 KCAL/MOL
REMARK 927      BINDING AFFINITY PREDICTED BY RF-SCORE:    0.00 PKD
ROOT
HETATM    1  C   UNL     1      -9.078   2.643  69.507  1.00  0.00    -0.187 C  
HETATM    2  C   UNL     1      -8.918   3.372  68.183  1.00  0.00    -0.182 C  
HETATM    3  C   UNL     1      -8.780   3.997  67.046  1.00  0.00    -0.116 C  
ENDROOT
BRANCH   3   4
HETATM    4  C   UNL     1      -8.705   4.716  65.787  1.00  0.00    -0.124 C  
HETATM    5  O   UNL     1      -9.499   4.408  64.907  1.00  0.00    -0.158 OA 
HETATM    6  N   UNL     1      -7.696   5.644  65.607  1.00  0.00    -0.086 N  
HETATM    7  C   UNL     1      -7.357   6.142  64.288  1.00  0.00    -0.070 C  
HETATM    8  C   UNL     1      -5.840   6.206  64.327  1.00  0.00    -0.022 C  
HETATM    9  C   UNL     1      -5.495   6.516  65.784  1.00  0.00    -0.021 C  
HETATM   10  C   UNL     1      -6.752   6.152  66.597  1.00  0.00    -0.060 C  
BRANCH  10  11
HETATM   11  C   UNL     1      -7.300   7.394  67.268  1.00  0.00    -0.098 A  
HETATM   12  N   UNL     1      -7.165   8.645  66.847  1.00  0.00    -0.075 NA 
HETATM   13  C   UNL     1      -7.697   9.462  67.833  1.00  0.00    -0.088 A  
HETATM   14  N   UNL     1      -9.475  10.093  70.479  1.00  0.00    -0.224 NA 
HETATM   15  C   UNL     1      -8.230   8.679  68.844  1.00  0.00    -0.123 A  
HETATM   16  C   UNL     1      -8.955   8.897  70.080  1.00  0.00    -0.165 A  
HETATM   17  N   UNL     1      -7.905   7.377  68.508  1.00  0.00    -0.120 NA 
HETATM   18  H2  UNL     1      -9.344  10.895  69.861  1.00  0.00     0.000 HD 
HETATM   19  C   UNL     1      -8.176   6.340  69.387  1.00  0.00    -0.114 A  
HETATM   20  C   UNL     1      -8.780   6.632  70.547  1.00  0.00    -0.144 A  
HETATM   21  N   UNL     1      -9.195   7.895  70.897  1.00  0.00    -0.151 NA 
HETATM   22  H1  UNL     1      -9.985  10.246  71.348  1.00  0.00     0.000 HD 
BRANCH  13  23
HETATM   23  C   UNL     1      -7.662  10.924  67.721  1.00  0.00    -0.107 A  
HETATM   24  C   UNL     1      -7.677  13.762  67.601  1.00  0.00    -0.187 A  
HETATM   25  C   UNL     1      -8.871  13.039  67.486  1.00  0.00    -0.195 A  
HETATM   26  C   UNL     1      -6.466  11.661  67.758  1.00  0.00    -0.067 A  
HETATM   27  C   UNL     1      -8.857  11.632  67.542  1.00  0.00    -0.158 A  
HETATM   28  C   UNL     1      -6.472  13.068  67.725  1.00  0.00    -0.148 A  
BRANCH  24  29
HETATM   29  C   UNL     1      -7.728  15.254  67.646  1.00  0.00    -0.165 C  
HETATM   30  H   UNL     1      -5.653  15.342  67.685  1.00  0.00     0.000 HD 
HETATM   31  O   UNL     1      -8.822  15.804  67.647  1.00  0.00    -0.173 OA 
HETATM   32  N   UNL     1      -6.504  15.898  67.612  1.00  0.00    -0.152 N  
BRANCH  32  33
HETATM   33  C   UNL     1      -6.395  17.289  67.481  1.00  0.00    -0.149 A  
HETATM   34  C   UNL     1      -6.324  18.138  68.582  1.00  0.00    -0.209 A  
HETATM   35  C   UNL     1      -6.286  19.514  68.366  1.00  0.00    -0.266 A  
HETATM   36  C   UNL     1      -6.352  19.998  67.066  1.00  0.00    -0.213 A  
HETATM   37  C   UNL     1      -6.390  19.077  66.031  1.00  0.00    -0.199 A  
HETATM   38  N   UNL     1      -6.364  17.736  66.209  1.00  0.00    -0.210 NA 
ENDBRANCH  32  33
ENDBRANCH  24  29
ENDBRANCH  13  23
ENDBRANCH  10  11
ENDBRANCH   3   4
TORSDOF 5
ENDMDL
MODEL       74
REMARK 921   NORMALIZED FREE ENERGY PREDICTED BY IDOCK:   -4.94 KCAL/MOL
REMARK 922        TOTAL FREE ENERGY PREDICTED BY IDOCK:   -5.86 KCAL/MOL
REMARK 923 INTER-LIGAND FREE ENERGY PREDICTED BY IDOCK:   -6.64 KCAL/MOL
REMARK 924 INTRA-LIGAND FREE ENERGY PREDICTED BY IDOCK:    0.78 KCAL/MOL
REMARK 927      BINDING AFFINITY PREDICTED BY RF-SCORE:    0.00 PKD
ROOT
HETATM    1  C   UNL     1     -11.541  16.652  69.442  1.00  0.00     0.272 C  
HETATM    2  C   UNL     1     -11.011  16.028  68.162  1.00  0.00    -0.339 C  
HETATM    3  C   UNL     1     -10.556  15.492  67.064  1.00  0.00    -0.311 C  
ENDROOT
BRANCH   3   4
HETATM    4  C   UNL     1     -10.123  14.906  65.808  1.00  0.00    -0.341 C  
HETATM    5  O   UNL     1      -9.294  15.521  65.149  1.00  0.00    -0.055 OA 
HETATM    6  N   UNL     1     -10.722  13.739  65.372  1.00  0.00    -0.303 N  
HETATM    7  C   UNL     1     -10.589  13.290  64.000  1.00  0.00    -0.192 C  
HETATM    8  C   UNL     1     -11.978  12.769  63.675  1.00  0.00    -0.616 C  
HETATM    9  C   UNL     1     -12.519  12.232  65.000  1.00  0.00    -0.257 C  
HETATM   10  C   UNL     1     -11.651  12.879  66.097  1.00  0.00    -0.372 C  
BRANCH  10  11
HETATM   11  C   UNL     1     -10.901  11.801  66.852  1.00  0.00    -0.271 A  
HETATM   12  N   UNL     1     -11.432  10.843  67.600  1.00  0.00    -0.518 NA 
HETATM   13  C   UNL     1     -10.381  10.175  68.208  1.00  0.00    -0.186 A  
HETATM   14  N   UNL     1      -7.266   9.325  68.580  1.00  0.00    -0.072 NA 
HETATM   15  C   UNL     1      -9.180  10.700  67.760  1.00  0.00    -0.146 A  
HETATM   16  C   UNL     1      -7.769  10.425  67.948  1.00  0.00    -0.089 A  
HETATM   17  N   UNL     1      -9.526  11.776  66.961  1.00  0.00    -0.182 NA 
HETATM   18  H2  UNL     1      -7.933   8.646  68.947  1.00  0.00     0.000 HD 
HETATM   19  C   UNL     1      -8.545  12.614  66.456  1.00  0.00     0.060 A  
HETATM   20  C   UNL     1      -7.265  12.338  66.738  1.00  0.00     0.159 A  
HETATM   21  N   UNL     1      -6.860  11.240  67.461  1.00  0.00    -0.080 NA 
HETATM   22  H1  UNL     1      -6.274   9.132  68.712  1.00  0.00     0.000 HD 
BRANCH  13  23
HETATM   23  C   UNL     1     -10.612   9.082  69.158  1.00  0.00    -0.219 A  
HETATM   24  C   UNL     1     -10.946   6.917  70.966  1.00  0.00    -0.287 A  
HETATM   25  C   UNL     1     -10.716   6.679  69.605  1.00  0.00    -0.306 A  
HETATM   26  C   UNL     1     -10.917   9.304  70.512  1.00  0.00    -0.318 A  
HETATM   27  C   UNL     1     -10.555   7.755  68.713  1.00  0.00    -0.161 A  
HETATM   28  C   UNL     1     -11.057   8.233  71.415  1.00  0.00    -0.302 A  
BRANCH  24  29
HETATM   29  C   UNL     1     -11.006   5.760  71.909  1.00  0.00    -0.259 C  
HETATM   30  H   UNL     1      -9.443   4.834  70.901  1.00  0.00     0.000 HD 
HETATM   31  O   UNL     1     -11.840   5.776  72.805  1.00  0.00    -0.237 OA 
HETATM   32  N   UNL     1     -10.044   4.783  71.723  1.00  0.00    -0.189 N  
BRANCH  32  33
HETATM   33  C   UNL     1      -9.868   3.726  72.626  1.00  0.00    -0.151 A  
HETATM   34  C   UNL     1      -8.852   3.720  73.577  1.00  0.00    -0.092 A  
HETATM   35  C   UNL     1      -8.703   2.599  74.392  1.00  0.00    -0.074 A  
HETATM   36  C   UNL     1      -9.548   1.512  74.209  1.00  0.00    -0.086 A  
HETATM   37  C   UNL     1     -10.550   1.620  73.258  1.00  0.00    -0.118 A  
HETATM   38  N   UNL     1     -10.757   2.720  72.498  1.00  0.00     0.002 NA 
ENDBRANCH  32  33
ENDBRANCH  24  29
ENDBRANCH  13  23
ENDBRANCH  10  11
ENDBRANCH   3   4
TORSDOF 5
ENDMDL
MODEL       75
REMARK 921   NORMALIZED FREE ENERGY PREDICTED BY IDOCK:   -4.57 KCAL/MOL
REMARK 922        TOTAL FREE ENERGY PREDICTED BY IDOCK:   -5.39 KCAL/MOL
REMARK 923 INTER-LIGAND FREE ENERGY PREDICTED BY IDOCK:   -6.44 KCAL/MOL
REMARK 924 INTRA-LIGAND FREE ENERGY PREDICTED BY IDOCK:    1.05 KCAL/MOL
REMARK 927      BINDING AFFINITY PREDICTED BY RF-SCORE:    0.00 PKD
ROOT
HETATM    1  C   UNL     1     -11.675  16.314  64.021  1.00  0.00     0.480 C  
HETATM    2  C   UNL     1     -10.867  16.643  65.265  1.00  0.00    -0.194 C  
HETATM    3  C   UNL     1     -10.173  16.924  66.333  1.00  0.00    -0.326 C  
ENDROOT
BRANCH   3   4
HETATM    4  C   UNL     1      -9.391  17.158  67.534  1.00  0.00    -0.238 C  
HETATM    5  O   UNL     1      -9.526  18.236  68.100  1.00  0.00    -0.282 OA 
HETATM    6  N   UNL     1      -8.474  16.203  67.931  1.00  0.00    -0.162 N  
HETATM    7  C   UNL     1      -7.441  16.508  68.901  1.00  0.00    -0.225 C  
HETATM    8  C   UNL     1      -6.227  15.784  68.345  1.00  0.00    -0.101 C  
HETATM    9  C   UNL     1      -6.791  14.556  67.632  1.00  0.00    -0.203 C  
HETATM   10  C   UNL     1      -8.283  14.860  67.394  1.00  0.00    -0.197 C  
BRANCH  10  11
HETATM   11  C   UNL     1      -9.132  13.858  68.149  1.00  0.00    -0.193 A  
HETATM   12  N   UNL     1      -8.983  12.540  68.155  1.00  0.00    -0.197 NA 
HETATM   13  C   UNL     1     -10.056  12.015  68.859  1.00  0.00    -0.015 A  
HETATM   14  N   UNL     1     -12.592  12.164  70.885  1.00  0.00    -0.308 NA 
HETATM   15  C   UNL     1     -10.835  13.050  69.351  1.00  0.00     0.099 A  
HETATM   16  C   UNL     1     -12.015  13.181  70.182  1.00  0.00    -0.310 A  
HETATM   17  N   UNL     1     -10.280  14.206  68.831  1.00  0.00    -0.212 NA 
HETATM   18  H2  UNL     1     -12.161  11.242  70.820  1.00  0.00     0.000 HD 
HETATM   19  C   UNL     1     -10.907  15.427  69.020  1.00  0.00    -0.244 A  
HETATM   20  C   UNL     1     -12.038  15.458  69.737  1.00  0.00    -0.347 A  
HETATM   21  N   UNL     1     -12.590  14.353  70.342  1.00  0.00    -0.348 NA 
HETATM   22  H1  UNL     1     -13.422  12.257  71.470  1.00  0.00     0.000 HD 
BRANCH  13  23
HETATM   23  C   UNL     1     -10.239  10.569  69.013  1.00  0.00    -0.233 A  
HETATM   24  C   UNL     1     -10.512   7.748  69.216  1.00  0.00    -0.221 A  
HETATM   25  C   UNL     1     -10.771   8.403  68.005  1.00  0.00    -0.118 A  
HETATM   26  C   UNL     1     -10.057   9.906  70.238  1.00  0.00    -0.295 A  
HETATM   27  C   UNL     1     -10.638   9.801  67.911  1.00  0.00    -0.310 A  
HETATM   28  C   UNL     1     -10.166   8.506  70.336  1.00  0.00    -0.215 A  
BRANCH  24  29
HETATM   29  C   UNL     1     -10.556   6.256  69.263  1.00  0.00    -0.273 C  
HETATM   30  H   UNL     1      -8.955   6.151  67.943  1.00  0.00     0.000 HD 
HETATM   31  O   UNL     1     -11.403   5.715  69.963  1.00  0.00    -0.175 OA 
HETATM   32  N   UNL     1      -9.567   5.604  68.549  1.00  0.00    -0.125 N  
BRANCH  32  33
HETATM   33  C   UNL     1      -9.376   4.218  68.630  1.00  0.00    -0.152 A  
HETATM   34  C   UNL     1      -9.049   3.580  69.823  1.00  0.00    -0.196 A  
HETATM   35  C   UNL     1      -8.809   2.207  69.805  1.00  0.00    -0.133 A  
HETATM   36  C   UNL     1      -8.869   1.525  68.597  1.00  0.00    -0.120 A  
HETATM   37  C   UNL     1      -9.231   2.238  67.466  1.00  0.00    -0.148 A  
HETATM   38  N   UNL     1      -9.532   3.558  67.466  1.00  0.00    -0.204 NA 
ENDBRANCH  32  33
ENDBRANCH  24  29
ENDBRANCH  13  23
ENDBRANCH  10  11
ENDBRANCH   3   4
TORSDOF 5
ENDMDL
MODEL       76
REMARK 921   NORMALIZED FREE ENERGY PREDICTED BY IDOCK:   -4.56 KCAL/MOL
REMARK 922        TOTAL FREE ENERGY PREDICTED BY IDOCK:   -5.37 KCAL/MOL
REMARK 923 INTER-LIGAND FREE ENERGY PREDICTED BY IDOCK:   -6.10 KCAL/MOL
REMARK 924 INTRA-LIGAND FREE ENERGY PREDICTED BY IDOCK:    0.73 KCAL/MOL
REMARK 927      BINDING AFFINITY PREDICTED BY RF-SCORE:    0.00 PKD
ROOT
HETATM    1  C   UNL     1     -10.020  19.361  67.872  1.00  0.00    -0.483 C  
HETATM    2  C   UNL     1     -10.422  18.311  66.850  1.00  0.00    -0.396 C  
HETATM    3  C   UNL     1     -10.766  17.410  65.972  1.00  0.00    -0.122 C  
ENDROOT
BRANCH   3   4
HETATM    4  C   UNL     1     -11.087  16.362  65.019  1.00  0.00    -0.208 C  
HETATM    5  O   UNL     1     -11.134  16.667  63.834  1.00  0.00    -0.729 OA 
HETATM    6  N   UNL     1     -11.407  15.104  65.492  1.00  0.00    -0.314 N  
HETATM    7  C   UNL     1     -12.054  14.122  64.644  1.00  0.00    -0.452 C  
HETATM    8  C   UNL     1     -13.059  13.472  65.579  1.00  0.00    -0.085 C  
HETATM    9  C   UNL     1     -12.407  13.529  66.961  1.00  0.00    -0.260 C  
HETATM   10  C   UNL     1     -11.307  14.603  66.859  1.00  0.00    -0.356 C  
BRANCH  10  11
HETATM   11  C   UNL     1      -9.954  13.966  67.096  1.00  0.00    -0.239 A  
HETATM   12  N   UNL     1      -9.718  12.695  67.394  1.00  0.00    -0.196 NA 
HETATM   13  C   UNL     1      -8.362  12.587  67.660  1.00  0.00    -0.172 A  
HETATM   14  N   UNL     1      -5.271  13.590  67.608  1.00  0.00    -0.308 NA 
HETATM   15  C   UNL     1      -7.751  13.813  67.449  1.00  0.00    -0.143 A  
HETATM   16  C   UNL     1      -6.403  14.343  67.489  1.00  0.00    -0.005 A  
HETATM   17  N   UNL     1      -8.782  14.692  67.165  1.00  0.00    -0.211 NA 
HETATM   18  H2  UNL     1      -5.383  12.578  67.674  1.00  0.00     0.000 HD 
HETATM   19  C   UNL     1      -8.526  16.047  67.034  1.00  0.00    -0.214 A  
HETATM   20  C   UNL     1      -7.263  16.472  67.161  1.00  0.00    -0.188 A  
HETATM   21  N   UNL     1      -6.191  15.634  67.365  1.00  0.00    -0.291 NA 
HETATM   22  H1  UNL     1      -4.323  13.963  67.636  1.00  0.00     0.000 HD 
BRANCH  13  23
HETATM   23  C   UNL     1      -7.761  11.318  68.083  1.00  0.00    -0.112 A  
HETATM   24  C   UNL     1      -6.703   8.835  68.968  1.00  0.00    -0.052 A  
HETATM   25  C   UNL     1      -7.136   9.794  69.893  1.00  0.00    -0.108 A  
HETATM   26  C   UNL     1      -7.254  10.377  67.172  1.00  0.00    -0.091 A  
HETATM   27  C   UNL     1      -7.655  11.025  69.449  1.00  0.00    -0.058 A  
HETATM   28  C   UNL     1      -6.753   9.135  67.606  1.00  0.00    -0.069 A  
BRANCH  24  29
HETATM   29  C   UNL     1      -6.257   7.497  69.459  1.00  0.00    -0.031 C  
HETATM   30  H   UNL     1      -6.849   7.988  71.389  1.00  0.00     0.000 HD 
HETATM   31  O   UNL     1      -5.770   6.710  68.658  1.00  0.00    -0.016 OA 
HETATM   32  N   UNL     1      -6.503   7.235  70.795  1.00  0.00    -0.043 N  
BRANCH  32  33
HETATM   33  C   UNL     1      -6.294   5.969  71.360  1.00  0.00    -0.048 A  
HETATM   34  C   UNL     1      -5.766   5.801  72.636  1.00  0.00    -0.031 A  
HETATM   35  C   UNL     1      -5.526   4.508  73.097  1.00  0.00    -0.008 A  
HETATM   36  C   UNL     1      -5.788   3.431  72.261  1.00  0.00    -0.009 A  
HETATM   37  C   UNL     1      -6.341   3.693  71.018  1.00  0.00    -0.019 A  
HETATM   38  N   UNL     1      -6.644   4.934  70.570  1.00  0.00    -0.034 NA 
ENDBRANCH  32  33
ENDBRANCH  24  29
ENDBRANCH  13  23
ENDBRANCH  10  11
ENDBRANCH   3   4
TORSDOF 5
ENDMDL
MODEL       77
REMARK 921   NORMALIZED FREE ENERGY PREDICTED BY IDOCK:   -4.55 KCAL/MOL
REMARK 922        TOTAL FREE ENERGY PREDICTED BY IDOCK:   -5.35 KCAL/MOL
REMARK 923 INTER-LIGAND FREE ENERGY PREDICTED BY IDOCK:   -5.33 KCAL/MOL
REMARK 924 INTRA-LIGAND FREE ENERGY PREDICTED BY IDOCK:   -0.02 KCAL/MOL
REMARK 927      BINDING AFFINITY PREDICTED BY RF-SCORE:    0.00 PKD
ROOT
HETATM    1  C   UNL     1     -10.823   2.206  63.673  1.00  0.00    -0.054 C  
HETATM    2  C   UNL     1      -9.637   3.063  64.082  1.00  0.00    -0.146 C  
HETATM    3  C   UNL     1      -8.618   3.799  64.433  1.00  0.00    -0.102 C  
ENDROOT
BRANCH   3   4
HETATM    4  C   UNL     1      -7.505   4.671  64.765  1.00  0.00    -0.072 C  
HETATM    5  O   UNL     1      -6.987   5.305  63.853  1.00  0.00    -0.045 OA 
HETATM    6  N   UNL     1      -7.027   4.680  66.061  1.00  0.00    -0.065 N  
HETATM    7  C   UNL     1      -5.735   5.252  66.384  1.00  0.00    -0.018 C  
HETATM    8  C   UNL     1      -5.175   4.277  67.405  1.00  0.00    -0.012 C  
HETATM    9  C   UNL     1      -6.398   3.737  68.147  1.00  0.00    -0.037 C  
HETATM   10  C   UNL     1      -7.605   4.040  67.238  1.00  0.00    -0.073 C  
BRANCH  10  11
HETATM   11  C   UNL     1      -8.550   4.985  67.950  1.00  0.00    -0.103 A  
HETATM   12  N   UNL     1      -8.767   6.260  67.654  1.00  0.00    -0.114 NA 
HETATM   13  C   UNL     1      -9.593   6.770  68.643  1.00  0.00    -0.131 A  
HETATM   14  N   UNL     1     -11.674   6.554  71.130  1.00  0.00    -0.332 NA 
HETATM   15  C   UNL     1      -9.940   5.757  69.522  1.00  0.00    -0.191 A  
HETATM   16  C   UNL     1     -10.789   5.614  70.688  1.00  0.00    -0.234 A  
HETATM   17  N   UNL     1      -9.214   4.653  69.113  1.00  0.00    -0.118 NA 
HETATM   18  H2  UNL     1     -11.743   7.423  70.599  1.00  0.00     0.000 HD 
HETATM   19  C   UNL     1      -9.226   3.491  69.868  1.00  0.00    -0.147 A  
HETATM   20  C   UNL     1      -9.976   3.461  70.977  1.00  0.00     0.057 A  
HETATM   21  N   UNL     1     -10.778   4.501  71.388  1.00  0.00     0.159 NA 
HETATM   22  H1  UNL     1     -12.271   6.453  71.950  1.00  0.00     0.000 HD 
BRANCH  13  23
HETATM   23  C   UNL     1      -9.991   8.182  68.660  1.00  0.00    -0.201 A  
HETATM   24  C   UNL     1     -10.665  10.939  68.771  1.00  0.00    -0.243 A  
HETATM   25  C   UNL     1     -10.593  10.176  69.943  1.00  0.00    -0.331 A  
HETATM   26  C   UNL     1     -10.140   8.943  67.488  1.00  0.00    -0.285 A  
HETATM   27  C   UNL     1     -10.263   8.809  69.882  1.00  0.00    -0.206 A  
HETATM   28  C   UNL     1     -10.448  10.315  67.541  1.00  0.00    -0.293 A  
BRANCH  24  29
HETATM   29  C   UNL     1     -10.911  12.409  68.870  1.00  0.00    -0.223 C  
HETATM   30  H   UNL     1      -9.075  12.794  67.977  1.00  0.00     0.000 HD 
HETATM   31  O   UNL     1     -11.957  12.796  69.374  1.00  0.00    -0.301 OA 
HETATM   32  N   UNL     1      -9.942  13.219  68.307  1.00  0.00    -0.234 N  
BRANCH  32  33
HETATM   33  C   UNL     1     -10.110  14.604  68.173  1.00  0.00    -0.224 A  
HETATM   34  C   UNL     1      -9.180  15.517  68.661  1.00  0.00    -0.202 A  
HETATM   35  C   UNL     1      -9.456  16.879  68.548  1.00  0.00    -0.266 A  
HETATM   36  C   UNL     1     -10.659  17.282  67.986  1.00  0.00    -0.394 A  
HETATM   37  C   UNL     1     -11.510  16.302  67.501  1.00  0.00     0.168 A  
HETATM   38  N   UNL     1     -11.240  14.977  67.539  1.00  0.00    -0.322 NA 
ENDBRANCH  32  33
ENDBRANCH  24  29
ENDBRANCH  13  23
ENDBRANCH  10  11
ENDBRANCH   3   4
TORSDOF 5
ENDMDL
MODEL       78
REMARK 921   NORMALIZED FREE ENERGY PREDICTED BY IDOCK:   -4.53 KCAL/MOL
REMARK 922        TOTAL FREE ENERGY PREDICTED BY IDOCK:   -5.33 KCAL/MOL
REMARK 923 INTER-LIGAND FREE ENERGY PREDICTED BY IDOCK:   -4.94 KCAL/MOL
REMARK 924 INTRA-LIGAND FREE ENERGY PREDICTED BY IDOCK:   -0.39 KCAL/MOL
REMARK 927      BINDING AFFINITY PREDICTED BY RF-SCORE:    0.00 PKD
ROOT
HETATM    1  C   UNL     1     -10.972  18.289  69.399  1.00  0.00     1.449 C  
HETATM    2  C   UNL     1     -10.588  17.446  68.195  1.00  0.00    -0.376 C  
HETATM    3  C   UNL     1     -10.258  16.722  67.161  1.00  0.00    -0.295 C  
ENDROOT
BRANCH   3   4
HETATM    4  C   UNL     1      -9.965  15.883  66.012  1.00  0.00    -0.334 C  
HETATM    5  O   UNL     1      -8.959  16.139  65.363  1.00  0.00    -0.172 OA 
HETATM    6  N   UNL     1     -10.869  14.901  65.654  1.00  0.00    -0.324 N  
HETATM    7  C   UNL     1     -10.815  14.265  64.352  1.00  0.00    -0.150 C  
HETATM    8  C   UNL     1     -12.280  14.141  63.971  1.00  0.00    -0.369 C  
HETATM    9  C   UNL     1     -13.019  13.958  65.297  1.00  0.00    -0.341 C  
HETATM   10  C   UNL     1     -12.047  14.451  66.387  1.00  0.00    -0.369 C  
BRANCH  10  11
HETATM   11  C   UNL     1     -11.695  13.302  67.309  1.00  0.00    -0.377 A  
HETATM   12  N   UNL     1     -11.138  12.149  66.961  1.00  0.00    -0.277 NA 
HETATM   13  C   UNL     1     -11.128  11.347  68.091  1.00  0.00    -0.248 A  
HETATM   14  N   UNL     1     -11.334  10.770  71.283  1.00  0.00     0.061 NA 
HETATM   15  C   UNL     1     -11.628  12.061  69.168  1.00  0.00    -0.312 A  
HETATM   16  C   UNL     1     -11.824  11.837  70.587  1.00  0.00    -0.085 A  
HETATM   17  N   UNL     1     -12.052  13.269  68.642  1.00  0.00    -0.297 NA 
HETATM   18  H2  UNL     1     -10.790  10.079  70.766  1.00  0.00     0.000 HD 
HETATM   19  C   UNL     1     -12.735  14.175  69.437  1.00  0.00     0.327 A  
HETATM   20  C   UNL     1     -12.945  13.862  70.722  1.00  0.00    -0.196 A  
HETATM   21  N   UNL     1     -12.479  12.713  71.316  1.00  0.00    -0.259 NA 
HETATM   22  H1  UNL     1     -11.472  10.612  72.281  1.00  0.00     0.000 HD 
BRANCH  13  23
HETATM   23  C   UNL     1     -10.629   9.969  68.051  1.00  0.00    -0.280 A  
HETATM   24  C   UNL     1      -9.581   7.334  67.880  1.00  0.00    -0.153 A  
HETATM   25  C   UNL     1     -10.128   7.957  66.751  1.00  0.00    -0.352 A  
HETATM   26  C   UNL     1     -10.146   9.301  69.189  1.00  0.00    -0.204 A  
HETATM   27  C   UNL     1     -10.649   9.262  66.842  1.00  0.00    -0.239 A  
HETATM   28  C   UNL     1      -9.603   8.006  69.103  1.00  0.00    -0.156 A  
BRANCH  24  29
HETATM   29  C   UNL     1      -8.938   5.994  67.734  1.00  0.00    -0.111 C  
HETATM   30  H   UNL     1      -8.183   6.128  69.665  1.00  0.00     0.000 HD 
HETATM   31  O   UNL     1      -9.069   5.391  66.677  1.00  0.00    -0.119 OA 
HETATM   32  N   UNL     1      -8.294   5.512  68.860  1.00  0.00    -0.101 N  
BRANCH  32  33
HETATM   33  C   UNL     1      -7.789   4.207  68.931  1.00  0.00    -0.061 A  
HETATM   34  C   UNL     1      -6.449   3.913  68.698  1.00  0.00    -0.037 A  
HETATM   35  C   UNL     1      -6.041   2.580  68.721  1.00  0.00    -0.025 A  
HETATM   36  C   UNL     1      -6.985   1.587  68.943  1.00  0.00    -0.036 A  
HETATM   37  C   UNL     1      -8.291   1.976  69.196  1.00  0.00    -0.049 A  
HETATM   38  N   UNL     1      -8.702   3.265  69.242  1.00  0.00    -0.075 NA 
ENDBRANCH  32  33
ENDBRANCH  24  29
ENDBRANCH  13  23
ENDBRANCH  10  11
ENDBRANCH   3   4
TORSDOF 5
ENDMDL
MODEL       79
REMARK 921   NORMALIZED FREE ENERGY PREDICTED BY IDOCK:   -4.44 KCAL/MOL
REMARK 922        TOTAL FREE ENERGY PREDICTED BY IDOCK:   -5.22 KCAL/MOL
REMARK 923 INTER-LIGAND FREE ENERGY PREDICTED BY IDOCK:   -5.25 KCAL/MOL
REMARK 924 INTRA-LIGAND FREE ENERGY PREDICTED BY IDOCK:    0.03 KCAL/MOL
REMARK 927      BINDING AFFINITY PREDICTED BY RF-SCORE:    0.00 PKD
ROOT
HETATM    1  C   UNL     1      -7.516  19.950  64.556  1.00  0.00     1.292 C  
HETATM    2  C   UNL     1      -7.513  19.326  65.941  1.00  0.00    -0.282 C  
HETATM    3  C   UNL     1      -7.510  18.790  67.131  1.00  0.00    -0.234 C  
ENDROOT
BRANCH   3   4
HETATM    4  C   UNL     1      -7.428  18.208  68.459  1.00  0.00    -0.280 C  
HETATM    5  O   UNL     1      -7.795  18.894  69.404  1.00  0.00    -0.065 OA 
HETATM    6  N   UNL     1      -6.863  16.956  68.605  1.00  0.00    -0.173 N  
HETATM    7  C   UNL     1      -6.444  16.465  69.904  1.00  0.00    -0.069 C  
HETATM    8  C   UNL     1      -5.137  15.755  69.596  1.00  0.00    -0.105 C  
HETATM    9  C   UNL     1      -5.306  15.215  68.176  1.00  0.00    -0.131 C  
HETATM   10  C   UNL     1      -6.469  16.018  67.560  1.00  0.00    -0.177 C  
BRANCH  10  11
HETATM   11  C   UNL     1      -7.611  15.080  67.227  1.00  0.00    -0.194 A  
HETATM   12  N   UNL     1      -7.645  13.770  67.432  1.00  0.00    -0.166 NA 
HETATM   13  C   UNL     1      -8.813  13.301  66.851  1.00  0.00    -0.178 A  
HETATM   14  N   UNL     1     -11.786  13.608  65.575  1.00  0.00    -0.325 NA 
HETATM   15  C   UNL     1      -9.537  14.367  66.343  1.00  0.00    -0.299 A  
HETATM   16  C   UNL     1     -10.818  14.562  65.693  1.00  0.00    -0.326 A  
HETATM   17  N   UNL     1      -8.729  15.476  66.521  1.00  0.00    -0.289 NA 
HETATM   18  H2  UNL     1     -11.593  12.689  65.973  1.00  0.00     0.000 HD 
HETATM   19  C   UNL     1      -9.100  16.703  65.994  1.00  0.00    -0.224 A  
HETATM   20  C   UNL     1     -10.265  16.787  65.338  1.00  0.00    -0.073 A  
HETATM   21  N   UNL     1     -11.143  15.736  65.199  1.00  0.00    -0.351 NA 
HETATM   22  H1  UNL     1     -12.687  13.746  65.117  1.00  0.00     0.000 HD 
BRANCH  13  23
HETATM   23  C   UNL     1      -9.146  11.873  66.841  1.00  0.00    -0.196 A  
HETATM   24  C   UNL     1      -9.666   9.080  66.821  1.00  0.00    -0.279 A  
HETATM   25  C   UNL     1      -8.897   9.668  65.808  1.00  0.00    -0.186 A  
HETATM   26  C   UNL     1      -9.977  11.279  67.807  1.00  0.00    -0.193 A  
HETATM   27  C   UNL     1      -8.646  11.053  65.821  1.00  0.00    -0.151 A  
HETATM   28  C   UNL     1     -10.215   9.892  67.814  1.00  0.00    -0.241 A  
BRANCH  24  29
HETATM   29  C   UNL     1      -9.829   7.595  66.845  1.00  0.00    -0.234 C  
HETATM   30  H   UNL     1      -8.430   7.400  65.321  1.00  0.00     0.000 HD 
HETATM   31  O   UNL     1     -10.620   7.104  67.639  1.00  0.00    -0.215 OA 
HETATM   32  N   UNL     1      -9.001   6.887  65.993  1.00  0.00    -0.139 N  
BRANCH  32  33
HETATM   33  C   UNL     1      -8.919   5.488  66.021  1.00  0.00    -0.152 A  
HETATM   34  C   UNL     1      -9.501   4.688  65.042  1.00  0.00    -0.128 A  
HETATM   35  C   UNL     1      -9.432   3.303  65.181  1.00  0.00    -0.139 A  
HETATM   36  C   UNL     1      -8.817   2.764  66.304  1.00  0.00    -0.146 A  
HETATM   37  C   UNL     1      -8.239   3.638  67.210  1.00  0.00    -0.091 A  
HETATM   38  N   UNL     1      -8.235   4.984  67.068  1.00  0.00    -0.107 NA 
ENDBRANCH  32  33
ENDBRANCH  24  29
ENDBRANCH  13  23
ENDBRANCH  10  11
ENDBRANCH   3   4
TORSDOF 5
ENDMDL
MODEL       80
REMARK 921   NORMALIZED FREE ENERGY PREDICTED BY IDOCK:   -4.36 KCAL/MOL
REMARK 922        TOTAL FREE ENERGY PREDICTED BY IDOCK:   -5.11 KCAL/MOL
REMARK 923 INTER-LIGAND FREE ENERGY PREDICTED BY IDOCK:   -5.49 KCAL/MOL
REMARK 924 INTRA-LIGAND FREE ENERGY PREDICTED BY IDOCK:    0.39 KCAL/MOL
REMARK 927      BINDING AFFINITY PREDICTED BY RF-SCORE:    0.00 PKD
ROOT
HETATM    1  C   UNL     1     -13.914  13.457  72.209  1.00  0.00    -0.605 C  
HETATM    2  C   UNL     1     -12.699  14.075  71.537  1.00  0.00    -0.443 C  
HETATM    3  C   UNL     1     -11.656  14.605  70.961  1.00  0.00    -0.277 C  
ENDROOT
BRANCH   3   4
HETATM    4  C   UNL     1     -10.546  15.235  70.269  1.00  0.00    -0.232 C  
HETATM    5  O   UNL     1      -9.637  15.694  70.950  1.00  0.00     0.966 OA 
HETATM    6  N   UNL     1     -10.603  15.368  68.894  1.00  0.00    -0.235 N  
HETATM    7  C   UNL     1      -9.714  16.267  68.186  1.00  0.00    -0.227 C  
HETATM    8  C   UNL     1     -10.618  16.882  67.132  1.00  0.00    -0.249 C  
HETATM    9  C   UNL     1     -11.634  15.789  66.798  1.00  0.00     0.333 C  
HETATM   10  C   UNL     1     -11.581  14.796  67.975  1.00  0.00    -0.343 C  
BRANCH  10  11
HETATM   11  C   UNL     1     -11.117  13.444  67.476  1.00  0.00    -0.274 A  
HETATM   12  N   UNL     1     -10.666  12.439  68.216  1.00  0.00    -0.222 NA 
HETATM   13  C   UNL     1     -10.226  11.458  67.340  1.00  0.00    -0.193 A  
HETATM   14  N   UNL     1     -10.000   9.991  64.450  1.00  0.00    -0.425 NA 
HETATM   15  C   UNL     1     -10.483  11.853  66.038  1.00  0.00    -0.245 A  
HETATM   16  C   UNL     1     -10.332  11.288  64.712  1.00  0.00    -0.307 A  
HETATM   17  N   UNL     1     -10.978  13.142  66.137  1.00  0.00    -0.281 NA 
HETATM   18  H2  UNL     1      -9.846   9.373  65.247  1.00  0.00     0.000 HD 
HETATM   19  C   UNL     1     -11.213  13.889  64.994  1.00  0.00    -0.342 A  
HETATM   20  C   UNL     1     -10.976  13.323  63.803  1.00  0.00    -0.084 A  
HETATM   21  N   UNL     1     -10.559  12.021  63.645  1.00  0.00    -0.411 NA 
HETATM   22  H1  UNL     1      -9.894   9.593  63.517  1.00  0.00     0.000 HD 
BRANCH  13  23
HETATM   23  C   UNL     1      -9.607  10.220  67.823  1.00  0.00    -0.171 A  
HETATM   24  C   UNL     1      -8.311   7.890  68.803  1.00  0.00    -0.128 A  
HETATM   25  C   UNL     1      -7.654   8.748  67.912  1.00  0.00    -0.097 A  
HETATM   26  C   UNL     1     -10.277   9.310  68.658  1.00  0.00    -0.220 A  
HETATM   27  C   UNL     1      -8.302   9.899  67.426  1.00  0.00    -0.118 A  
HETATM   28  C   UNL     1      -9.629   8.169  69.166  1.00  0.00    -0.157 A  
BRANCH  24  29
HETATM   29  C   UNL     1      -7.566   6.735  69.388  1.00  0.00    -0.096 C  
HETATM   30  H   UNL     1      -8.079   7.352  71.304  1.00  0.00     0.000 HD 
HETATM   31  O   UNL     1      -7.001   5.956  68.630  1.00  0.00    -0.067 OA 
HETATM   32  N   UNL     1      -7.641   6.606  70.763  1.00  0.00    -0.091 N  
BRANCH  32  33
HETATM   33  C   UNL     1      -7.137   5.486  71.438  1.00  0.00    -0.071 A  
HETATM   34  C   UNL     1      -7.781   4.927  72.538  1.00  0.00    -0.093 A  
HETATM   35  C   UNL     1      -7.178   3.856  73.195  1.00  0.00    -0.063 A  
HETATM   36  C   UNL     1      -5.941   3.402  72.756  1.00  0.00    -0.008 A  
HETATM   37  C   UNL     1      -5.390   4.001  71.634  1.00  0.00     0.000 A  
HETATM   38  N   UNL     1      -5.983   4.999  70.940  1.00  0.00    -0.017 NA 
ENDBRANCH  32  33
ENDBRANCH  24  29
ENDBRANCH  13  23
ENDBRANCH  10  11
ENDBRANCH   3   4
TORSDOF 5
ENDMDL
MODEL       81
REMARK 921   NORMALIZED FREE ENERGY PREDICTED BY IDOCK:   -4.28 KCAL/MOL
REMARK 922        TOTAL FREE ENERGY PREDICTED BY IDOCK:   -5.01 KCAL/MOL
REMARK 923 INTER-LIGAND FREE ENERGY PREDICTED BY IDOCK:   -6.71 KCAL/MOL
REMARK 924 INTRA-LIGAND FREE ENERGY PREDICTED BY IDOCK:    1.70 KCAL/MOL
REMARK 927      BINDING AFFINITY PREDICTED BY RF-SCORE:    0.00 PKD
ROOT
HETATM    1  C   UNL     1      -5.336  16.546  67.283  1.00  0.00    -0.155 C  
HETATM    2  C   UNL     1      -6.847  16.677  67.386  1.00  0.00    -0.195 C  
HETATM    3  C   UNL     1      -8.143  16.788  67.475  1.00  0.00    -0.188 C  
ENDROOT
BRANCH   3   4
HETATM    4  C   UNL     1      -9.576  16.990  67.596  1.00  0.00    -0.249 C  
HETATM    5  O   UNL     1     -10.070  17.934  66.991  1.00  0.00    -0.311 OA 
HETATM    6  N   UNL     1     -10.297  16.174  68.447  1.00  0.00    -0.248 N  
HETATM    7  C   UNL     1     -11.639  16.525  68.870  1.00  0.00    -0.037 C  
HETATM    8  C   UNL     1     -11.650  16.124  70.335  1.00  0.00    -0.293 C  
HETATM    9  C   UNL     1     -10.705  14.925  70.424  1.00  0.00    -0.054 C  
HETATM   10  C   UNL     1      -9.841  14.980  69.150  1.00  0.00    -0.223 C  
BRANCH  10  11
HETATM   11  C   UNL     1     -10.092  13.742  68.314  1.00  0.00    -0.239 A  
HETATM   12  N   UNL     1      -9.900  12.483  68.686  1.00  0.00    -0.136 NA 
HETATM   13  C   UNL     1     -10.121  11.693  67.569  1.00  0.00    -0.191 A  
HETATM   14  N   UNL     1     -11.240  11.084  64.579  1.00  0.00    -0.092 NA 
HETATM   15  C   UNL     1     -10.526  12.491  66.512  1.00  0.00    -0.238 A  
HETATM   16  C   UNL     1     -10.955  12.294  65.142  1.00  0.00    -0.303 A  
HETATM   17  N   UNL     1     -10.431  13.791  66.977  1.00  0.00    -0.272 NA 
HETATM   18  H2  UNL     1     -11.143  10.256  65.168  1.00  0.00     0.000 HD 
HETATM   19  C   UNL     1     -10.637  14.857  66.116  1.00  0.00    -0.318 A  
HETATM   20  C   UNL     1     -10.955  14.594  64.842  1.00  0.00    -0.407 A  
HETATM   21  N   UNL     1     -11.140  13.325  64.346  1.00  0.00    -0.367 NA 
HETATM   22  H1  UNL     1     -11.541  10.946  63.615  1.00  0.00     0.000 HD 
BRANCH  13  23
HETATM   23  C   UNL     1      -9.939  10.238  67.609  1.00  0.00    -0.212 A  
HETATM   24  C   UNL     1      -9.591   7.426  67.813  1.00  0.00    -0.162 A  
HETATM   25  C   UNL     1      -8.709   8.301  68.459  1.00  0.00    -0.133 A  
HETATM   26  C   UNL     1     -10.769   9.349  66.906  1.00  0.00    -0.174 A  
HETATM   27  C   UNL     1      -8.883   9.694  68.352  1.00  0.00    -0.123 A  
HETATM   28  C   UNL     1     -10.615   7.955  67.026  1.00  0.00    -0.381 A  
BRANCH  24  29
HETATM   29  C   UNL     1      -9.450   5.955  68.029  1.00  0.00    -0.108 C  
HETATM   30  H   UNL     1      -8.765   6.288  69.962  1.00  0.00     0.000 HD 
HETATM   31  O   UNL     1      -9.744   5.196  67.115  1.00  0.00    -0.136 OA 
HETATM   32  N   UNL     1      -9.055   5.570  69.298  1.00  0.00    -0.111 N  
BRANCH  32  33
HETATM   33  C   UNL     1      -9.039   4.228  69.701  1.00  0.00    -0.115 A  
HETATM   34  C   UNL     1      -8.353   3.246  68.993  1.00  0.00    -0.083 A  
HETATM   35  C   UNL     1      -8.444   1.923  69.423  1.00  0.00    -0.084 A  
HETATM   36  C   UNL     1      -9.240   1.621  70.520  1.00  0.00    -0.158 A  
HETATM   37  C   UNL     1      -9.861   2.668  71.180  1.00  0.00    -0.022 A  
HETATM   38  N   UNL     1      -9.739   3.968  70.824  1.00  0.00    -0.192 NA 
ENDBRANCH  32  33
ENDBRANCH  24  29
ENDBRANCH  13  23
ENDBRANCH  10  11
ENDBRANCH   3   4
TORSDOF 5
ENDMDL
MODEL       82
REMARK 921   NORMALIZED FREE ENERGY PREDICTED BY IDOCK:   -4.21 KCAL/MOL
REMARK 922        TOTAL FREE ENERGY PREDICTED BY IDOCK:   -4.91 KCAL/MOL
REMARK 923 INTER-LIGAND FREE ENERGY PREDICTED BY IDOCK:   -5.45 KCAL/MOL
REMARK 924 INTRA-LIGAND FREE ENERGY PREDICTED BY IDOCK:    0.53 KCAL/MOL
REMARK 927      BINDING AFFINITY PREDICTED BY RF-SCORE:    0.00 PKD
ROOT
HETATM    1  C   UNL     1      -9.278  10.147  62.343  1.00  0.00    -0.320 C  
HETATM    2  C   UNL     1      -8.667   8.970  63.085  1.00  0.00    -0.114 C  
HETATM    3  C   UNL     1      -8.142   7.961  63.722  1.00  0.00    -0.079 C  
ENDROOT
BRANCH   3   4
HETATM    4  C   UNL     1      -7.485   6.869  64.418  1.00  0.00    -0.100 C  
HETATM    5  O   UNL     1      -6.437   6.443  63.948  1.00  0.00    -0.029 OA 
HETATM    6  N   UNL     1      -8.107   6.305  65.516  1.00  0.00    -0.122 N  
HETATM    7  C   UNL     1      -7.687   5.021  66.043  1.00  0.00    -0.091 C  
HETATM    8  C   UNL     1      -9.003   4.350  66.394  1.00  0.00    -0.117 C  
HETATM    9  C   UNL     1      -9.937   5.493  66.792  1.00  0.00    -0.210 C  
HETATM   10  C   UNL     1      -9.301   6.771  66.212  1.00  0.00    -0.100 C  
BRANCH  10  11
HETATM   11  C   UNL     1      -8.927   7.708  67.342  1.00  0.00    -0.126 A  
HETATM   12  N   UNL     1      -8.594   8.988  67.232  1.00  0.00    -0.114 NA 
HETATM   13  C   UNL     1      -8.197   9.411  68.491  1.00  0.00    -0.113 A  
HETATM   14  N   UNL     1      -7.962   9.189  71.724  1.00  0.00    -0.309 NA 
HETATM   15  C   UNL     1      -8.361   8.378  69.399  1.00  0.00    -0.120 A  
HETATM   16  C   UNL     1      -8.198   8.189  70.826  1.00  0.00    -0.111 A  
HETATM   17  N   UNL     1      -8.753   7.286  68.644  1.00  0.00    -0.128 NA 
HETATM   18  H2  UNL     1      -7.896  10.141  71.364  1.00  0.00     0.000 HD 
HETATM   19  C   UNL     1      -8.874   6.038  69.233  1.00  0.00    -0.123 A  
HETATM   20  C   UNL     1      -8.631   5.927  70.546  1.00  0.00    -0.136 A  
HETATM   21  N   UNL     1      -8.315   6.992  71.358  1.00  0.00    -0.113 NA 
HETATM   22  H1  UNL     1      -7.847   9.055  72.729  1.00  0.00     0.000 HD 
BRANCH  13  23
HETATM   23  C   UNL     1      -7.704  10.773  68.723  1.00  0.00    -0.121 A  
HETATM   24  C   UNL     1      -6.865  13.441  69.219  1.00  0.00    -0.036 A  
HETATM   25  C   UNL     1      -7.976  13.184  68.407  1.00  0.00    -0.130 A  
HETATM   26  C   UNL     1      -6.548  11.045  69.473  1.00  0.00    -0.118 A  
HETATM   27  C   UNL     1      -8.386  11.860  68.161  1.00  0.00    -0.161 A  
HETATM   28  C   UNL     1      -6.144  12.366  69.742  1.00  0.00    -0.137 A  
BRANCH  24  29
HETATM   29  C   UNL     1      -6.514  14.854  69.552  1.00  0.00    -0.143 C  
HETATM   30  H   UNL     1      -7.270  15.490  67.724  1.00  0.00     0.000 HD 
HETATM   31  O   UNL     1      -5.981  15.089  70.629  1.00  0.00    -0.136 OA 
HETATM   32  N   UNL     1      -6.896  15.803  68.620  1.00  0.00    -0.118 N  
BRANCH  32  33
HETATM   33  C   UNL     1      -6.787  17.178  68.865  1.00  0.00    -0.221 A  
HETATM   34  C   UNL     1      -5.691  17.734  69.519  1.00  0.00    -0.230 A  
HETATM   35  C   UNL     1      -5.692  19.102  69.785  1.00  0.00    -0.260 A  
HETATM   36  C   UNL     1      -6.796  19.862  69.421  1.00  0.00    -0.329 A  
HETATM   37  C   UNL     1      -7.827  19.228  68.747  1.00  0.00    -0.353 A  
HETATM   38  N   UNL     1      -7.825  17.915  68.420  1.00  0.00    -0.278 NA 
ENDBRANCH  32  33
ENDBRANCH  24  29
ENDBRANCH  13  23
ENDBRANCH  10  11
ENDBRANCH   3   4
TORSDOF 5
ENDMDL
MODEL       83
REMARK 921   NORMALIZED FREE ENERGY PREDICTED BY IDOCK:   -4.12 KCAL/MOL
REMARK 922        TOTAL FREE ENERGY PREDICTED BY IDOCK:   -4.81 KCAL/MOL
REMARK 923 INTER-LIGAND FREE ENERGY PREDICTED BY IDOCK:   -4.62 KCAL/MOL
REMARK 924 INTRA-LIGAND FREE ENERGY PREDICTED BY IDOCK:   -0.19 KCAL/MOL
REMARK 927      BINDING AFFINITY PREDICTED BY RF-SCORE:    0.00 PKD
ROOT
HETATM    1  C   UNL     1     -11.072  18.734  65.933  1.00  0.00     0.301 C  
HETATM    2  C   UNL     1     -10.512  17.848  67.033  1.00  0.00    -0.345 C  
HETATM    3  C   UNL     1     -10.031  17.087  67.977  1.00  0.00    -0.283 C  
ENDROOT
BRANCH   3   4
HETATM    4  C   UNL     1      -9.552  16.185  69.009  1.00  0.00    -0.251 C  
HETATM    5  O   UNL     1     -10.040  16.291  70.128  1.00  0.00    -0.023 OA 
HETATM    6  N   UNL     1      -8.518  15.318  68.712  1.00  0.00    -0.168 N  
HETATM    7  C   UNL     1      -7.775  14.644  69.759  1.00  0.00     0.137 C  
HETATM    8  C   UNL     1      -6.345  14.699  69.252  1.00  0.00    -0.116 C  
HETATM    9  C   UNL     1      -6.463  14.650  67.729  1.00  0.00    -0.182 C  
HETATM   10  C   UNL     1      -7.918  15.045  67.410  1.00  0.00    -0.194 C  
BRANCH  10  11
HETATM   11  C   UNL     1      -8.620  13.887  66.732  1.00  0.00    -0.041 A  
HETATM   12  N   UNL     1      -8.268  12.609  66.781  1.00  0.00    -0.040 NA 
HETATM   13  C   UNL     1      -9.101  11.926  65.908  1.00  0.00    -0.083 A  
HETATM   14  N   UNL     1     -11.739  11.567  64.044  1.00  0.00    -0.335 NA 
HETATM   15  C   UNL     1     -10.027  12.806  65.370  1.00  0.00    -0.199 A  
HETATM   16  C   UNL     1     -11.166  12.727  64.478  1.00  0.00    -0.333 A  
HETATM   17  N   UNL     1      -9.663  14.054  65.844  1.00  0.00    -0.263 NA 
HETATM   18  H2  UNL     1     -11.335  10.689  64.373  1.00  0.00     0.000 HD 
HETATM   19  C   UNL     1     -10.309  15.190  65.383  1.00  0.00    -0.388 A  
HETATM   20  C   UNL     1     -11.304  15.042  64.498  1.00  0.00    -0.287 A  
HETATM   21  N   UNL     1     -11.758  13.822  64.055  1.00  0.00    -0.366 NA 
HETATM   22  H1  UNL     1     -12.540  11.512  63.416  1.00  0.00     0.000 HD 
BRANCH  13  23
HETATM   23  C   UNL     1      -8.950  10.487  65.669  1.00  0.00    -0.200 A  
HETATM   24  C   UNL     1      -8.549   7.703  65.275  1.00  0.00    -0.044 A  
HETATM   25  C   UNL     1      -7.569   8.625  64.887  1.00  0.00    -0.100 A  
HETATM   26  C   UNL     1      -9.953   9.555  65.984  1.00  0.00    -0.348 A  
HETATM   27  C   UNL     1      -7.774  10.004  65.080  1.00  0.00    -0.137 A  
HETATM   28  C   UNL     1      -9.747   8.173  65.814  1.00  0.00     0.232 A  
BRANCH  24  29
HETATM   29  C   UNL     1      -8.264   6.241  65.158  1.00  0.00    -0.138 C  
HETATM   30  H   UNL     1      -7.093   6.315  66.873  1.00  0.00     0.000 HD 
HETATM   31  O   UNL     1      -8.753   5.620  64.223  1.00  0.00    -0.033 OA 
HETATM   32  N   UNL     1      -7.511   5.693  66.181  1.00  0.00    -0.081 N  
BRANCH  32  33
HETATM   33  C   UNL     1      -7.302   4.312  66.298  1.00  0.00    -0.080 A  
HETATM   34  C   UNL     1      -7.417   3.642  67.513  1.00  0.00    -0.067 A  
HETATM   35  C   UNL     1      -7.126   2.280  67.557  1.00  0.00    -0.048 A  
HETATM   36  C   UNL     1      -6.699   1.641  66.400  1.00  0.00    -0.027 A  
HETATM   37  C   UNL     1      -6.644   2.382  65.231  1.00  0.00    -0.031 A  
HETATM   38  N   UNL     1      -6.982   3.689  65.146  1.00  0.00    -0.056 NA 
ENDBRANCH  32  33
ENDBRANCH  24  29
ENDBRANCH  13  23
ENDBRANCH  10  11
ENDBRANCH   3   4
TORSDOF 5
ENDMDL
MODEL       84
REMARK 921   NORMALIZED FREE ENERGY PREDICTED BY IDOCK:   -4.10 KCAL/MOL
REMARK 922        TOTAL FREE ENERGY PREDICTED BY IDOCK:   -4.78 KCAL/MOL
REMARK 923 INTER-LIGAND FREE ENERGY PREDICTED BY IDOCK:   -4.77 KCAL/MOL
REMARK 924 INTRA-LIGAND FREE ENERGY PREDICTED BY IDOCK:   -0.01 KCAL/MOL
REMARK 927      BINDING AFFINITY PREDICTED BY RF-SCORE:    0.00 PKD
ROOT
HETATM    1  C   UNL     1      -9.357  10.186  62.537  1.00  0.00    -0.313 C  
HETATM    2  C   UNL     1      -8.607   9.167  63.378  1.00  0.00    -0.178 C  
HETATM    3  C   UNL     1      -7.963   8.292  64.099  1.00  0.00    -0.148 C  
ENDROOT
BRANCH   3   4
HETATM    4  C   UNL     1      -7.177   7.340  64.864  1.00  0.00    -0.071 C  
HETATM    5  O   UNL     1      -6.235   6.796  64.301  1.00  0.00    -0.034 OA 
HETATM    6  N   UNL     1      -7.575   7.026  66.150  1.00  0.00    -0.093 N  
HETATM    7  C   UNL     1      -7.054   5.860  66.837  1.00  0.00    -0.070 C  
HETATM    8  C   UNL     1      -8.274   5.314  67.557  1.00  0.00    -0.100 C  
HETATM    9  C   UNL     1      -9.123   6.543  67.885  1.00  0.00    -0.113 C  
HETATM   10  C   UNL     1      -8.617   7.659  66.950  1.00  0.00    -0.123 C  
BRANCH  10  11
HETATM   11  C   UNL     1      -8.042   8.790  67.777  1.00  0.00    -0.107 A  
HETATM   12  N   UNL     1      -7.977  10.069  67.433  1.00  0.00    -0.106 NA 
HETATM   13  C   UNL     1      -7.252  10.718  68.421  1.00  0.00    -0.085 A  
HETATM   14  N   UNL     1      -5.909  11.003  71.366  1.00  0.00    -0.334 NA 
HETATM   15  C   UNL     1      -6.932   9.818  69.424  1.00  0.00    -0.059 A  
HETATM   16  C   UNL     1      -6.269   9.861  70.712  1.00  0.00    -0.093 A  
HETATM   17  N   UNL     1      -7.373   8.588  68.968  1.00  0.00    -0.079 NA 
HETATM   18  H2  UNL     1      -6.123  11.893  70.915  1.00  0.00     0.000 HD 
HETATM   19  C   UNL     1      -7.085   7.435  69.680  1.00  0.00    -0.072 A  
HETATM   20  C   UNL     1      -6.399   7.548  70.824  1.00  0.00    -0.038 A  
HETATM   21  N   UNL     1      -6.005   8.751  71.364  1.00  0.00    -0.047 NA 
HETATM   22  H1  UNL     1      -5.442  11.034  72.272  1.00  0.00     0.000 HD 
BRANCH  13  23
HETATM   23  C   UNL     1      -6.937  12.147  68.330  1.00  0.00    -0.080 A  
HETATM   24  C   UNL     1      -6.273  14.894  68.039  1.00  0.00    -0.163 A  
HETATM   25  C   UNL     1      -5.279  13.910  67.964  1.00  0.00    -0.101 A  
HETATM   26  C   UNL     1      -7.909  13.151  68.477  1.00  0.00    -0.105 A  
HETATM   27  C   UNL     1      -5.613  12.550  68.113  1.00  0.00    -0.068 A  
HETATM   28  C   UNL     1      -7.588  14.511  68.308  1.00  0.00    -0.121 A  
BRANCH  24  29
HETATM   29  C   UNL     1      -5.912  16.318  67.771  1.00  0.00    -0.138 C  
HETATM   30  H   UNL     1      -7.140  16.332  66.095  1.00  0.00     0.000 HD 
HETATM   31  O   UNL     1      -5.131  16.879  68.529  1.00  0.00    -0.115 OA 
HETATM   32  N   UNL     1      -6.563  16.912  66.704  1.00  0.00    -0.219 N  
BRANCH  32  33
HETATM   33  C   UNL     1      -6.455  18.282  66.432  1.00  0.00    -0.202 A  
HETATM   34  C   UNL     1      -7.075  19.249  67.219  1.00  0.00    -0.222 A  
HETATM   35  C   UNL     1      -6.976  20.586  66.839  1.00  0.00    -0.342 A  
HETATM   36  C   UNL     1      -6.293  20.911  65.675  1.00  0.00    -0.239 A  
HETATM   37  C   UNL     1      -5.682  19.885  64.972  1.00  0.00    -0.191 A  
HETATM   38  N   UNL     1      -5.709  18.586  65.352  1.00  0.00    -0.197 NA 
ENDBRANCH  32  33
ENDBRANCH  24  29
ENDBRANCH  13  23
ENDBRANCH  10  11
ENDBRANCH   3   4
TORSDOF 5
ENDMDL
MODEL       85
REMARK 921   NORMALIZED FREE ENERGY PREDICTED BY IDOCK:   -4.08 KCAL/MOL
REMARK 922        TOTAL FREE ENERGY PREDICTED BY IDOCK:   -4.75 KCAL/MOL
REMARK 923 INTER-LIGAND FREE ENERGY PREDICTED BY IDOCK:   -3.51 KCAL/MOL
REMARK 924 INTRA-LIGAND FREE ENERGY PREDICTED BY IDOCK:   -1.23 KCAL/MOL
REMARK 927      BINDING AFFINITY PREDICTED BY RF-SCORE:    0.00 PKD
ROOT
HETATM    1  C   UNL     1      -5.190  19.524  71.766  1.00  0.00    -0.399 C  
HETATM    2  C   UNL     1      -5.578  19.193  70.335  1.00  0.00    -0.250 C  
HETATM    3  C   UNL     1      -5.911  18.909  69.106  1.00  0.00    -0.237 C  
ENDROOT
BRANCH   3   4
HETATM    4  C   UNL     1      -6.305  18.670  67.729  1.00  0.00    -0.202 C  
HETATM    5  O   UNL     1      -5.723  19.297  66.853  1.00  0.00    -0.167 OA 
HETATM    6  N   UNL     1      -7.367  17.822  67.476  1.00  0.00    -0.196 N  
HETATM    7  C   UNL     1      -8.022  17.800  66.183  1.00  0.00    -0.202 C  
HETATM    8  C   UNL     1      -9.490  17.665  66.546  1.00  0.00    -0.294 C  
HETATM    9  C   UNL     1      -9.504  16.854  67.842  1.00  0.00    -0.239 C  
HETATM   10  C   UNL     1      -8.078  16.964  68.417  1.00  0.00    -0.237 C  
BRANCH  10  11
HETATM   11  C   UNL     1      -7.445  15.589  68.468  1.00  0.00    -0.118 A  
HETATM   12  N   UNL     1      -7.455  14.677  67.506  1.00  0.00    -0.184 NA 
HETATM   13  C   UNL     1      -6.886  13.528  68.032  1.00  0.00    -0.136 A  
HETATM   14  N   UNL     1      -5.144  11.841  70.197  1.00  0.00    -0.074 NA 
HETATM   15  C   UNL     1      -6.457  13.776  69.326  1.00  0.00    -0.112 A  
HETATM   16  C   UNL     1      -5.755  13.050  70.365  1.00  0.00    -0.169 A  
HETATM   17  N   UNL     1      -6.884  15.061  69.613  1.00  0.00    -0.172 NA 
HETATM   18  H2  UNL     1      -5.185  11.417  69.270  1.00  0.00     0.000 HD 
HETATM   19  C   UNL     1      -6.735  15.577  70.890  1.00  0.00     0.947 A  
HETATM   20  C   UNL     1      -6.145  14.814  71.820  1.00  0.00     0.447 A  
HETATM   21  N   UNL     1      -5.631  13.563  71.569  1.00  0.00    -0.328 NA 
HETATM   22  H1  UNL     1      -4.651  11.330  70.929  1.00  0.00     0.000 HD 
BRANCH  13  23
HETATM   23  C   UNL     1      -6.788  12.291  67.250  1.00  0.00    -0.140 A  
HETATM   24  C   UNL     1      -6.512   9.852  65.819  1.00  0.00    -0.092 A  
HETATM   25  C   UNL     1      -5.397  10.664  66.065  1.00  0.00    -0.099 A  
HETATM   26  C   UNL     1      -7.907  11.503  66.931  1.00  0.00    -0.163 A  
HETATM   27  C   UNL     1      -5.540  11.873  66.771  1.00  0.00    -0.059 A  
HETATM   28  C   UNL     1      -7.770  10.282  66.245  1.00  0.00    -0.116 A  
BRANCH  24  29
HETATM   29  C   UNL     1      -6.319   8.525  65.163  1.00  0.00    -0.056 C  
HETATM   30  H   UNL     1      -7.979   7.772  66.159  1.00  0.00     0.000 HD 
HETATM   31  O   UNL     1      -5.381   8.383  64.389  1.00  0.00    -0.043 OA 
HETATM   32  N   UNL     1      -7.281   7.571  65.444  1.00  0.00    -0.067 N  
BRANCH  32  33
HETATM   33  C   UNL     1      -7.329   6.339  64.778  1.00  0.00    -0.075 A  
HETATM   34  C   UNL     1      -6.543   5.255  65.159  1.00  0.00    -0.040 A  
HETATM   35  C   UNL     1      -6.600   4.086  64.402  1.00  0.00    -0.043 A  
HETATM   36  C   UNL     1      -7.410   4.049  63.275  1.00  0.00    -0.050 A  
HETATM   37  C   UNL     1      -8.180   5.165  62.990  1.00  0.00    -0.109 A  
HETATM   38  N   UNL     1      -8.192   6.289  63.744  1.00  0.00    -0.039 NA 
ENDBRANCH  32  33
ENDBRANCH  24  29
ENDBRANCH  13  23
ENDBRANCH  10  11
ENDBRANCH   3   4
TORSDOF 5
ENDMDL
MODEL       86
REMARK 921   NORMALIZED FREE ENERGY PREDICTED BY IDOCK:   -3.96 KCAL/MOL
REMARK 922        TOTAL FREE ENERGY PREDICTED BY IDOCK:   -4.60 KCAL/MOL
REMARK 923 INTER-LIGAND FREE ENERGY PREDICTED BY IDOCK:   -5.66 KCAL/MOL
REMARK 924 INTRA-LIGAND FREE ENERGY PREDICTED BY IDOCK:    1.06 KCAL/MOL
REMARK 927      BINDING AFFINITY PREDICTED BY RF-SCORE:    0.00 PKD
ROOT
HETATM    1  C   UNL     1     -12.858  13.887  65.401  1.00  0.00    -0.466 C  
HETATM    2  C   UNL     1     -12.097  14.656  66.468  1.00  0.00    -0.230 C  
HETATM    3  C   UNL     1     -11.443  15.316  67.383  1.00  0.00    -0.246 C  
ENDROOT
BRANCH   3   4
HETATM    4  C   UNL     1     -10.672  16.086  68.343  1.00  0.00    -0.289 C  
HETATM    5  O   UNL     1     -11.282  16.641  69.248  1.00  0.00    -0.260 OA 
HETATM    6  N   UNL     1      -9.312  16.231  68.145  1.00  0.00    -0.207 N  
HETATM    7  C   UNL     1      -8.551  17.242  68.853  1.00  0.00    -0.170 C  
HETATM    8  C   UNL     1      -7.597  17.758  67.790  1.00  0.00    -0.213 C  
HETATM    9  C   UNL     1      -7.326  16.555  66.885  1.00  0.00    -0.260 C  
HETATM   10  C   UNL     1      -8.468  15.559  67.163  1.00  0.00    -0.212 C  
BRANCH  10  11
HETATM   11  C   UNL     1      -7.895  14.280  67.738  1.00  0.00    -0.165 A  
HETATM   12  N   UNL     1      -8.237  13.041  67.409  1.00  0.00    -0.177 NA 
HETATM   13  C   UNL     1      -7.568  12.193  68.277  1.00  0.00    -0.132 A  
HETATM   14  N   UNL     1      -5.289  11.435  70.466  1.00  0.00    -0.108 NA 
HETATM   15  C   UNL     1      -6.746  12.937  69.107  1.00  0.00    -0.086 A  
HETATM   16  C   UNL     1      -5.776  12.670  70.151  1.00  0.00    -0.154 A  
HETATM   17  N   UNL     1      -7.020  14.259  68.804  1.00  0.00    -0.096 NA 
HETATM   18  H2  UNL     1      -5.633  10.640  69.927  1.00  0.00     0.000 HD 
HETATM   19  C   UNL     1      -6.459  15.278  69.557  1.00  0.00    -0.152 A  
HETATM   20  C   UNL     1      -5.631  14.949  70.557  1.00  0.00    -0.142 A  
HETATM   21  N   UNL     1      -5.263  13.656  70.852  1.00  0.00    -0.124 NA 
HETATM   22  H1  UNL     1      -4.607  11.247  71.201  1.00  0.00     0.000 HD 
BRANCH  13  23
HETATM   23  C   UNL     1      -7.762  10.740  68.233  1.00  0.00    -0.109 A  
HETATM   24  C   UNL     1      -8.252   7.942  68.197  1.00  0.00    -0.123 A  
HETATM   25  C   UNL     1      -8.342   8.665  69.393  1.00  0.00    -0.114 A  
HETATM   26  C   UNL     1      -7.603   9.987  67.057  1.00  0.00    -0.092 A  
HETATM   27  C   UNL     1      -8.093  10.050  69.406  1.00  0.00    -0.150 A  
HETATM   28  C   UNL     1      -7.871   8.606  67.030  1.00  0.00    -0.096 A  
BRANCH  24  29
HETATM   29  C   UNL     1      -8.624   6.495  68.188  1.00  0.00    -0.118 C  
HETATM   30  H   UNL     1      -7.592   6.223  66.407  1.00  0.00     0.000 HD 
HETATM   31  O   UNL     1      -9.310   6.060  69.105  1.00  0.00    -0.124 OA 
HETATM   32  N   UNL     1      -8.091   5.744  67.156  1.00  0.00    -0.102 N  
BRANCH  32  33
HETATM   33  C   UNL     1      -8.212   4.349  67.107  1.00  0.00    -0.101 A  
HETATM   34  C   UNL     1      -9.065   3.645  67.951  1.00  0.00    -0.196 A  
HETATM   35  C   UNL     1      -9.075   2.253  67.884  1.00  0.00    -0.220 A  
HETATM   36  C   UNL     1      -8.214   1.611  67.004  1.00  0.00    -0.076 A  
HETATM   37  C   UNL     1      -7.422   2.395  66.181  1.00  0.00    -0.067 A  
HETATM   38  N   UNL     1      -7.438   3.748  66.180  1.00  0.00    -0.079 NA 
ENDBRANCH  32  33
ENDBRANCH  24  29
ENDBRANCH  13  23
ENDBRANCH  10  11
ENDBRANCH   3   4
TORSDOF 5
ENDMDL
MODEL       87
REMARK 921   NORMALIZED FREE ENERGY PREDICTED BY IDOCK:   -3.32 KCAL/MOL
REMARK 922        TOTAL FREE ENERGY PREDICTED BY IDOCK:   -3.76 KCAL/MOL
REMARK 923 INTER-LIGAND FREE ENERGY PREDICTED BY IDOCK:   -4.55 KCAL/MOL
REMARK 924 INTRA-LIGAND FREE ENERGY PREDICTED BY IDOCK:    0.78 KCAL/MOL
REMARK 927      BINDING AFFINITY PREDICTED BY RF-SCORE:    0.00 PKD
ROOT
HETATM    1  C   UNL     1     -10.914  17.522  65.199  1.00  0.00     0.313 C  
HETATM    2  C   UNL     1     -10.388  17.084  66.556  1.00  0.00    -0.298 C  
HETATM    3  C   UNL     1      -9.937  16.708  67.720  1.00  0.00    -0.262 C  
ENDROOT
BRANCH   3   4
HETATM    4  C   UNL     1      -9.428  16.214  68.988  1.00  0.00    -0.246 C  
HETATM    5  O   UNL     1      -9.952  16.632  70.013  1.00  0.00     0.130 OA 
HETATM    6  N   UNL     1      -8.330  15.374  68.985  1.00  0.00    -0.205 N  
HETATM    7  C   UNL     1      -7.574  15.119  70.195  1.00  0.00     0.286 C  
HETATM    8  C   UNL     1      -6.136  15.114  69.704  1.00  0.00    -0.127 C  
HETATM    9  C   UNL     1      -6.209  14.580  68.274  1.00  0.00    -0.120 C  
HETATM   10  C   UNL     1      -7.678  14.748  67.840  1.00  0.00    -0.137 C  
BRANCH  10  11
HETATM   11  C   UNL     1      -8.283  13.388  67.559  1.00  0.00    -0.185 A  
HETATM   12  N   UNL     1      -7.727  12.402  66.868  1.00  0.00    -0.048 NA 
HETATM   13  C   UNL     1      -8.683  11.406  66.744  1.00  0.00    -0.174 A  
HETATM   14  N   UNL     1     -11.448   9.880  67.511  1.00  0.00    -0.374 NA 
HETATM   15  C   UNL     1      -9.824  11.773  67.440  1.00  0.00    -0.178 A  
HETATM   16  C   UNL     1     -11.110  11.181  67.749  1.00  0.00    -0.285 A  
HETATM   17  N   UNL     1      -9.583  13.060  67.887  1.00  0.00    -0.208 NA 
HETATM   18  H2  UNL     1     -10.742   9.280  67.083  1.00  0.00     0.000 HD 
HETATM   19  C   UNL     1     -10.587  13.782  68.512  1.00  0.00    -0.253 A  
HETATM   20  C   UNL     1     -11.776  13.192  68.693  1.00  0.00    -0.326 A  
HETATM   21  N   UNL     1     -12.046  11.890  68.339  1.00  0.00    -0.433 NA 
HETATM   22  H1  UNL     1     -12.354   9.464  67.728  1.00  0.00     0.000 HD 
BRANCH  13  23
HETATM   23  C   UNL     1      -8.423  10.182  65.981  1.00  0.00    -0.136 A  
HETATM   24  C   UNL     1      -7.974   7.743  64.595  1.00  0.00    -0.136 A  
HETATM   25  C   UNL     1      -7.491   7.921  65.898  1.00  0.00    -0.078 A  
HETATM   26  C   UNL     1      -8.835  10.014  64.648  1.00  0.00    -0.227 A  
HETATM   27  C   UNL     1      -7.712   9.133  66.578  1.00  0.00    -0.096 A  
HETATM   28  C   UNL     1      -8.638   8.798  63.968  1.00  0.00    -0.076 A  
BRANCH  24  29
HETATM   29  C   UNL     1      -7.821   6.412  63.935  1.00  0.00    -0.109 C  
HETATM   30  H   UNL     1      -7.569   5.503  65.786  1.00  0.00     0.000 HD 
HETATM   31  O   UNL     1      -7.886   6.351  62.714  1.00  0.00    -0.090 OA 
HETATM   32  N   UNL     1      -7.683   5.331  64.787  1.00  0.00    -0.083 N  
BRANCH  32  33
HETATM   33  C   UNL     1      -7.696   4.008  64.325  1.00  0.00    -0.084 A  
HETATM   34  C   UNL     1      -6.527   3.299  64.065  1.00  0.00    -0.031 A  
HETATM   35  C   UNL     1      -6.628   2.010  63.543  1.00  0.00    -0.022 A  
HETATM   36  C   UNL     1      -7.884   1.487  63.267  1.00  0.00    -0.055 A  
HETATM   37  C   UNL     1      -8.992   2.255  63.586  1.00  0.00    -0.090 A  
HETATM   38  N   UNL     1      -8.925   3.482  64.153  1.00  0.00    -0.104 NA 
ENDBRANCH  32  33
ENDBRANCH  24  29
ENDBRANCH  13  23
ENDBRANCH  10  11
ENDBRANCH   3   4
TORSDOF 5
ENDMDL
MODEL       88
REMARK 921   NORMALIZED FREE ENERGY PREDICTED BY IDOCK:   -3.05 KCAL/MOL
REMARK 922        TOTAL FREE ENERGY PREDICTED BY IDOCK:   -3.42 KCAL/MOL
REMARK 923 INTER-LIGAND FREE ENERGY PREDICTED BY IDOCK:   -4.60 KCAL/MOL
REMARK 924 INTRA-LIGAND FREE ENERGY PREDICTED BY IDOCK:    1.17 KCAL/MOL
REMARK 927      BINDING AFFINITY PREDICTED BY RF-SCORE:    0.00 PKD
ROOT
HETATM    1  C   UNL     1     -10.404   4.533  67.775  1.00  0.00     0.119 C  
HETATM    2  C   UNL     1      -9.103   4.852  68.492  1.00  0.00    -0.143 C  
HETATM    3  C   UNL     1      -7.986   5.125  69.107  1.00  0.00    -0.081 C  
ENDROOT
BRANCH   3   4
HETATM    4  C   UNL     1      -6.732   5.493  69.742  1.00  0.00    -0.051 C  
HETATM    5  O   UNL     1      -5.771   4.752  69.574  1.00  0.00    -0.014 OA 
HETATM    6  N   UNL     1      -6.701   6.600  70.569  1.00  0.00    -0.055 N  
HETATM    7  C   UNL     1      -5.600   6.826  71.484  1.00  0.00    -0.032 C  
HETATM    8  C   UNL     1      -6.294   7.342  72.732  1.00  0.00    -0.059 C  
HETATM    9  C   UNL     1      -7.520   8.097  72.219  1.00  0.00    -0.139 C  
HETATM   10  C   UNL     1      -7.746   7.596  70.779  1.00  0.00    -0.085 C  
BRANCH  10  11
HETATM   11  C   UNL     1      -7.587   8.749  69.810  1.00  0.00    -0.072 A  
HETATM   12  N   UNL     1      -7.287  10.004  70.116  1.00  0.00    -0.157 NA 
HETATM   13  C   UNL     1      -7.384  10.740  68.945  1.00  0.00    -0.104 A  
HETATM   14  N   UNL     1      -7.552  11.118  65.722  1.00  0.00    -0.368 NA 
HETATM   15  C   UNL     1      -7.682   9.892  67.891  1.00  0.00    -0.090 A  
HETATM   16  C   UNL     1      -7.852  10.007  66.456  1.00  0.00    -0.112 A  
HETATM   17  N   UNL     1      -7.880   8.649  68.466  1.00  0.00    -0.106 NA 
HETATM   18  H2  UNL     1      -7.181  11.927  66.220  1.00  0.00     0.000 HD 
HETATM   19  C   UNL     1      -8.332   7.588  67.697  1.00  0.00    -0.118 A  
HETATM   20  C   UNL     1      -8.541   7.794  66.390  1.00  0.00    -0.145 A  
HETATM   21  N   UNL     1      -8.285   8.985  65.752  1.00  0.00    -0.115 NA 
HETATM   22  H1  UNL     1      -7.672  11.199  64.712  1.00  0.00     0.000 HD 
BRANCH  13  23
HETATM   23  C   UNL     1      -7.171  12.191  68.929  1.00  0.00    -0.079 A  
HETATM   24  C   UNL     1      -6.881  15.017  68.934  1.00  0.00    -0.103 A  
HETATM   25  C   UNL     1      -7.861  14.403  68.143  1.00  0.00    -0.138 A  
HETATM   26  C   UNL     1      -6.145  12.817  69.657  1.00  0.00    -0.126 A  
HETATM   27  C   UNL     1      -7.998  13.002  68.141  1.00  0.00    -0.154 A  
HETATM   28  C   UNL     1      -6.015  14.218  69.682  1.00  0.00    -0.112 A  
BRANCH  24  29
HETATM   29  C   UNL     1      -6.825  16.508  69.001  1.00  0.00    -0.203 C  
HETATM   30  H   UNL     1      -5.839  16.405  70.827  1.00  0.00     0.000 HD 
HETATM   31  O   UNL     1      -7.316  17.156  68.086  1.00  0.00    -0.189 OA 
HETATM   32  N   UNL     1      -6.147  17.034  70.085  1.00  0.00    -0.133 N  
BRANCH  32  33
HETATM   33  C   UNL     1      -5.867  18.403  70.200  1.00  0.00    -0.187 A  
HETATM   34  C   UNL     1      -5.715  19.227  69.089  1.00  0.00    -0.237 A  
HETATM   35  C   UNL     1      -5.370  20.563  69.288  1.00  0.00    -0.336 A  
HETATM   36  C   UNL     1      -5.156  21.022  70.581  1.00  0.00    -0.222 A  
HETATM   37  C   UNL     1      -5.360  20.136  71.627  1.00  0.00    -0.402 A  
HETATM   38  N   UNL     1      -5.757  18.852  71.466  1.00  0.00    -0.047 NA 
ENDBRANCH  32  33
ENDBRANCH  24  29
ENDBRANCH  13  23
ENDBRANCH  10  11
ENDBRANCH   3   4
TORSDOF 5
ENDMDL
MODEL       89
REMARK 921   NORMALIZED FREE ENERGY PREDICTED BY IDOCK:   -2.93 KCAL/MOL
REMARK 922        TOTAL FREE ENERGY PREDICTED BY IDOCK:   -3.27 KCAL/MOL
REMARK 923 INTER-LIGAND FREE ENERGY PREDICTED BY IDOCK:   -4.11 KCAL/MOL
REMARK 924 INTRA-LIGAND FREE ENERGY PREDICTED BY IDOCK:    0.85 KCAL/MOL
REMARK 927      BINDING AFFINITY PREDICTED BY RF-SCORE:    0.00 PKD
ROOT
HETATM    1  C   UNL     1     -10.743   4.370  67.995  1.00  0.00     1.128 C  
HETATM    2  C   UNL     1      -9.900   4.691  69.218  1.00  0.00    -0.260 C  
HETATM    3  C   UNL     1      -9.176   4.966  70.267  1.00  0.00    -0.192 C  
ENDROOT
BRANCH   3   4
HETATM    4  C   UNL     1      -8.332   5.331  71.392  1.00  0.00    -0.121 C  
HETATM    5  O   UNL     1      -7.602   4.466  71.858  1.00  0.00    -0.071 OA 
HETATM    6  N   UNL     1      -8.454   6.595  71.936  1.00  0.00    -0.114 N  
HETATM    7  C   UNL     1      -7.906   6.910  73.241  1.00  0.00    -0.094 C  
HETATM    8  C   UNL     1      -8.977   7.792  73.858  1.00  0.00    -0.317 C  
HETATM    9  C   UNL     1      -9.604   8.535  72.678  1.00  0.00    -0.294 C  
HETATM   10  C   UNL     1      -9.220   7.726  71.424  1.00  0.00    -0.134 C  
BRANCH  10  11
HETATM   11  C   UNL     1      -8.364   8.581  70.513  1.00  0.00    -0.135 A  
HETATM   12  N   UNL     1      -8.351   9.906  70.452  1.00  0.00    -0.154 NA 
HETATM   13  C   UNL     1      -7.530  10.253  69.390  1.00  0.00    -0.128 A  
HETATM   14  N   UNL     1      -5.253   9.703  67.137  1.00  0.00    -0.035 NA 
HETATM   15  C   UNL     1      -6.977   9.108  68.839  1.00  0.00    -0.064 A  
HETATM   16  C   UNL     1      -6.030   8.791  67.790  1.00  0.00    -0.047 A  
HETATM   17  N   UNL     1      -7.572   8.055  69.512  1.00  0.00    -0.098 NA 
HETATM   18  H2  UNL     1      -5.347  10.682  67.408  1.00  0.00     0.000 HD 
HETATM   19  C   UNL     1      -7.339   6.750  69.109  1.00  0.00    -0.093 A  
HETATM   20  C   UNL     1      -6.509   6.540  68.079  1.00  0.00    -0.053 A  
HETATM   21  N   UNL     1      -5.831   7.543  67.426  1.00  0.00    -0.034 NA 
HETATM   22  H1  UNL     1      -4.586   9.479  66.399  1.00  0.00     0.000 HD 
BRANCH  13  23
HETATM   23  C   UNL     1      -7.333  11.652  68.997  1.00  0.00    -0.074 A  
HETATM   24  C   UNL     1      -6.829  14.335  68.210  1.00  0.00    -0.109 A  
HETATM   25  C   UNL     1      -6.062  13.732  69.215  1.00  0.00    -0.100 A  
HETATM   26  C   UNL     1      -8.141  12.296  68.045  1.00  0.00    -0.156 A  
HETATM   27  C   UNL     1      -6.318  12.404  69.604  1.00  0.00    -0.107 A  
HETATM   28  C   UNL     1      -7.877  13.616  67.633  1.00  0.00    -0.178 A  
BRANCH  24  29
HETATM   29  C   UNL     1      -6.469  15.706  67.739  1.00  0.00    -0.160 C  
HETATM   30  H   UNL     1      -8.053  15.679  66.395  1.00  0.00     0.000 HD 
HETATM   31  O   UNL     1      -5.505  16.266  68.245  1.00  0.00    -0.100 OA 
HETATM   32  N   UNL     1      -7.320  16.261  66.801  1.00  0.00    -0.223 N  
BRANCH  32  33
HETATM   33  C   UNL     1      -7.211  17.596  66.389  1.00  0.00    -0.284 A  
HETATM   34  C   UNL     1      -8.072  18.590  66.846  1.00  0.00    -0.254 A  
HETATM   35  C   UNL     1      -7.938  19.880  66.334  1.00  0.00    -0.345 A  
HETATM   36  C   UNL     1      -6.977  20.127  65.364  1.00  0.00    -0.327 A  
HETATM   37  C   UNL     1      -6.145  19.083  64.992  1.00  0.00    -0.288 A  
HETATM   38  N   UNL     1      -6.210  17.838  65.518  1.00  0.00    -0.100 NA 
ENDBRANCH  32  33
ENDBRANCH  24  29
ENDBRANCH  13  23
ENDBRANCH  10  11
ENDBRANCH   3   4
TORSDOF 5
ENDMDL
MODEL       90
REMARK 921   NORMALIZED FREE ENERGY PREDICTED BY IDOCK:   -2.73 KCAL/MOL
REMARK 922        TOTAL FREE ENERGY PREDICTED BY IDOCK:   -3.01 KCAL/MOL
REMARK 923 INTER-LIGAND FREE ENERGY PREDICTED BY IDOCK:   -4.21 KCAL/MOL
REMARK 924 INTRA-LIGAND FREE ENERGY PREDICTED BY IDOCK:    1.20 KCAL/MOL
REMARK 927      BINDING AFFINITY PREDICTED BY RF-SCORE:    0.00 PKD
ROOT
HETATM    1  C   UNL     1      -5.135  18.606  63.618  1.00  0.00    -0.113 C  
HETATM    2  C   UNL     1      -6.194  18.942  64.655  1.00  0.00    -0.122 C  
HETATM    3  C   UNL     1      -7.104  19.230  65.544  1.00  0.00    -0.216 C  
ENDROOT
BRANCH   3   4
HETATM    4  C   UNL     1      -8.169  19.560  66.474  1.00  0.00    -0.318 C  
HETATM    5  O   UNL     1      -9.064  20.295  66.076  1.00  0.00    -0.249 OA 
HETATM    6  N   UNL     1      -8.083  19.107  67.777  1.00  0.00    -0.272 N  
HETATM    7  C   UNL     1      -8.914  19.666  68.826  1.00  0.00    -0.255 C  
HETATM    8  C   UNL     1      -7.962  19.752  70.006  1.00  0.00     0.759 C  
HETATM    9  C   UNL     1      -6.998  18.580  69.822  1.00  0.00     0.184 C  
HETATM   10  C   UNL     1      -7.121  18.168  68.342  1.00  0.00    -0.252 C  
BRANCH  10  11
HETATM   11  C   UNL     1      -7.645  16.750  68.253  1.00  0.00    -0.188 A  
HETATM   12  N   UNL     1      -6.985  15.688  67.809  1.00  0.00    -0.142 NA 
HETATM   13  C   UNL     1      -7.887  14.637  67.773  1.00  0.00    -0.154 A  
HETATM   14  N   UNL     1     -10.664  13.125  68.524  1.00  0.00    -0.254 NA 
HETATM   15  C   UNL     1      -9.108  15.059  68.275  1.00  0.00    -0.182 A  
HETATM   16  C   UNL     1     -10.399  14.463  68.556  1.00  0.00    -0.248 A  
HETATM   17  N   UNL     1      -8.960  16.415  68.504  1.00  0.00    -0.214 NA 
HETATM   18  H2  UNL     1      -9.897  12.497  68.285  1.00  0.00     0.000 HD 
HETATM   19  C   UNL     1     -10.050  17.182  68.885  1.00  0.00    -0.322 A  
HETATM   20  C   UNL     1     -11.230  16.571  69.051  1.00  0.00    -0.238 A  
HETATM   21  N   UNL     1     -11.416  15.215  68.913  1.00  0.00    -0.302 NA 
HETATM   22  H1  UNL     1     -11.573  12.706  68.722  1.00  0.00     0.000 HD 
BRANCH  13  23
HETATM   23  C   UNL     1      -7.505  13.312  67.273  1.00  0.00    -0.069 A  
HETATM   24  C   UNL     1      -6.812  10.779  66.190  1.00  0.00    -0.126 A  
HETATM   25  C   UNL     1      -8.139  11.226  66.162  1.00  0.00    -0.065 A  
HETATM   26  C   UNL     1      -6.193  12.816  67.361  1.00  0.00    -0.133 A  
HETATM   27  C   UNL     1      -8.478  12.481  66.703  1.00  0.00    -0.006 A  
HETATM   28  C   UNL     1      -5.842  11.573  66.802  1.00  0.00    -0.143 A  
BRANCH  24  29
HETATM   29  C   UNL     1      -6.460   9.494  65.515  1.00  0.00    -0.072 C  
HETATM   30  H   UNL     1      -8.022   8.533  66.492  1.00  0.00     0.000 HD 
HETATM   31  O   UNL     1      -5.510   9.478  64.743  1.00  0.00    -0.052 OA 
HETATM   32  N   UNL     1      -7.302   8.428  65.776  1.00  0.00    -0.072 N  
BRANCH  32  33
HETATM   33  C   UNL     1      -7.201   7.210  65.092  1.00  0.00    -0.073 A  
HETATM   34  C   UNL     1      -6.742   6.047  65.705  1.00  0.00    -0.048 A  
HETATM   35  C   UNL     1      -6.607   4.893  64.935  1.00  0.00    -0.043 A  
HETATM   36  C   UNL     1      -6.899   4.945  63.579  1.00  0.00    -0.042 A  
HETATM   37  C   UNL     1      -7.378   6.138  63.062  1.00  0.00    -0.061 A  
HETATM   38  N   UNL     1      -7.580   7.255  63.799  1.00  0.00    -0.104 NA 
ENDBRANCH  32  33
ENDBRANCH  24  29
ENDBRANCH  13  23
ENDBRANCH  10  11
ENDBRANCH   3   4
TORSDOF 5
ENDMDL
MODEL       91
REMARK 921   NORMALIZED FREE ENERGY PREDICTED BY IDOCK:   -2.59 KCAL/MOL
REMARK 922        TOTAL FREE ENERGY PREDICTED BY IDOCK:   -2.82 KCAL/MOL
REMARK 923 INTER-LIGAND FREE ENERGY PREDICTED BY IDOCK:   -3.85 KCAL/MOL
REMARK 924 INTRA-LIGAND FREE ENERGY PREDICTED BY IDOCK:    1.03 KCAL/MOL
REMARK 927      BINDING AFFINITY PREDICTED BY RF-SCORE:    0.00 PKD
ROOT
HETATM    1  C   UNL     1     -11.825  15.870  63.907  1.00  0.00     0.385 C  
HETATM    2  C   UNL     1     -11.071  16.320  65.147  1.00  0.00    -0.219 C  
HETATM    3  C   UNL     1     -10.424  16.706  66.212  1.00  0.00    -0.272 C  
ENDROOT
BRANCH   3   4
HETATM    4  C   UNL     1      -9.694  17.057  67.417  1.00  0.00    -0.252 C  
HETATM    5  O   UNL     1     -10.158  17.943  68.125  1.00  0.00    -0.325 OA 
HETATM    6  N   UNL     1      -8.479  16.448  67.664  1.00  0.00    -0.168 N  
HETATM    7  C   UNL     1      -7.553  16.982  68.645  1.00  0.00    -0.238 C  
HETATM    8  C   UNL     1      -6.203  16.805  67.972  1.00  0.00    -0.144 C  
HETATM    9  C   UNL     1      -6.351  15.550  67.113  1.00  0.00     0.147 C  
HETATM   10  C   UNL     1      -7.868  15.333  66.948  1.00  0.00    -0.117 C  
BRANCH  10  11
HETATM   11  C   UNL     1      -8.263  14.014  67.579  1.00  0.00    -0.186 A  
HETATM   12  N   UNL     1      -7.641  12.851  67.437  1.00  0.00    -0.162 NA 
HETATM   13  C   UNL     1      -8.421  11.895  68.069  1.00  0.00    -0.162 A  
HETATM   14  N   UNL     1     -10.762  10.881  70.083  1.00  0.00    -0.440 NA 
HETATM   15  C   UNL     1      -9.508  12.510  68.670  1.00  0.00    -0.003 A  
HETATM   16  C   UNL     1     -10.623  12.108  69.503  1.00  0.00     0.335 A  
HETATM   17  N   UNL     1      -9.434  13.838  68.288  1.00  0.00    -0.212 NA 
HETATM   18  H2  UNL     1     -10.025  10.194  69.916  1.00  0.00     0.000 HD 
HETATM   19  C   UNL     1     -10.457  14.715  68.610  1.00  0.00    -0.244 A  
HETATM   20  C   UNL     1     -11.495  14.250  69.318  1.00  0.00    -0.289 A  
HETATM   21  N   UNL     1     -11.582  12.961  69.790  1.00  0.00    -0.256 NA 
HETATM   22  H1  UNL     1     -11.547  10.598  70.669  1.00  0.00     0.000 HD 
BRANCH  13  23
HETATM   23  C   UNL     1      -8.056  10.475  68.057  1.00  0.00    -0.111 A  
HETATM   24  C   UNL     1      -7.258   7.751  67.949  1.00  0.00    -0.090 A  
HETATM   25  C   UNL     1      -7.643   8.427  66.784  1.00  0.00    -0.090 A  
HETATM   26  C   UNL     1      -7.740   9.762  69.226  1.00  0.00    -0.101 A  
HETATM   27  C   UNL     1      -8.042   9.775  66.844  1.00  0.00    -0.113 A  
HETATM   28  C   UNL     1      -7.319   8.420  69.172  1.00  0.00    -0.079 A  
BRANCH  24  29
HETATM   29  C   UNL     1      -6.738   6.355  67.845  1.00  0.00    -0.064 C  
HETATM   30  H   UNL     1      -8.666   5.640  67.549  1.00  0.00     0.000 HD 
HETATM   31  O   UNL     1      -5.534   6.167  67.961  1.00  0.00    -0.004 OA 
HETATM   32  N   UNL     1      -7.679   5.384  67.553  1.00  0.00    -0.092 N  
BRANCH  32  33
HETATM   33  C   UNL     1      -7.322   4.060  67.261  1.00  0.00    -0.068 A  
HETATM   34  C   UNL     1      -6.964   3.150  68.251  1.00  0.00    -0.049 A  
HETATM   35  C   UNL     1      -6.556   1.872  67.871  1.00  0.00    -0.029 A  
HETATM   36  C   UNL     1      -6.486   1.557  66.521  1.00  0.00    -0.023 A  
HETATM   37  C   UNL     1      -6.891   2.518  65.608  1.00  0.00    -0.047 A  
HETATM   38  N   UNL     1      -7.352   3.743  65.951  1.00  0.00    -0.071 NA 
ENDBRANCH  32  33
ENDBRANCH  24  29
ENDBRANCH  13  23
ENDBRANCH  10  11
ENDBRANCH   3   4
TORSDOF 5
ENDMDL
MODEL       92
REMARK 921   NORMALIZED FREE ENERGY PREDICTED BY IDOCK:   -2.51 KCAL/MOL
REMARK 922        TOTAL FREE ENERGY PREDICTED BY IDOCK:   -2.72 KCAL/MOL
REMARK 923 INTER-LIGAND FREE ENERGY PREDICTED BY IDOCK:   -4.06 KCAL/MOL
REMARK 924 INTRA-LIGAND FREE ENERGY PREDICTED BY IDOCK:    1.33 KCAL/MOL
REMARK 927      BINDING AFFINITY PREDICTED BY RF-SCORE:    0.00 PKD
ROOT
HETATM    1  C   UNL     1     -10.562   5.006  69.298  1.00  0.00     0.044 C  
HETATM    2  C   UNL     1      -9.206   5.147  69.968  1.00  0.00    -0.180 C  
HETATM    3  C   UNL     1      -8.042   5.268  70.543  1.00  0.00    -0.104 C  
ENDROOT
BRANCH   3   4
HETATM    4  C   UNL     1      -6.745   5.482  71.161  1.00  0.00    -0.052 C  
HETATM    5  O   UNL     1      -5.923   4.577  71.086  1.00  0.00    -0.016 OA 
HETATM    6  N   UNL     1      -6.528   6.645  71.875  1.00  0.00    -0.049 N  
HETATM    7  C   UNL     1      -5.406   6.774  72.783  1.00  0.00    -0.037 C  
HETATM    8  C   UNL     1      -6.004   7.523  73.961  1.00  0.00    -0.071 C  
HETATM    9  C   UNL     1      -7.084   8.418  73.353  1.00  0.00    -0.119 C  
HETATM   10  C   UNL     1      -7.390   7.819  71.967  1.00  0.00    -0.075 C  
BRANCH  10  11
HETATM   11  C   UNL     1      -7.036   8.825  70.891  1.00  0.00    -0.076 A  
HETATM   12  N   UNL     1      -7.211  10.139  70.948  1.00  0.00    -0.197 NA 
HETATM   13  C   UNL     1      -6.882  10.645  69.700  1.00  0.00    -0.124 A  
HETATM   14  N   UNL     1      -5.529  10.525  66.748  1.00  0.00    -0.043 NA 
HETATM   15  C   UNL     1      -6.429   9.616  68.890  1.00  0.00    -0.046 A  
HETATM   16  C   UNL     1      -5.895   9.483  67.549  1.00  0.00    -0.044 A  
HETATM   17  N   UNL     1      -6.603   8.461  69.632  1.00  0.00    -0.036 NA 
HETATM   18  H2  UNL     1      -5.639  11.468  67.121  1.00  0.00     0.000 HD 
HETATM   19  C   UNL     1      -6.372   7.221  69.059  1.00  0.00    -0.036 A  
HETATM   20  C   UNL     1      -5.953   7.176  67.787  1.00  0.00    -0.033 A  
HETATM   21  N   UNL     1      -5.689   8.293  67.029  1.00  0.00    -0.041 NA 
HETATM   22  H1  UNL     1      -5.153  10.431  65.804  1.00  0.00     0.000 HD 
BRANCH  13  23
HETATM   23  C   UNL     1      -7.016  12.072  69.390  1.00  0.00     0.024 A  
HETATM   24  C   UNL     1      -7.402  14.819  68.779  1.00  0.00    -0.129 A  
HETATM   25  C   UNL     1      -7.856  13.825  67.903  1.00  0.00    -0.159 A  
HETATM   26  C   UNL     1      -6.501  13.082  70.219  1.00  0.00     0.241 A  
HETATM   27  C   UNL     1      -7.659  12.465  68.209  1.00  0.00    -0.131 A  
HETATM   28  C   UNL     1      -6.713  14.443  69.933  1.00  0.00    -0.101 A  
BRANCH  24  29
HETATM   29  C   UNL     1      -7.718  16.249  68.487  1.00  0.00    -0.189 C  
HETATM   30  H   UNL     1      -9.375  15.674  67.373  1.00  0.00     0.000 HD 
HETATM   31  O   UNL     1      -6.985  17.118  68.943  1.00  0.00    -0.209 OA 
HETATM   32  N   UNL     1      -8.877  16.473  67.766  1.00  0.00    -0.196 N  
BRANCH  32  33
HETATM   33  C   UNL     1      -9.392  17.760  67.558  1.00  0.00    -0.245 A  
HETATM   34  C   UNL     1     -10.655  18.138  68.004  1.00  0.00    -0.359 A  
HETATM   35  C   UNL     1     -11.120  19.415  67.695  1.00  0.00    -0.201 A  
HETATM   36  C   UNL     1     -10.327  20.258  66.928  1.00  0.00    -0.418 A  
HETATM   37  C   UNL     1      -9.071  19.806  66.554  1.00  0.00    -0.376 A  
HETATM   38  N   UNL     1      -8.569  18.596  66.893  1.00  0.00    -0.273 NA 
ENDBRANCH  32  33
ENDBRANCH  24  29
ENDBRANCH  13  23
ENDBRANCH  10  11
ENDBRANCH   3   4
TORSDOF 5
ENDMDL
MODEL       93
REMARK 921   NORMALIZED FREE ENERGY PREDICTED BY IDOCK:   -2.46 KCAL/MOL
REMARK 922        TOTAL FREE ENERGY PREDICTED BY IDOCK:   -2.65 KCAL/MOL
REMARK 923 INTER-LIGAND FREE ENERGY PREDICTED BY IDOCK:   -3.16 KCAL/MOL
REMARK 924 INTRA-LIGAND FREE ENERGY PREDICTED BY IDOCK:    0.51 KCAL/MOL
REMARK 927      BINDING AFFINITY PREDICTED BY RF-SCORE:    0.00 PKD
ROOT
HETATM    1  C   UNL     1     -11.997  16.988  67.369  1.00  0.00     1.776 C  
HETATM    2  C   UNL     1     -10.658  17.511  67.860  1.00  0.00    -0.390 C  
HETATM    3  C   UNL     1      -9.508  17.959  68.282  1.00  0.00    -0.300 C  
ENDROOT
BRANCH   3   4
HETATM    4  C   UNL     1      -8.210  18.479  68.674  1.00  0.00    -0.308 C  
HETATM    5  O   UNL     1      -8.185  19.385  69.498  1.00  0.00    -0.055 OA 
HETATM    6  N   UNL     1      -7.078  17.996  68.045  1.00  0.00    -0.215 N  
HETATM    7  C   UNL     1      -5.809  18.691  68.138  1.00  0.00    -0.195 C  
HETATM    8  C   UNL     1      -5.247  18.564  66.733  1.00  0.00    -0.145 C  
HETATM    9  C   UNL     1      -5.776  17.227  66.215  1.00  0.00    -0.166 C  
HETATM   10  C   UNL     1      -6.973  16.873  67.120  1.00  0.00    -0.181 C  
BRANCH  10  11
HETATM   11  C   UNL     1      -6.680  15.590  67.869  1.00  0.00    -0.155 A  
HETATM   12  N   UNL     1      -6.987  14.359  67.482  1.00  0.00    -0.184 NA 
HETATM   13  C   UNL     1      -6.661  13.513  68.530  1.00  0.00    -0.095 A  
HETATM   14  N   UNL     1      -5.187  12.724  71.317  1.00  0.00    -0.217 NA 
HETATM   15  C   UNL     1      -6.076  14.245  69.550  1.00  0.00    -0.112 A  
HETATM   16  C   UNL     1      -5.479  13.970  70.841  1.00  0.00    -0.166 A  
HETATM   17  N   UNL     1      -6.162  15.566  69.148  1.00  0.00    -0.111 NA 
HETATM   18  H2  UNL     1      -5.406  11.928  70.718  1.00  0.00     0.000 HD 
HETATM   19  C   UNL     1      -5.786  16.584  70.010  1.00  0.00    -0.206 A  
HETATM   20  C   UNL     1      -5.314  16.252  71.219  1.00  0.00     0.059 A  
HETATM   21  N   UNL     1      -5.134  14.955  71.640  1.00  0.00    -0.158 NA 
HETATM   22  H1  UNL     1      -4.767  12.531  72.226  1.00  0.00     0.000 HD 
BRANCH  13  23
HETATM   23  C   UNL     1      -6.926  12.072  68.465  1.00  0.00    -0.090 A  
HETATM   24  C   UNL     1      -7.352   9.263  68.430  1.00  0.00    -0.077 A  
HETATM   25  C   UNL     1      -6.070   9.791  68.230  1.00  0.00    -0.050 A  
HETATM   26  C   UNL     1      -8.216  11.529  68.589  1.00  0.00    -0.124 A  
HETATM   27  C   UNL     1      -5.865  11.184  68.243  1.00  0.00    -0.045 A  
HETATM   28  C   UNL     1      -8.426  10.137  68.599  1.00  0.00    -0.122 A  
BRANCH  24  29
HETATM   29  C   UNL     1      -7.526   7.783  68.518  1.00  0.00    -0.103 C  
HETATM   30  H   UNL     1      -9.455   7.948  67.766  1.00  0.00     0.000 HD 
HETATM   31  O   UNL     1      -6.599   7.106  68.945  1.00  0.00    -0.044 OA 
HETATM   32  N   UNL     1      -8.724   7.289  68.033  1.00  0.00    -0.127 N  
BRANCH  32  33
HETATM   33  C   UNL     1      -8.966   5.916  67.894  1.00  0.00    -0.111 A  
HETATM   34  C   UNL     1      -9.617   5.172  68.874  1.00  0.00    -0.201 A  
HETATM   35  C   UNL     1      -9.758   3.798  68.689  1.00  0.00    -0.089 A  
HETATM   36  C   UNL     1      -9.217   3.208  67.554  1.00  0.00    -0.233 A  
HETATM   37  C   UNL     1      -8.612   4.033  66.619  1.00  0.00    -0.109 A  
HETATM   38  N   UNL     1      -8.518   5.377  66.742  1.00  0.00    -0.108 NA 
ENDBRANCH  32  33
ENDBRANCH  24  29
ENDBRANCH  13  23
ENDBRANCH  10  11
ENDBRANCH   3   4
TORSDOF 5
ENDMDL
MODEL       94
REMARK 921   NORMALIZED FREE ENERGY PREDICTED BY IDOCK:   -2.26 KCAL/MOL
REMARK 922        TOTAL FREE ENERGY PREDICTED BY IDOCK:   -2.40 KCAL/MOL
REMARK 923 INTER-LIGAND FREE ENERGY PREDICTED BY IDOCK:   -3.37 KCAL/MOL
REMARK 924 INTRA-LIGAND FREE ENERGY PREDICTED BY IDOCK:    0.97 KCAL/MOL
REMARK 927      BINDING AFFINITY PREDICTED BY RF-SCORE:    0.00 PKD
ROOT
HETATM    1  C   UNL     1     -11.345  18.538  65.130  1.00  0.00     1.812 C  
HETATM    2  C   UNL     1     -10.352  18.347  66.264  1.00  0.00    -0.440 C  
HETATM    3  C   UNL     1      -9.501  18.183  67.238  1.00  0.00    -0.260 C  
ENDROOT
BRANCH   3   4
HETATM    4  C   UNL     1      -8.611  18.022  68.375  1.00  0.00    -0.290 C  
HETATM    5  O   UNL     1      -8.806  18.729  69.355  1.00  0.00     0.080 OA 
HETATM    6  N   UNL     1      -7.542  17.152  68.268  1.00  0.00    -0.214 N  
HETATM    7  C   UNL     1      -6.442  17.191  69.211  1.00  0.00    -0.235 C  
HETATM    8  C   UNL     1      -5.226  16.973  68.327  1.00  0.00    -0.119 C  
HETATM    9  C   UNL     1      -5.719  16.077  67.191  1.00  0.00     0.040 C  
HETATM   10  C   UNL     1      -7.255  16.205  67.196  1.00  0.00    -0.220 C  
BRANCH  10  11
HETATM   11  C   UNL     1      -7.874  14.856  67.497  1.00  0.00    -0.185 A  
HETATM   12  N   UNL     1      -7.417  13.671  67.113  1.00  0.00    -0.011 NA 
HETATM   13  C   UNL     1      -8.365  12.731  67.486  1.00  0.00    -0.179 A  
HETATM   14  N   UNL     1     -10.953  11.669  69.141  1.00  0.00    -0.291 NA 
HETATM   15  C   UNL     1      -9.390  13.358  68.177  1.00  0.00    -0.217 A  
HETATM   16  C   UNL     1     -10.603  12.958  68.862  1.00  0.00    -0.123 A  
HETATM   17  N   UNL     1      -9.102  14.710  68.111  1.00  0.00    -0.181 NA 
HETATM   18  H2  UNL     1     -10.312  10.932  68.845  1.00  0.00     0.000 HD 
HETATM   19  C   UNL     1     -10.009  15.641  68.592  1.00  0.00    -0.208 A  
HETATM   20  C   UNL     1     -11.146  15.196  69.143  1.00  0.00    -0.258 A  
HETATM   21  N   UNL     1     -11.447  13.863  69.305  1.00  0.00    -0.281 NA 
HETATM   22  H1  UNL     1     -11.807  11.388  69.622  1.00  0.00     0.000 HD 
BRANCH  13  23
HETATM   23  C   UNL     1      -8.207  11.310  67.162  1.00  0.00    -0.149 A  
HETATM   24  C   UNL     1      -7.833   8.590  66.431  1.00  0.00    -0.099 A  
HETATM   25  C   UNL     1      -8.436   9.490  65.542  1.00  0.00    -0.150 A  
HETATM   26  C   UNL     1      -7.673  10.378  68.068  1.00  0.00    -0.092 A  
HETATM   27  C   UNL     1      -8.623  10.835  65.911  1.00  0.00    -0.182 A  
HETATM   28  C   UNL     1      -7.463   9.036  67.700  1.00  0.00    -0.085 A  
BRANCH  24  29
HETATM   29  C   UNL     1      -7.549   7.196  65.977  1.00  0.00    -0.089 C  
HETATM   30  H   UNL     1      -9.543   6.943  65.450  1.00  0.00     0.000 HD 
HETATM   31  O   UNL     1      -6.406   6.769  66.072  1.00  0.00    -0.046 OA 
HETATM   32  N   UNL     1      -8.616   6.519  65.414  1.00  0.00    -0.113 N  
BRANCH  32  33
HETATM   33  C   UNL     1      -8.467   5.271  64.794  1.00  0.00    -0.149 A  
HETATM   34  C   UNL     1      -8.665   5.089  63.428  1.00  0.00    -0.078 A  
HETATM   35  C   UNL     1      -8.564   3.803  62.902  1.00  0.00    -0.087 A  
HETATM   36  C   UNL     1      -8.302   2.740  63.756  1.00  0.00    -0.086 A  
HETATM   37  C   UNL     1      -8.089   3.021  65.096  1.00  0.00    -0.086 A  
HETATM   38  N   UNL     1      -8.118   4.267  65.623  1.00  0.00    -0.104 NA 
ENDBRANCH  32  33
ENDBRANCH  24  29
ENDBRANCH  13  23
ENDBRANCH  10  11
ENDBRANCH   3   4
TORSDOF 5
ENDMDL
MODEL       95
REMARK 921   NORMALIZED FREE ENERGY PREDICTED BY IDOCK:   -1.69 KCAL/MOL
REMARK 922        TOTAL FREE ENERGY PREDICTED BY IDOCK:   -1.66 KCAL/MOL
REMARK 923 INTER-LIGAND FREE ENERGY PREDICTED BY IDOCK:   -3.50 KCAL/MOL
REMARK 924 INTRA-LIGAND FREE ENERGY PREDICTED BY IDOCK:    1.84 KCAL/MOL
REMARK 927      BINDING AFFINITY PREDICTED BY RF-SCORE:    0.00 PKD
ROOT
HETATM    1  C   UNL     1      -8.443   5.321  65.048  1.00  0.00    -0.150 C  
HETATM    2  C   UNL     1      -8.175   4.847  66.467  1.00  0.00    -0.107 C  
HETATM    3  C   UNL     1      -7.944   4.440  67.685  1.00  0.00    -0.092 C  
ENDROOT
BRANCH   3   4
HETATM    4  C   UNL     1      -7.687   4.065  69.064  1.00  0.00    -0.053 C  
HETATM    5  O   UNL     1      -6.880   3.168  69.268  1.00  0.00    -0.040 OA 
HETATM    6  N   UNL     1      -8.421   4.668  70.068  1.00  0.00    -0.073 N  
HETATM    7  C   UNL     1      -8.462   4.115  71.408  1.00  0.00    -0.097 C  
HETATM    8  C   UNL     1      -9.914   4.301  71.810  1.00  0.00    -0.254 C  
HETATM    9  C   UNL     1     -10.364   5.573  71.090  1.00  0.00    -0.300 C  
HETATM   10  C   UNL     1      -9.341   5.795  69.959  1.00  0.00    -0.146 C  
BRANCH  10  11
HETATM   11  C   UNL     1      -8.612   7.103  70.185  1.00  0.00    -0.140 A  
HETATM   12  N   UNL     1      -8.907   8.277  69.643  1.00  0.00    -0.138 NA 
HETATM   13  C   UNL     1      -7.901   9.157  70.013  1.00  0.00    -0.099 A  
HETATM   14  N   UNL     1      -5.370  10.137  71.800  1.00  0.00    -0.217 NA 
HETATM   15  C   UNL     1      -7.012   8.513  70.859  1.00  0.00    -0.057 A  
HETATM   16  C   UNL     1      -5.828   8.865  71.616  1.00  0.00    -0.060 A  
HETATM   17  N   UNL     1      -7.434   7.195  70.898  1.00  0.00    -0.079 NA 
HETATM   18  H2  UNL     1      -5.901  10.897  71.373  1.00  0.00     0.000 HD 
HETATM   19  C   UNL     1      -6.676   6.239  71.554  1.00  0.00    -0.056 A  
HETATM   20  C   UNL     1      -5.550   6.629  72.167  1.00  0.00    -0.037 A  
HETATM   21  N   UNL     1      -5.126   7.936  72.226  1.00  0.00    -0.035 NA 
HETATM   22  H1  UNL     1      -4.536  10.385  72.333  1.00  0.00     0.000 HD 
BRANCH  13  23
HETATM   23  C   UNL     1      -7.880  10.544  69.538  1.00  0.00    -0.134 A  
HETATM   24  C   UNL     1      -7.966  13.234  68.630  1.00  0.00    -0.042 A  
HETATM   25  C   UNL     1      -8.716  12.242  67.987  1.00  0.00    -0.181 A  
HETATM   26  C   UNL     1      -7.076  11.536  70.124  1.00  0.00     0.735 A  
HETATM   27  C   UNL     1      -8.667  10.909  68.438  1.00  0.00    -0.147 A  
HETATM   28  C   UNL     1      -7.136  12.875  69.693  1.00  0.00     0.384 A  
BRANCH  24  29
HETATM   29  C   UNL     1      -8.117  14.657  68.202  1.00  0.00    -0.137 C  
HETATM   30  H   UNL     1      -9.137  15.095  69.958  1.00  0.00     0.000 HD 
HETATM   31  O   UNL     1      -7.653  14.998  67.121  1.00  0.00    -0.202 OA 
HETATM   32  N   UNL     1      -8.723  15.499  69.117  1.00  0.00    -0.230 N  
BRANCH  32  33
HETATM   33  C   UNL     1      -8.786  16.886  68.931  1.00  0.00    -0.212 A  
HETATM   34  C   UNL     1      -7.737  17.610  68.371  1.00  0.00    -0.269 A  
HETATM   35  C   UNL     1      -7.853  18.997  68.283  1.00  0.00    -0.350 A  
HETATM   36  C   UNL     1      -8.991  19.615  68.784  1.00  0.00    -0.307 A  
HETATM   37  C   UNL     1      -9.996  18.809  69.296  1.00  0.00    -0.079 A  
HETATM   38  N   UNL     1      -9.937  17.458  69.335  1.00  0.00    -0.102 NA 
ENDBRANCH  32  33
ENDBRANCH  24  29
ENDBRANCH  13  23
ENDBRANCH  10  11
ENDBRANCH   3   4
TORSDOF 5
ENDMDL
MODEL       96
REMARK 921   NORMALIZED FREE ENERGY PREDICTED BY IDOCK:   -1.53 KCAL/MOL
REMARK 922        TOTAL FREE ENERGY PREDICTED BY IDOCK:   -1.46 KCAL/MOL
REMARK 923 INTER-LIGAND FREE ENERGY PREDICTED BY IDOCK:   -3.43 KCAL/MOL
REMARK 924 INTRA-LIGAND FREE ENERGY PREDICTED BY IDOCK:    1.97 KCAL/MOL
REMARK 927      BINDING AFFINITY PREDICTED BY RF-SCORE:    0.00 PKD
ROOT
HETATM    1  C   UNL     1     -12.457  16.320  64.193  1.00  0.00     1.328 C  
HETATM    2  C   UNL     1     -11.318  16.564  65.169  1.00  0.00     0.113 C  
HETATM    3  C   UNL     1     -10.341  16.773  66.007  1.00  0.00    -0.346 C  
ENDROOT
BRANCH   3   4
HETATM    4  C   UNL     1      -9.266  16.932  66.971  1.00  0.00    -0.234 C  
HETATM    5  O   UNL     1      -9.061  18.056  67.414  1.00  0.00    -0.247 OA 
HETATM    6  N   UNL     1      -8.475  15.841  67.276  1.00  0.00    -0.177 N  
HETATM    7  C   UNL     1      -7.202  15.999  67.952  1.00  0.00    -0.133 C  
HETATM    8  C   UNL     1      -6.311  14.997  67.241  1.00  0.00     0.198 C  
HETATM    9  C   UNL     1      -7.246  13.860  66.826  1.00  0.00     1.154 C  
HETATM   10  C   UNL     1      -8.669  14.450  66.882  1.00  0.00    -0.193 C  
BRANCH  10  11
HETATM   11  C   UNL     1      -9.484  13.710  67.921  1.00  0.00    -0.213 A  
HETATM   12  N   UNL     1      -9.369  12.431  68.254  1.00  0.00    -0.211 NA 
HETATM   13  C   UNL     1     -10.399  12.149  69.137  1.00  0.00     0.124 A  
HETATM   14  N   UNL     1     -12.772  12.916  71.221  1.00  0.00    -0.340 NA 
HETATM   15  C   UNL     1     -11.113  13.307  69.399  1.00  0.00    -0.090 A  
HETATM   16  C   UNL     1     -12.223  13.696  70.245  1.00  0.00    -0.353 A  
HETATM   17  N   UNL     1     -10.569  14.268  68.566  1.00  0.00    -0.250 NA 
HETATM   18  H2  UNL     1     -12.371  11.989  71.365  1.00  0.00     0.000 HD 
HETATM   19  C   UNL     1     -11.148  15.524  68.478  1.00  0.00    -0.307 A  
HETATM   20  C   UNL     1     -12.221  15.785  69.236  1.00  0.00    -0.098 A  
HETATM   21  N   UNL     1     -12.755  14.894  70.138  1.00  0.00    -0.266 NA 
HETATM   22  H1  UNL     1     -13.553  13.191  71.816  1.00  0.00     0.000 HD 
BRANCH  13  23
HETATM   23  C   UNL     1     -10.608  10.797  69.667  1.00  0.00    -0.222 A  
HETATM   24  C   UNL     1     -10.886   8.165  70.699  1.00  0.00    -0.246 A  
HETATM   25  C   UNL     1     -10.168   8.395  69.518  1.00  0.00    -0.207 A  
HETATM   26  C   UNL     1     -11.387  10.540  70.808  1.00  0.00    -0.295 A  
HETATM   27  C   UNL     1     -10.037   9.700  69.009  1.00  0.00    -0.193 A  
HETATM   28  C   UNL     1     -11.505   9.241  71.336  1.00  0.00    -0.439 A  
BRANCH  24  29
HETATM   29  C   UNL     1     -10.921   6.788  71.276  1.00  0.00    -0.249 C  
HETATM   30  H   UNL     1      -8.985   6.440  70.607  1.00  0.00     0.000 HD 
HETATM   31  O   UNL     1     -11.937   6.417  71.849  1.00  0.00    -0.329 OA 
HETATM   32  N   UNL     1      -9.748   6.062  71.168  1.00  0.00    -0.175 N  
BRANCH  32  33
HETATM   33  C   UNL     1      -9.573   4.826  71.804  1.00  0.00    -0.155 A  
HETATM   34  C   UNL     1     -10.387   3.729  71.537  1.00  0.00     0.121 A  
HETATM   35  C   UNL     1     -10.189   2.555  72.263  1.00  0.00    -0.200 A  
HETATM   36  C   UNL     1      -9.213   2.525  73.249  1.00  0.00    -0.098 A  
HETATM   37  C   UNL     1      -8.431   3.656  73.424  1.00  0.00    -0.083 A  
HETATM   38  N   UNL     1      -8.558   4.786  72.691  1.00  0.00    -0.115 NA 
ENDBRANCH  32  33
ENDBRANCH  24  29
ENDBRANCH  13  23
ENDBRANCH  10  11
ENDBRANCH   3   4
TORSDOF 5
ENDMDL
MODEL       97
REMARK 921   NORMALIZED FREE ENERGY PREDICTED BY IDOCK:   -0.91 KCAL/MOL
REMARK 922        TOTAL FREE ENERGY PREDICTED BY IDOCK:   -0.66 KCAL/MOL
REMARK 923 INTER-LIGAND FREE ENERGY PREDICTED BY IDOCK:   -1.78 KCAL/MOL
REMARK 924 INTRA-LIGAND FREE ENERGY PREDICTED BY IDOCK:    1.12 KCAL/MOL
REMARK 927      BINDING AFFINITY PREDICTED BY RF-SCORE:    0.00 PKD
ROOT
HETATM    1  C   UNL     1      -8.531  19.167  70.327  1.00  0.00     1.734 C  
HETATM    2  C   UNL     1      -8.916  18.695  68.935  1.00  0.00    -0.215 C  
HETATM    3  C   UNL     1      -9.245  18.289  67.740  1.00  0.00    -0.276 C  
ENDROOT
BRANCH   3   4
HETATM    4  C   UNL     1      -9.572  17.769  66.424  1.00  0.00    -0.283 C  
HETATM    5  O   UNL     1      -9.292  18.461  65.453  1.00  0.00     0.211 OA 
HETATM    6  N   UNL     1     -10.255  16.571  66.330  1.00  0.00    -0.319 N  
HETATM    7  C   UNL     1     -10.900  16.167  65.096  1.00  0.00    -0.361 C  
HETATM    8  C   UNL     1     -12.201  15.550  65.578  1.00  0.00     0.737 C  
HETATM    9  C   UNL     1     -11.870  14.941  66.941  1.00  0.00    -0.202 C  
HETATM   10  C   UNL     1     -10.566  15.626  67.396  1.00  0.00    -0.301 C  
BRANCH  10  11
HETATM   11  C   UNL     1      -9.469  14.589  67.528  1.00  0.00    -0.203 A  
HETATM   12  N   UNL     1      -9.618  13.320  67.882  1.00  0.00    -0.210 NA 
HETATM   13  C   UNL     1      -8.346  12.784  68.008  1.00  0.00    -0.173 A  
HETATM   14  N   UNL     1      -5.128  12.723  67.555  1.00  0.00    -0.235 NA 
HETATM   15  C   UNL     1      -7.406  13.737  67.651  1.00  0.00    -0.172 A  
HETATM   16  C   UNL     1      -5.965  13.800  67.509  1.00  0.00     0.044 A  
HETATM   17  N   UNL     1      -8.128  14.895  67.422  1.00  0.00    -0.182 NA 
HETATM   18  H2  UNL     1      -5.549  11.804  67.701  1.00  0.00     0.000 HD 
HETATM   19  C   UNL     1      -7.471  16.089  67.173  1.00  0.00    -0.218 A  
HETATM   20  C   UNL     1      -6.132  16.083  67.134  1.00  0.00    -0.009 A  
HETATM   21  N   UNL     1      -5.368  14.948  67.277  1.00  0.00    -0.203 NA 
HETATM   22  H1  UNL     1      -4.115  12.767  67.456  1.00  0.00     0.000 HD 
BRANCH  13  23
HETATM   23  C   UNL     1      -8.135  11.400  68.447  1.00  0.00    -0.145 A  
HETATM   24  C   UNL     1      -7.810   8.742  69.393  1.00  0.00    -0.095 A  
HETATM   25  C   UNL     1      -7.567   9.832  70.238  1.00  0.00    -0.184 A  
HETATM   26  C   UNL     1      -8.302  10.298  67.593  1.00  0.00    -0.114 A  
HETATM   27  C   UNL     1      -7.726  11.148  69.763  1.00  0.00     0.391 A  
HETATM   28  C   UNL     1      -8.167   8.979  68.065  1.00  0.00    -0.110 A  
BRANCH  24  29
HETATM   29  C   UNL     1      -7.739   7.357  69.949  1.00  0.00    -0.099 C  
HETATM   30  H   UNL     1      -9.696   7.512  70.629  1.00  0.00     0.000 HD 
HETATM   31  O   UNL     1      -6.698   6.726  69.823  1.00  0.00    -0.047 OA 
HETATM   32  N   UNL     1      -8.908   6.875  70.511  1.00  0.00    -0.153 N  
BRANCH  32  33
HETATM   33  C   UNL     1      -9.046   5.543  70.922  1.00  0.00    -0.143 A  
HETATM   34  C   UNL     1     -10.052   4.713  70.434  1.00  0.00    -0.275 A  
HETATM   35  C   UNL     1     -10.162   3.421  70.946  1.00  0.00     0.423 A  
HETATM   36  C   UNL     1      -9.291   3.013  71.947  1.00  0.00    -0.189 A  
HETATM   37  C   UNL     1      -8.302   3.897  72.349  1.00  0.00    -0.094 A  
HETATM   38  N   UNL     1      -8.132   5.133  71.825  1.00  0.00    -0.114 NA 
ENDBRANCH  32  33
ENDBRANCH  24  29
ENDBRANCH  13  23
ENDBRANCH  10  11
ENDBRANCH   3   4
TORSDOF 5
ENDMDL
MODEL       98
REMARK 921   NORMALIZED FREE ENERGY PREDICTED BY IDOCK:   -0.67 KCAL/MOL
REMARK 922        TOTAL FREE ENERGY PREDICTED BY IDOCK:   -0.34 KCAL/MOL
REMARK 923 INTER-LIGAND FREE ENERGY PREDICTED BY IDOCK:   -1.04 KCAL/MOL
REMARK 924 INTRA-LIGAND FREE ENERGY PREDICTED BY IDOCK:    0.70 KCAL/MOL
REMARK 927      BINDING AFFINITY PREDICTED BY RF-SCORE:    0.00 PKD
ROOT
HETATM    1  C   UNL     1      -6.420   5.205  67.344  1.00  0.00    -0.049 C  
HETATM    2  C   UNL     1      -7.060   5.914  68.526  1.00  0.00    -0.081 C  
HETATM    3  C   UNL     1      -7.609   6.523  69.540  1.00  0.00    -0.095 C  
ENDROOT
BRANCH   3   4
HETATM    4  C   UNL     1      -8.171   7.159  70.719  1.00  0.00    -0.120 C  
HETATM    5  O   UNL     1      -7.604   6.977  71.789  1.00  0.00    -0.087 OA 
HETATM    6  N   UNL     1      -9.356   7.860  70.599  1.00  0.00    -0.158 N  
HETATM    7  C   UNL     1     -10.137   8.225  71.764  1.00  0.00    -0.224 C  
HETATM    8  C   UNL     1     -11.566   7.989  71.306  1.00  0.00    -0.306 C  
HETATM    9  C   UNL     1     -11.553   8.286  69.806  1.00  0.00     0.394 C  
HETATM   10  C   UNL     1     -10.074   8.212  69.379  1.00  0.00    -0.194 C  
BRANCH  10  11
HETATM   11  C   UNL     1      -9.627   9.566  68.869  1.00  0.00    -0.156 A  
HETATM   12  N   UNL     1      -8.809  10.413  69.481  1.00  0.00    -0.139 NA 
HETATM   13  C   UNL     1      -8.791  11.575  68.726  1.00  0.00    -0.042 A  
HETATM   14  N   UNL     1      -9.304  13.345  66.049  1.00  0.00    -0.482 NA 
HETATM   15  C   UNL     1      -9.564  11.400  67.589  1.00  0.00    -0.169 A  
HETATM   16  C   UNL     1      -9.899  12.171  66.409  1.00  0.00    -0.227 A  
HETATM   17  N   UNL     1     -10.145  10.152  67.731  1.00  0.00    -0.171 NA 
HETATM   18  H2  UNL     1      -8.569  13.707  66.656  1.00  0.00     0.000 HD 
HETATM   19  C   UNL     1     -11.096   9.717  66.822  1.00  0.00     0.298 A  
HETATM   20  C   UNL     1     -11.410  10.521  65.797  1.00  0.00     0.867 A  
HETATM   21  N   UNL     1     -10.808  11.735  65.565  1.00  0.00    -0.291 NA 
HETATM   22  H1  UNL     1      -9.541  13.887  65.218  1.00  0.00     0.000 HD 
BRANCH  13  23
HETATM   23  C   UNL     1      -8.026  12.753  69.147  1.00  0.00     0.452 A  
HETATM   24  C   UNL     1      -6.653  15.100  69.970  1.00  0.00    -0.146 A  
HETATM   25  C   UNL     1      -7.463  15.113  68.827  1.00  0.00    -0.132 A  
HETATM   26  C   UNL     1      -7.150  12.738  70.246  1.00  0.00     1.481 A  
HETATM   27  C   UNL     1      -8.138  13.946  68.422  1.00  0.00    -0.145 A  
HETATM   28  C   UNL     1      -6.489  13.905  70.672  1.00  0.00     0.134 A  
BRANCH  24  29
HETATM   29  C   UNL     1      -6.034  16.375  70.440  1.00  0.00     0.029 C  
HETATM   30  H   UNL     1      -6.920  17.405  68.869  1.00  0.00     0.000 HD 
HETATM   31  O   UNL     1      -5.326  16.351  71.439  1.00  0.00    -0.042 OA 
HETATM   32  N   UNL     1      -6.380  17.509  69.728  1.00  0.00    -0.197 N  
BRANCH  32  33
HETATM   33  C   UNL     1      -6.015  18.796  70.146  1.00  0.00    -0.178 A  
HETATM   34  C   UNL     1      -5.783  19.833  69.248  1.00  0.00    -0.265 A  
HETATM   35  C   UNL     1      -5.356  21.065  69.743  1.00  0.00    -0.353 A  
HETATM   36  C   UNL     1      -5.144  21.210  71.107  1.00  0.00    -0.008 A  
HETATM   37  C   UNL     1      -5.431  20.131  71.928  1.00  0.00    -0.357 A  
HETATM   38  N   UNL     1      -5.907  18.946  71.482  1.00  0.00     0.114 NA 
ENDBRANCH  32  33
ENDBRANCH  24  29
ENDBRANCH  13  23
ENDBRANCH  10  11
ENDBRANCH   3   4
TORSDOF 5
ENDMDL
MODEL       99
REMARK 921   NORMALIZED FREE ENERGY PREDICTED BY IDOCK:   -0.47 KCAL/MOL
REMARK 922        TOTAL FREE ENERGY PREDICTED BY IDOCK:   -0.08 KCAL/MOL
REMARK 923 INTER-LIGAND FREE ENERGY PREDICTED BY IDOCK:   -1.47 KCAL/MOL
REMARK 924 INTRA-LIGAND FREE ENERGY PREDICTED BY IDOCK:    1.39 KCAL/MOL
REMARK 927      BINDING AFFINITY PREDICTED BY RF-SCORE:    0.00 PKD
ROOT
HETATM    1  C   UNL     1     -13.489  15.543  69.587  1.00  0.00     1.412 C  
HETATM    2  C   UNL     1     -12.131  16.198  69.397  1.00  0.00     0.040 C  
HETATM    3  C   UNL     1     -10.965  16.760  69.234  1.00  0.00    -0.197 C  
ENDROOT
BRANCH   3   4
HETATM    4  C   UNL     1      -9.706  17.452  69.025  1.00  0.00    -0.195 C  
HETATM    5  O   UNL     1      -9.437  18.384  69.773  1.00  0.00     0.523 OA 
HETATM    6  N   UNL     1      -8.916  17.091  67.950  1.00  0.00    -0.224 N  
HETATM    7  C   UNL     1      -7.837  17.943  67.488  1.00  0.00    -0.212 C  
HETATM    8  C   UNL     1      -7.940  17.836  65.977  1.00  0.00    -0.164 C  
HETATM    9  C   UNL     1      -8.467  16.425  65.716  1.00  0.00     0.272 C  
HETATM   10  C   UNL     1      -9.086  15.958  67.048  1.00  0.00    -0.217 C  
BRANCH  10  11
HETATM   11  C   UNL     1      -8.331  14.749  67.561  1.00  0.00    -0.183 A  
HETATM   12  N   UNL     1      -8.538  13.484  67.223  1.00  0.00    -0.208 NA 
HETATM   13  C   UNL     1      -7.723  12.710  68.034  1.00  0.00    -0.139 A  
HETATM   14  N   UNL     1      -5.247  12.202  70.078  1.00  0.00    -0.081 NA 
HETATM   15  C   UNL     1      -6.951  13.536  68.835  1.00  0.00    -0.108 A  
HETATM   16  C   UNL     1      -5.898  13.373  69.818  1.00  0.00    -0.119 A  
HETATM   17  N   UNL     1      -7.400  14.819  68.578  1.00  0.00    -0.111 NA 
HETATM   18  H2  UNL     1      -5.523  11.380  69.540  1.00  0.00     0.000 HD 
HETATM   19  C   UNL     1      -6.925  15.887  69.322  1.00  0.00    -0.198 A  
HETATM   20  C   UNL     1      -6.008  15.646  70.267  1.00  0.00    -0.102 A  
HETATM   21  N   UNL     1      -5.469  14.404  70.512  1.00  0.00    -0.121 NA 
HETATM   22  H1  UNL     1      -4.507  12.088  70.770  1.00  0.00     0.000 HD 
BRANCH  13  23
HETATM   23  C   UNL     1      -7.740  11.245  67.967  1.00  0.00    -0.108 A  
HETATM   24  C   UNL     1      -7.704   8.414  67.731  1.00  0.00    -0.103 A  
HETATM   25  C   UNL     1      -8.195   9.209  66.688  1.00  0.00    -0.115 A  
HETATM   26  C   UNL     1      -7.322  10.430  69.033  1.00  0.00    -0.097 A  
HETATM   27  C   UNL     1      -8.214  10.611  66.811  1.00  0.00    -0.130 A  
HETATM   28  C   UNL     1      -7.278   9.029  68.910  1.00  0.00    -0.073 A  
BRANCH  24  29
HETATM   29  C   UNL     1      -7.594   6.938  67.535  1.00  0.00    -0.109 C  
HETATM   30  H   UNL     1      -6.915   7.230  65.593  1.00  0.00     0.000 HD 
HETATM   31  O   UNL     1      -7.905   6.198  68.459  1.00  0.00    -0.101 OA 
HETATM   32  N   UNL     1      -7.074   6.531  66.320  1.00  0.00    -0.066 N  
BRANCH  32  33
HETATM   33  C   UNL     1      -6.756   5.193  66.053  1.00  0.00    -0.053 A  
HETATM   34  C   UNL     1      -5.750   4.515  66.736  1.00  0.00    -0.018 A  
HETATM   35  C   UNL     1      -5.450   3.206  66.362  1.00  0.00    -0.017 A  
HETATM   36  C   UNL     1      -6.138   2.630  65.302  1.00  0.00    -0.019 A  
HETATM   37  C   UNL     1      -7.143   3.370  64.701  1.00  0.00    -0.058 A  
HETATM   38  N   UNL     1      -7.498   4.618  65.085  1.00  0.00    -0.075 NA 
ENDBRANCH  32  33
ENDBRANCH  24  29
ENDBRANCH  13  23
ENDBRANCH  10  11
ENDBRANCH   3   4
TORSDOF 5
ENDMDL
MODEL      100
REMARK 921   NORMALIZED FREE ENERGY PREDICTED BY IDOCK:   -0.42 KCAL/MOL
REMARK 922        TOTAL FREE ENERGY PREDICTED BY IDOCK:   -0.03 KCAL/MOL
REMARK 923 INTER-LIGAND FREE ENERGY PREDICTED BY IDOCK:   -1.54 KCAL/MOL
REMARK 924 INTRA-LIGAND FREE ENERGY PREDICTED BY IDOCK:    1.51 KCAL/MOL
REMARK 927      BINDING AFFINITY PREDICTED BY RF-SCORE:    0.00 PKD
ROOT
HETATM    1  C   UNL     1      -8.168   7.527  68.018  1.00  0.00    -0.124 C  
HETATM    2  C   UNL     1      -8.801   7.754  69.381  1.00  0.00    -0.139 C  
HETATM    3  C   UNL     1      -9.344   7.949  70.551  1.00  0.00    -0.162 C  
ENDROOT
BRANCH   3   4
HETATM    4  C   UNL     1     -10.021   8.148  71.820  1.00  0.00    -0.201 C  
HETATM    5  O   UNL     1      -9.350   8.065  72.842  1.00  0.00    -0.215 OA 
HETATM    6  N   UNL     1     -11.391   8.330  71.826  1.00  0.00    -0.270 N  
HETATM    7  C   UNL     1     -12.164   8.197  73.045  1.00  0.00     0.355 C  
HETATM    8  C   UNL     1     -13.417   7.477  72.578  1.00  0.00     0.391 C  
HETATM    9  C   UNL     1     -13.632   7.951  71.141  1.00  0.00    -0.115 C  
HETATM   10  C   UNL     1     -12.278   8.527  70.685  1.00  0.00     0.102 C  
BRANCH  10  11
HETATM   11  C   UNL     1     -12.433  10.003  70.378  1.00  0.00    -0.108 A  
HETATM   12  N   UNL     1     -11.882  10.663  69.368  1.00  0.00    -0.276 NA 
HETATM   13  C   UNL     1     -12.175  12.005  69.556  1.00  0.00    -0.117 A  
HETATM   14  N   UNL     1     -13.795  14.501  70.862  1.00  0.00    -0.438 NA 
HETATM   15  C   UNL     1     -12.984  12.150  70.671  1.00  0.00     0.200 A  
HETATM   16  C   UNL     1     -13.666  13.234  71.350  1.00  0.00     0.177 A  
HETATM   17  N   UNL     1     -13.077  10.884  71.222  1.00  0.00    -0.357 NA 
HETATM   18  H2  UNL     1     -13.381  14.701  69.951  1.00  0.00     0.000 HD 
HETATM   19  C   UNL     1     -13.712  10.698  72.440  1.00  0.00     0.376 A  
HETATM   20  C   UNL     1     -14.251  11.763  73.046  1.00  0.00     2.645 A  
HETATM   21  N   UNL     1     -14.257  13.029  72.506  1.00  0.00    -0.520 NA 
HETATM   22  H1  UNL     1     -14.275  15.264  71.340  1.00  0.00     0.000 HD 
BRANCH  13  23
HETATM   23  C   UNL     1     -11.667  13.037  68.645  1.00  0.00    -0.359 A  
HETATM   24  C   UNL     1     -10.648  15.104  66.984  1.00  0.00    -0.300 A  
HETATM   25  C   UNL     1     -11.628  15.381  67.946  1.00  0.00    -0.267 A  
HETATM   26  C   UNL     1     -10.740  12.762  67.626  1.00  0.00    -0.236 A  
HETATM   27  C   UNL     1     -12.133  14.353  68.764  1.00  0.00    -0.276 A  
HETATM   28  C   UNL     1     -10.214  13.788  66.819  1.00  0.00    -0.268 A  
BRANCH  24  29
HETATM   29  C   UNL     1     -10.052  16.229  66.203  1.00  0.00    -0.344 C  
HETATM   30  H   UNL     1      -9.280  17.053  67.947  1.00  0.00     0.000 HD 
HETATM   31  O   UNL     1     -10.216  16.253  64.990  1.00  0.00    -0.553 OA 
HETATM   32  N   UNL     1      -9.291  17.127  66.930  1.00  0.00    -0.241 N  
BRANCH  32  33
HETATM   33  C   UNL     1      -8.535  18.135  66.316  1.00  0.00    -0.185 A  
HETATM   34  C   UNL     1      -7.537  17.855  65.388  1.00  0.00     0.791 A  
HETATM   35  C   UNL     1      -6.784  18.911  64.876  1.00  0.00     0.175 A  
HETATM   36  C   UNL     1      -7.029  20.200  65.329  1.00  0.00    -0.300 A  
HETATM   37  C   UNL     1      -8.063  20.386  66.232  1.00  0.00    -0.056 A  
HETATM   38  N   UNL     1      -8.851  19.389  66.697  1.00  0.00    -0.322 NA 
ENDBRANCH  32  33
ENDBRANCH  24  29
ENDBRANCH  13  23
ENDBRANCH  10  11
ENDBRANCH   3   4
TORSDOF 5
ENDMDL
MODEL      101
REMARK 921   NORMALIZED FREE ENERGY PREDICTED BY IDOCK:   -0.14 KCAL/MOL
REMARK 922        TOTAL FREE ENERGY PREDICTED BY IDOCK:    0.34 KCAL/MOL
REMARK 923 INTER-LIGAND FREE ENERGY PREDICTED BY IDOCK:   -0.19 KCAL/MOL
REMARK 924 INTRA-LIGAND FREE ENERGY PREDICTED BY IDOCK:    0.53 KCAL/MOL
REMARK 927      BINDING AFFINITY PREDICTED BY RF-SCORE:    0.00 PKD
ROOT
HETATM    1  C   UNL     1     -12.752  16.231  68.386  1.00  0.00     2.101 C  
HETATM    2  C   UNL     1     -11.340  16.780  68.505  1.00  0.00    -0.064 C  
HETATM    3  C   UNL     1     -10.129  17.252  68.607  1.00  0.00    -0.341 C  
ENDROOT
BRANCH   3   4
HETATM    4  C   UNL     1      -8.805  17.845  68.685  1.00  0.00    -0.261 C  
HETATM    5  O   UNL     1      -8.656  18.805  69.432  1.00  0.00     0.087 OA 
HETATM    6  N   UNL     1      -7.808  17.364  67.859  1.00  0.00    -0.197 N  
HETATM    7  C   UNL     1      -6.585  18.112  67.641  1.00  0.00    -0.187 C  
HETATM    8  C   UNL     1      -6.323  17.913  66.158  1.00  0.00    -0.279 C  
HETATM    9  C   UNL     1      -6.880  16.524  65.842  1.00  0.00     1.275 C  
HETATM   10  C   UNL     1      -7.841  16.187  66.998  1.00  0.00    -0.223 C  
BRANCH  10  11
HETATM   11  C   UNL     1      -7.332  14.969  67.741  1.00  0.00    -0.166 A  
HETATM   12  N   UNL     1      -7.560  13.700  67.429  1.00  0.00    -0.159 NA 
HETATM   13  C   UNL     1      -7.026  12.931  68.452  1.00  0.00    -0.096 A  
HETATM   14  N   UNL     1      -5.153  12.399  71.054  1.00  0.00    -0.137 NA 
HETATM   15  C   UNL     1      -6.397  13.756  69.370  1.00  0.00    -0.111 A  
HETATM   16  C   UNL     1      -5.623  13.591  70.584  1.00  0.00    -0.169 A  
HETATM   17  N   UNL     1      -6.664  15.046  68.946  1.00  0.00    -0.095 NA 
HETATM   18  H2  UNL     1      -5.362  11.562  70.510  1.00  0.00     0.000 HD 
HETATM   19  C   UNL     1      -6.289  16.129  69.725  1.00  0.00    -0.175 A  
HETATM   20  C   UNL     1      -5.644  15.892  70.875  1.00  0.00     0.052 A  
HETATM   21  N   UNL     1      -5.284  14.636  71.306  1.00  0.00    -0.136 NA 
HETATM   22  H1  UNL     1      -4.609  12.283  71.908  1.00  0.00     0.000 HD 
BRANCH  13  23
HETATM   23  C   UNL     1      -7.151  11.470  68.460  1.00  0.00    -0.087 A  
HETATM   24  C   UNL     1      -7.284   8.633  68.542  1.00  0.00    -0.081 A  
HETATM   25  C   UNL     1      -6.161   9.278  68.008  1.00  0.00    -0.050 A  
HETATM   26  C   UNL     1      -8.300  10.808  68.923  1.00  0.00    -0.147 A  
HETATM   27  C   UNL     1      -6.102  10.684  67.965  1.00  0.00    -0.046 A  
HETATM   28  C   UNL     1      -8.359   9.403  68.989  1.00  0.00    -0.124 A  
BRANCH  24  29
HETATM   29  C   UNL     1      -7.278   7.146  68.674  1.00  0.00    -0.094 C  
HETATM   30  H   UNL     1      -5.381   7.211  69.519  1.00  0.00     0.000 HD 
HETATM   31  O   UNL     1      -8.255   6.518  68.287  1.00  0.00    -0.112 OA 
HETATM   32  N   UNL     1      -6.170   6.603  69.300  1.00  0.00    -0.029 N  
BRANCH  32  33
HETATM   33  C   UNL     1      -6.095   5.247  69.645  1.00  0.00    -0.021 A  
HETATM   34  C   UNL     1      -5.529   4.295  68.803  1.00  0.00    -0.012 A  
HETATM   35  C   UNL     1      -5.556   2.956  69.191  1.00  0.00    -0.018 A  
HETATM   36  C   UNL     1      -6.174   2.609  70.385  1.00  0.00    -0.024 A  
HETATM   37  C   UNL     1      -6.684   3.629  71.173  1.00  0.00    -0.031 A  
HETATM   38  N   UNL     1      -6.615   4.942  70.851  1.00  0.00    -0.033 NA 
ENDBRANCH  32  33
ENDBRANCH  24  29
ENDBRANCH  13  23
ENDBRANCH  10  11
ENDBRANCH   3   4
TORSDOF 5
ENDMDL
MODEL      102
REMARK 921   NORMALIZED FREE ENERGY PREDICTED BY IDOCK:    0.30 KCAL/MOL
REMARK 922        TOTAL FREE ENERGY PREDICTED BY IDOCK:    0.90 KCAL/MOL
REMARK 923 INTER-LIGAND FREE ENERGY PREDICTED BY IDOCK:    1.80 KCAL/MOL
REMARK 924 INTRA-LIGAND FREE ENERGY PREDICTED BY IDOCK:   -0.89 KCAL/MOL
REMARK 927      BINDING AFFINITY PREDICTED BY RF-SCORE:    0.00 PKD
ROOT
HETATM    1  C   UNL     1     -10.757  18.354  70.619  1.00  0.00     2.387 C  
HETATM    2  C   UNL     1      -9.495  17.722  70.057  1.00  0.00     1.573 C  
HETATM    3  C   UNL     1      -8.412  17.180  69.574  1.00  0.00     0.579 C  
ENDROOT
BRANCH   3   4
HETATM    4  C   UNL     1      -7.185  16.649  69.008  1.00  0.00    -0.222 C  
HETATM    5  O   UNL     1      -6.259  16.413  69.775  1.00  0.00    -0.207 OA 
HETATM    6  N   UNL     1      -7.083  16.518  67.635  1.00  0.00    -0.125 N  
HETATM    7  C   UNL     1      -5.800  16.322  66.990  1.00  0.00     0.016 C  
HETATM    8  C   UNL     1      -5.908  17.187  65.746  1.00  0.00     0.610 C  
HETATM    9  C   UNL     1      -7.389  17.152  65.368  1.00  0.00     1.548 C  
HETATM   10  C   UNL     1      -8.132  16.685  66.635  1.00  0.00    -0.274 C  
BRANCH  10  11
HETATM   11  C   UNL     1      -8.823  15.366  66.360  1.00  0.00    -0.305 A  
HETATM   12  N   UNL     1      -8.423  14.165  66.758  1.00  0.00    -0.088 NA 
HETATM   13  C   UNL     1      -9.270  13.241  66.167  1.00  0.00     0.023 A  
HETATM   14  N   UNL     1     -11.977  12.300  64.634  1.00  0.00    -0.377 NA 
HETATM   15  C   UNL     1     -10.251  13.906  65.449  1.00  0.00    -0.337 A  
HETATM   16  C   UNL     1     -11.426  13.548  64.681  1.00  0.00    -0.358 A  
HETATM   17  N   UNL     1      -9.911  15.246  65.520  1.00  0.00    -0.342 NA 
HETATM   18  H2  UNL     1     -11.527  11.565  65.180  1.00  0.00     0.000 HD 
HETATM   19  C   UNL     1     -10.618  16.185  64.786  1.00  0.00    -0.021 A  
HETATM   20  C   UNL     1     -11.646  15.765  64.038  1.00  0.00     0.092 A  
HETATM   21  N   UNL     1     -12.076  14.459  63.992  1.00  0.00    -0.503 NA 
HETATM   22  H1  UNL     1     -12.804  12.048  64.093  1.00  0.00     0.000 HD 
BRANCH  13  23
HETATM   23  C   UNL     1      -9.079  11.798  66.347  1.00  0.00    -0.215 A  
HETATM   24  C   UNL     1      -8.804   9.004  66.781  1.00  0.00    -0.144 A  
HETATM   25  C   UNL     1      -8.712   9.903  67.851  1.00  0.00    -0.129 A  
HETATM   26  C   UNL     1      -9.094  10.889  65.276  1.00  0.00    -0.217 A  
HETATM   27  C   UNL     1      -8.845  11.287  67.630  1.00  0.00    -0.138 A  
HETATM   28  C   UNL     1      -8.984   9.503  65.490  1.00  0.00    -0.236 A  
BRANCH  24  29
HETATM   29  C   UNL     1      -8.768   7.536  67.055  1.00  0.00    -0.127 C  
HETATM   30  H   UNL     1      -8.362   7.904  69.060  1.00  0.00     0.000 HD 
HETATM   31  O   UNL     1      -8.959   6.761  66.128  1.00  0.00    -0.153 OA 
HETATM   32  N   UNL     1      -8.584   7.177  68.379  1.00  0.00    -0.124 N  
BRANCH  32  33
HETATM   33  C   UNL     1      -8.692   5.850  68.815  1.00  0.00    -0.109 A  
HETATM   34  C   UNL     1      -7.590   5.006  68.912  1.00  0.00    -0.073 A  
HETATM   35  C   UNL     1      -7.794   3.679  69.289  1.00  0.00    -0.053 A  
HETATM   36  C   UNL     1      -9.087   3.233  69.524  1.00  0.00    -0.200 A  
HETATM   37  C   UNL     1     -10.119   4.153  69.433  1.00  0.00     0.219 A  
HETATM   38  N   UNL     1      -9.944   5.460  69.132  1.00  0.00    -0.179 NA 
ENDBRANCH  32  33
ENDBRANCH  24  29
ENDBRANCH  13  23
ENDBRANCH  10  11
ENDBRANCH   3   4
TORSDOF 5
ENDMDL
MODEL      103
REMARK 921   NORMALIZED FREE ENERGY PREDICTED BY IDOCK:    0.50 KCAL/MOL
REMARK 922        TOTAL FREE ENERGY PREDICTED BY IDOCK:    1.17 KCAL/MOL
REMARK 923 INTER-LIGAND FREE ENERGY PREDICTED BY IDOCK:    0.59 KCAL/MOL
REMARK 924 INTRA-LIGAND FREE ENERGY PREDICTED BY IDOCK:    0.58 KCAL/MOL
REMARK 927      BINDING AFFINITY PREDICTED BY RF-SCORE:    0.00 PKD
ROOT
HETATM    1  C   UNL     1     -11.132   3.864  64.871  1.00  0.00     0.340 C  
HETATM    2  C   UNL     1     -10.239   4.929  64.256  1.00  0.00     0.649 C  
HETATM    3  C   UNL     1      -9.473   5.844  63.728  1.00  0.00     1.525 C  
ENDROOT
BRANCH   3   4
HETATM    4  C   UNL     1      -8.654   6.916  63.191  1.00  0.00     0.454 C  
HETATM    5  O   UNL     1      -9.156   7.645  62.345  1.00  0.00     0.427 OA 
HETATM    6  N   UNL     1      -7.334   7.010  63.587  1.00  0.00    -0.071 N  
HETATM    7  C   UNL     1      -6.384   7.824  62.854  1.00  0.00    -0.071 C  
HETATM    8  C   UNL     1      -5.127   6.972  62.861  1.00  0.00    -0.032 C  
HETATM    9  C   UNL     1      -5.183   6.196  64.177  1.00  0.00    -0.017 C  
HETATM   10  C   UNL     1      -6.652   6.261  64.637  1.00  0.00    -0.038 C  
BRANCH  10  11
HETATM   11  C   UNL     1      -6.738   6.996  65.958  1.00  0.00    -0.053 A  
HETATM   12  N   UNL     1      -6.500   8.285  66.164  1.00  0.00    -0.049 NA 
HETATM   13  C   UNL     1      -6.558   8.493  67.533  1.00  0.00    -0.058 A  
HETATM   14  N   UNL     1      -7.337   7.713  70.590  1.00  0.00    -0.066 NA 
HETATM   15  C   UNL     1      -6.910   7.312  68.165  1.00  0.00    -0.070 A  
HETATM   16  C   UNL     1      -7.189   6.880  69.520  1.00  0.00    -0.081 A  
HETATM   17  N   UNL     1      -6.947   6.358  67.163  1.00  0.00    -0.069 NA 
HETATM   18  H2  UNL     1      -7.244   8.716  70.424  1.00  0.00     0.000 HD 
HETATM   19  C   UNL     1      -7.138   5.022  67.479  1.00  0.00    -0.066 A  
HETATM   20  C   UNL     1      -7.312   4.690  68.765  1.00  0.00    -0.060 A  
HETATM   21  N   UNL     1      -7.363   5.605  69.791  1.00  0.00    -0.068 NA 
HETATM   22  H1  UNL     1      -7.533   7.409  71.543  1.00  0.00     0.000 HD 
BRANCH  13  23
HETATM   23  C   UNL     1      -6.285   9.808  68.122  1.00  0.00    -0.055 A  
HETATM   24  C   UNL     1      -5.843  12.405  69.186  1.00  0.00    -0.075 A  
HETATM   25  C   UNL     1      -5.696  12.163  67.814  1.00  0.00    -0.085 A  
HETATM   26  C   UNL     1      -6.354  10.051  69.504  1.00  0.00    -0.049 A  
HETATM   27  C   UNL     1      -5.912  10.874  67.293  1.00  0.00    -0.054 A  
HETATM   28  C   UNL     1      -6.162  11.342  70.031  1.00  0.00    -0.149 A  
BRANCH  24  29
HETATM   29  C   UNL     1      -5.713  13.802  69.699  1.00  0.00    -0.100 C  
HETATM   30  H   UNL     1      -6.424  14.548  67.895  1.00  0.00     0.000 HD 
HETATM   31  O   UNL     1      -5.291  13.973  70.835  1.00  0.00    -0.117 OA 
HETATM   32  N   UNL     1      -6.158  14.798  68.848  1.00  0.00    -0.081 N  
BRANCH  32  33
HETATM   33  C   UNL     1      -6.256  16.136  69.250  1.00  0.00    -0.163 A  
HETATM   34  C   UNL     1      -7.063  17.056  68.587  1.00  0.00    -0.210 A  
HETATM   35  C   UNL     1      -7.050  18.385  69.009  1.00  0.00    -0.262 A  
HETATM   36  C   UNL     1      -6.213  18.757  70.052  1.00  0.00    -0.136 A  
HETATM   37  C   UNL     1      -5.468  17.766  70.672  1.00  0.00    -0.213 A  
HETATM   38  N   UNL     1      -5.508  16.459  70.325  1.00  0.00    -0.184 NA 
ENDBRANCH  32  33
ENDBRANCH  24  29
ENDBRANCH  13  23
ENDBRANCH  10  11
ENDBRANCH   3   4
TORSDOF 5
ENDMDL
MODEL      104
REMARK 921   NORMALIZED FREE ENERGY PREDICTED BY IDOCK:    0.83 KCAL/MOL
REMARK 922        TOTAL FREE ENERGY PREDICTED BY IDOCK:    1.60 KCAL/MOL
REMARK 923 INTER-LIGAND FREE ENERGY PREDICTED BY IDOCK:    0.43 KCAL/MOL
REMARK 924 INTRA-LIGAND FREE ENERGY PREDICTED BY IDOCK:    1.16 KCAL/MOL
REMARK 927      BINDING AFFINITY PREDICTED BY RF-SCORE:    0.00 PKD
ROOT
HETATM    1  C   UNL     1     -14.162  13.547  70.031  1.00  0.00     4.560 C  
HETATM    2  C   UNL     1     -13.160  14.682  70.157  1.00  0.00     0.065 C  
HETATM    3  C   UNL     1     -12.299  15.656  70.266  1.00  0.00    -0.402 C  
ENDROOT
BRANCH   3   4
HETATM    4  C   UNL     1     -11.328  16.736  70.306  1.00  0.00     0.307 C  
HETATM    5  O   UNL     1     -11.195  17.341  71.362  1.00  0.00     0.569 OA 
HETATM    6  N   UNL     1     -10.670  17.086  69.143  1.00  0.00    -0.303 N  
HETATM    7  C   UNL     1      -9.957  18.344  69.030  1.00  0.00    -0.274 C  
HETATM    8  C   UNL     1     -10.289  18.799  67.620  1.00  0.00    -0.476 C  
HETATM    9  C   UNL     1     -10.453  17.508  66.817  1.00  0.00    -0.270 C  
HETATM   10  C   UNL     1     -10.683  16.396  67.858  1.00  0.00    -0.332 C  
BRANCH  10  11
HETATM   11  C   UNL     1      -9.552  15.390  67.782  1.00  0.00    -0.210 A  
HETATM   12  N   UNL     1      -9.637  14.086  68.007  1.00  0.00    -0.210 NA 
HETATM   13  C   UNL     1      -8.346  13.584  67.965  1.00  0.00    -0.168 A  
HETATM   14  N   UNL     1      -5.180  13.684  67.238  1.00  0.00    -0.271 NA 
HETATM   15  C   UNL     1      -7.465  14.602  67.636  1.00  0.00    -0.186 A  
HETATM   16  C   UNL     1      -6.044  14.729  67.381  1.00  0.00     0.207 A  
HETATM   17  N   UNL     1      -8.233  15.752  67.597  1.00  0.00    -0.146 NA 
HETATM   18  H2  UNL     1      -5.562  12.741  67.317  1.00  0.00     0.000 HD 
HETATM   19  C   UNL     1      -7.631  16.988  67.426  1.00  0.00    -0.167 A  
HETATM   20  C   UNL     1      -6.301  17.032  67.274  1.00  0.00    -0.165 A  
HETATM   21  N   UNL     1      -5.499  15.916  67.226  1.00  0.00    -0.337 NA 
HETATM   22  H1  UNL     1      -4.180  13.774  67.059  1.00  0.00     0.000 HD 
BRANCH  13  23
HETATM   23  C   UNL     1      -8.062  12.170  68.231  1.00  0.00    -0.166 A  
HETATM   24  C   UNL     1      -7.621   9.400  68.684  1.00  0.00    -0.080 A  
HETATM   25  C   UNL     1      -8.803  10.013  69.119  1.00  0.00    -0.171 A  
HETATM   26  C   UNL     1      -6.851  11.556  67.869  1.00  0.00    -0.073 A  
HETATM   27  C   UNL     1      -9.015  11.387  68.895  1.00  0.00    -0.016 A  
HETATM   28  C   UNL     1      -6.640  10.179  68.068  1.00  0.00    -0.058 A  
BRANCH  24  29
HETATM   29  C   UNL     1      -7.465   7.923  68.837  1.00  0.00    -0.094 C  
HETATM   30  H   UNL     1      -8.884   7.603  67.353  1.00  0.00     0.000 HD 
HETATM   31  O   UNL     1      -6.672   7.498  69.667  1.00  0.00    -0.039 OA 
HETATM   32  N   UNL     1      -8.199   7.148  67.957  1.00  0.00    -0.119 N  
BRANCH  32  33
HETATM   33  C   UNL     1      -8.034   5.759  67.866  1.00  0.00    -0.098 A  
HETATM   34  C   UNL     1      -6.813   5.174  67.544  1.00  0.00    -0.057 A  
HETATM   35  C   UNL     1      -6.750   3.788  67.407  1.00  0.00    -0.046 A  
HETATM   36  C   UNL     1      -7.908   3.039  67.561  1.00  0.00    -0.076 A  
HETATM   37  C   UNL     1      -9.071   3.705  67.911  1.00  0.00    -0.155 A  
HETATM   38  N   UNL     1      -9.148   5.041  68.113  1.00  0.00    -0.111 NA 
ENDBRANCH  32  33
ENDBRANCH  24  29
ENDBRANCH  13  23
ENDBRANCH  10  11
ENDBRANCH   3   4
TORSDOF 5
ENDMDL
MODEL      105
REMARK 921   NORMALIZED FREE ENERGY PREDICTED BY IDOCK:    2.01 KCAL/MOL
REMARK 922        TOTAL FREE ENERGY PREDICTED BY IDOCK:    3.12 KCAL/MOL
REMARK 923 INTER-LIGAND FREE ENERGY PREDICTED BY IDOCK:    3.58 KCAL/MOL
REMARK 924 INTRA-LIGAND FREE ENERGY PREDICTED BY IDOCK:   -0.46 KCAL/MOL
REMARK 927      BINDING AFFINITY PREDICTED BY RF-SCORE:    0.00 PKD
ROOT
HETATM    1  C   UNL     1     -11.101  18.335  70.733  1.00  0.00     3.241 C  
HETATM    2  C   UNL     1      -9.762  17.809  70.242  1.00  0.00     1.963 C  
HETATM    3  C   UNL     1      -8.613  17.359  69.821  1.00  0.00     1.290 C  
ENDROOT
BRANCH   3   4
HETATM    4  C   UNL     1      -7.321  16.929  69.317  1.00  0.00    -0.150 C  
HETATM    5  O   UNL     1      -6.360  17.010  70.073  1.00  0.00    -0.161 OA 
HETATM    6  N   UNL     1      -7.215  16.536  67.997  1.00  0.00    -0.140 N  
HETATM    7  C   UNL     1      -5.925  16.422  67.345  1.00  0.00    -0.162 C  
HETATM    8  C   UNL     1      -6.193  16.982  65.959  1.00  0.00     0.344 C  
HETATM    9  C   UNL     1      -7.651  16.630  65.665  1.00  0.00     1.224 C  
HETATM   10  C   UNL     1      -8.289  16.321  67.033  1.00  0.00    -0.205 C  
BRANCH  10  11
HETATM   11  C   UNL     1      -8.751  14.879  67.062  1.00  0.00    -0.238 A  
HETATM   12  N   UNL     1      -8.088  13.845  67.563  1.00  0.00    -0.171 NA 
HETATM   13  C   UNL     1      -8.815  12.707  67.249  1.00  0.00    -0.196 A  
HETATM   14  N   UNL     1     -11.471  11.089  66.304  1.00  0.00    -0.063 NA 
HETATM   15  C   UNL     1      -9.985  13.071  66.603  1.00  0.00    -0.250 A  
HETATM   16  C   UNL     1     -11.161  12.400  66.085  1.00  0.00    -0.302 A  
HETATM   17  N   UNL     1      -9.895  14.441  66.425  1.00  0.00    -0.283 NA 
HETATM   18  H2  UNL     1     -10.826  10.541  66.875  1.00  0.00     0.000 HD 
HETATM   19  C   UNL     1     -10.851  15.113  65.681  1.00  0.00    -0.360 A  
HETATM   20  C   UNL     1     -11.869  14.410  65.169  1.00  0.00    -0.386 A  
HETATM   21  N   UNL     1     -12.050  13.062  65.380  1.00  0.00    -0.417 NA 
HETATM   22  H1  UNL     1     -12.298  10.617  65.940  1.00  0.00     0.000 HD 
BRANCH  13  23
HETATM   23  C   UNL     1      -8.337  11.367  67.605  1.00  0.00    -0.129 A  
HETATM   24  C   UNL     1      -7.318   8.826  68.362  1.00  0.00    -0.086 A  
HETATM   25  C   UNL     1      -6.502   9.752  67.699  1.00  0.00    -0.067 A  
HETATM   26  C   UNL     1      -9.163  10.400  68.202  1.00  0.00    -0.145 A  
HETATM   27  C   UNL     1      -7.013  11.008  67.322  1.00  0.00    -0.096 A  
HETATM   28  C   UNL     1      -8.654   9.150  68.602  1.00  0.00    -0.128 A  
BRANCH  24  29
HETATM   29  C   UNL     1      -6.724   7.544  68.845  1.00  0.00    -0.049 C  
HETATM   30  H   UNL     1      -8.367   6.493  68.130  1.00  0.00     0.000 HD 
HETATM   31  O   UNL     1      -5.639   7.576  69.411  1.00  0.00    -0.022 OA 
HETATM   32  N   UNL     1      -7.439   6.399  68.542  1.00  0.00    -0.086 N  
BRANCH  32  33
HETATM   33  C   UNL     1      -6.931   5.115  68.781  1.00  0.00    -0.053 A  
HETATM   34  C   UNL     1      -7.617   4.173  69.543  1.00  0.00    -0.054 A  
HETATM   35  C   UNL     1      -7.011   2.942  69.791  1.00  0.00    -0.034 A  
HETATM   36  C   UNL     1      -5.734   2.706  69.301  1.00  0.00    -0.022 A  
HETATM   37  C   UNL     1      -5.141   3.691  68.527  1.00  0.00    -0.007 A  
HETATM   38  N   UNL     1      -5.732   4.868  68.218  1.00  0.00    -0.016 NA 
ENDBRANCH  32  33
ENDBRANCH  24  29
ENDBRANCH  13  23
ENDBRANCH  10  11
ENDBRANCH   3   4
TORSDOF 5
ENDMDL
MODEL      106
REMARK 921   NORMALIZED FREE ENERGY PREDICTED BY IDOCK:    2.43 KCAL/MOL
REMARK 922        TOTAL FREE ENERGY PREDICTED BY IDOCK:    3.67 KCAL/MOL
REMARK 923 INTER-LIGAND FREE ENERGY PREDICTED BY IDOCK:    1.99 KCAL/MOL
REMARK 924 INTRA-LIGAND FREE ENERGY PREDICTED BY IDOCK:    1.68 KCAL/MOL
REMARK 927      BINDING AFFINITY PREDICTED BY RF-SCORE:    0.00 PKD
ROOT
HETATM    1  C   UNL     1      -6.614   2.457  66.658  1.00  0.00    -0.039 C  
HETATM    2  C   UNL     1      -7.724   3.095  67.477  1.00  0.00    -0.076 C  
HETATM    3  C   UNL     1      -8.676   3.643  68.179  1.00  0.00    -0.130 C  
ENDROOT
BRANCH   3   4
HETATM    4  C   UNL     1      -9.682   4.269  69.020  1.00  0.00    -0.139 C  
HETATM    5  O   UNL     1      -9.954   3.725  70.082  1.00  0.00    -0.128 OA 
HETATM    6  N   UNL     1     -10.344   5.388  68.550  1.00  0.00    -0.171 N  
HETATM    7  C   UNL     1     -11.568   5.855  69.169  1.00  0.00     0.645 C  
HETATM    8  C   UNL     1     -12.417   6.267  67.979  1.00  0.00     5.863 C  
HETATM    9  C   UNL     1     -11.417   6.751  66.929  1.00  0.00     0.456 C  
HETATM   10  C   UNL     1     -10.054   6.168  67.351  1.00  0.00    -0.156 C  
BRANCH  10  11
HETATM   11  C   UNL     1      -9.096   7.297  67.668  1.00  0.00    -0.124 A  
HETATM   12  N   UNL     1      -9.315   8.593  67.494  1.00  0.00    -0.135 NA 
HETATM   13  C   UNL     1      -8.126   9.246  67.781  1.00  0.00    -0.104 A  
HETATM   14  N   UNL     1      -5.138   9.485  69.036  1.00  0.00    -0.037 NA 
HETATM   15  C   UNL     1      -7.184   8.323  68.208  1.00  0.00    -0.093 A  
HETATM   16  C   UNL     1      -5.820   8.353  68.697  1.00  0.00    -0.044 A  
HETATM   17  N   UNL     1      -7.789   7.087  68.060  1.00  0.00    -0.112 NA 
HETATM   18  H2  UNL     1      -5.624  10.377  68.937  1.00  0.00     0.000 HD 
HETATM   19  C   UNL     1      -7.065   5.926  68.273  1.00  0.00    -0.078 A  
HETATM   20  C   UNL     1      -5.784   6.035  68.650  1.00  0.00    -0.012 A  
HETATM   21  N   UNL     1      -5.156   7.235  68.887  1.00  0.00    -0.014 NA 
HETATM   22  H1  UNL     1      -4.178   9.506  69.380  1.00  0.00     0.000 HD 
BRANCH  13  23
HETATM   23  C   UNL     1      -7.992  10.699  67.635  1.00  0.00    -0.106 A  
HETATM   24  C   UNL     1      -7.857  13.525  67.387  1.00  0.00    -0.157 A  
HETATM   25  C   UNL     1      -8.801  12.791  66.658  1.00  0.00    -0.113 A  
HETATM   26  C   UNL     1      -7.003  11.442  68.301  1.00  0.00    -0.072 A  
HETATM   27  C   UNL     1      -8.861  11.391  66.781  1.00  0.00    -0.179 A  
HETATM   28  C   UNL     1      -6.950  12.845  68.201  1.00  0.00    -0.102 A  
BRANCH  24  29
HETATM   29  C   UNL     1      -7.882  15.017  67.321  1.00  0.00    -0.211 C  
HETATM   30  H   UNL     1      -9.917  14.981  66.904  1.00  0.00     0.000 HD 
HETATM   31  O   UNL     1      -6.840  15.632  67.507  1.00  0.00    -0.160 OA 
HETATM   32  N   UNL     1      -9.126  15.588  67.119  1.00  0.00    -0.208 N  
BRANCH  32  33
HETATM   33  C   UNL     1      -9.337  16.971  67.199  1.00  0.00    -0.236 A  
HETATM   34  C   UNL     1     -10.354  17.526  67.969  1.00  0.00    -0.368 A  
HETATM   35  C   UNL     1     -10.539  18.907  67.941  1.00  0.00    -0.425 A  
HETATM   36  C   UNL     1      -9.728  19.682  67.123  1.00  0.00    -0.471 A  
HETATM   37  C   UNL     1      -8.721  19.046  66.415  1.00  0.00    -0.317 A  
HETATM   38  N   UNL     1      -8.479  17.716  66.473  1.00  0.00    -0.258 NA 
ENDBRANCH  32  33
ENDBRANCH  24  29
ENDBRANCH  13  23
ENDBRANCH  10  11
ENDBRANCH   3   4
TORSDOF 5
ENDMDL
MODEL      107
REMARK 921   NORMALIZED FREE ENERGY PREDICTED BY IDOCK:    2.93 KCAL/MOL
REMARK 922        TOTAL FREE ENERGY PREDICTED BY IDOCK:    4.30 KCAL/MOL
REMARK 923 INTER-LIGAND FREE ENERGY PREDICTED BY IDOCK:    4.87 KCAL/MOL
REMARK 924 INTRA-LIGAND FREE ENERGY PREDICTED BY IDOCK:   -0.57 KCAL/MOL
REMARK 927      BINDING AFFINITY PREDICTED BY RF-SCORE:    0.00 PKD
ROOT
HETATM    1  C   UNL     1     -11.101  18.335  70.733  1.00  0.00     3.241 C  
HETATM    2  C   UNL     1      -9.762  17.809  70.242  1.00  0.00     1.963 C  
HETATM    3  C   UNL     1      -8.613  17.359  69.821  1.00  0.00     1.290 C  
ENDROOT
BRANCH   3   4
HETATM    4  C   UNL     1      -7.321  16.929  69.317  1.00  0.00    -0.150 C  
HETATM    5  O   UNL     1      -6.360  17.010  70.073  1.00  0.00    -0.161 OA 
HETATM    6  N   UNL     1      -7.215  16.536  67.997  1.00  0.00    -0.140 N  
HETATM    7  C   UNL     1      -5.925  16.422  67.345  1.00  0.00    -0.162 C  
HETATM    8  C   UNL     1      -6.193  16.982  65.959  1.00  0.00     0.344 C  
HETATM    9  C   UNL     1      -7.651  16.630  65.665  1.00  0.00     1.224 C  
HETATM   10  C   UNL     1      -8.289  16.321  67.033  1.00  0.00    -0.205 C  
BRANCH  10  11
HETATM   11  C   UNL     1      -8.751  14.879  67.062  1.00  0.00    -0.238 A  
HETATM   12  N   UNL     1      -8.013  13.806  66.807  1.00  0.00     0.244 NA 
HETATM   13  C   UNL     1      -8.870  12.716  66.811  1.00  0.00    -0.168 A  
HETATM   14  N   UNL     1     -11.650  11.170  67.477  1.00  0.00    -0.561 NA 
HETATM   15  C   UNL     1     -10.148  13.134  67.147  1.00  0.00    -0.242 A  
HETATM   16  C   UNL     1     -11.437  12.514  67.376  1.00  0.00    -0.341 A  
HETATM   17  N   UNL     1     -10.071  14.514  67.229  1.00  0.00    -0.246 NA 
HETATM   18  H2  UNL     1     -10.841  10.556  67.382  1.00  0.00     0.000 HD 
HETATM   19  C   UNL     1     -11.220  15.266  67.418  1.00  0.00    -0.311 A  
HETATM   20  C   UNL     1     -12.388  14.623  67.544  1.00  0.00     0.139 A  
HETATM   21  N   UNL     1     -12.511  13.253  67.549  1.00  0.00    -0.000 NA 
HETATM   22  H1  UNL     1     -12.558  10.734  67.638  1.00  0.00     0.000 HD 
BRANCH  13  23
HETATM   23  C   UNL     1      -8.394  11.363  66.505  1.00  0.00    -0.164 A  
HETATM   24  C   UNL     1      -7.351   8.788  65.914  1.00  0.00    -0.085 A  
HETATM   25  C   UNL     1      -7.064   9.879  65.085  1.00  0.00    -0.129 A  
HETATM   26  C   UNL     1      -8.733  10.244  67.283  1.00  0.00    -0.125 A  
HETATM   27  C   UNL     1      -7.586  11.153  65.380  1.00  0.00     0.369 A  
HETATM   28  C   UNL     1      -8.198   8.972  67.009  1.00  0.00    -0.109 A  
BRANCH  24  29
HETATM   29  C   UNL     1      -6.700   7.472  65.642  1.00  0.00    -0.045 C  
HETATM   30  H   UNL     1      -8.507   6.494  65.946  1.00  0.00     0.000 HD 
HETATM   31  O   UNL     1      -5.504   7.452  65.378  1.00  0.00    -0.028 OA 
HETATM   32  N   UNL     1      -7.541   6.374  65.643  1.00  0.00    -0.082 N  
BRANCH  32  33
HETATM   33  C   UNL     1      -7.111   5.101  65.243  1.00  0.00    -0.066 A  
HETATM   34  C   UNL     1      -7.236   3.982  66.060  1.00  0.00    -0.068 A  
HETATM   35  C   UNL     1      -6.721   2.766  65.614  1.00  0.00    -0.040 A  
HETATM   36  C   UNL     1      -6.070   2.714  64.388  1.00  0.00    -0.018 A  
HETATM   37  C   UNL     1      -6.020   3.873  63.630  1.00  0.00    -0.014 A  
HETATM   38  N   UNL     1      -6.567   5.051  64.010  1.00  0.00    -0.040 NA 
ENDBRANCH  32  33
ENDBRANCH  24  29
ENDBRANCH  13  23
ENDBRANCH  10  11
ENDBRANCH   3   4
TORSDOF 5
ENDMDL
MODEL      108
REMARK 921   NORMALIZED FREE ENERGY PREDICTED BY IDOCK:    3.08 KCAL/MOL
REMARK 922        TOTAL FREE ENERGY PREDICTED BY IDOCK:    4.51 KCAL/MOL
REMARK 923 INTER-LIGAND FREE ENERGY PREDICTED BY IDOCK:    4.70 KCAL/MOL
REMARK 924 INTRA-LIGAND FREE ENERGY PREDICTED BY IDOCK:   -0.19 KCAL/MOL
REMARK 927      BINDING AFFINITY PREDICTED BY RF-SCORE:    0.00 PKD
ROOT
HETATM    1  C   UNL     1     -13.887  13.875  69.563  1.00  0.00     4.197 C  
HETATM    2  C   UNL     1     -12.978  14.997  70.034  1.00  0.00    -0.022 C  
HETATM    3  C   UNL     1     -12.197  15.961  70.439  1.00  0.00    -0.292 C  
ENDROOT
BRANCH   3   4
HETATM    4  C   UNL     1     -11.310  17.048  70.812  1.00  0.00     0.867 C  
HETATM    5  O   UNL     1     -11.217  17.324  72.002  1.00  0.00     0.576 OA 
HETATM    6  N   UNL     1     -10.687  17.774  69.815  1.00  0.00     0.549 N  
HETATM    7  C   UNL     1     -10.071  19.058  70.090  1.00  0.00     1.074 C  
HETATM    8  C   UNL     1     -10.444  19.883  68.870  1.00  0.00    -0.132 C  
HETATM    9  C   UNL     1     -10.516  18.878  67.720  1.00  0.00    -0.487 C  
HETATM   10  C   UNL     1     -10.655  17.494  68.384  1.00  0.00    -0.339 C  
BRANCH  10  11
HETATM   11  C   UNL     1      -9.453  16.642  68.034  1.00  0.00    -0.224 A  
HETATM   12  N   UNL     1      -9.317  15.339  68.245  1.00  0.00    -0.190 NA 
HETATM   13  C   UNL     1      -8.016  15.007  67.902  1.00  0.00    -0.138 A  
HETATM   14  N   UNL     1      -5.136  15.507  66.481  1.00  0.00     1.022 NA 
HETATM   15  C   UNL     1      -7.370  16.127  67.404  1.00  0.00    -0.176 A  
HETATM   16  C   UNL     1      -6.072  16.435  66.837  1.00  0.00    -0.010 A  
HETATM   17  N   UNL     1      -8.267  17.169  67.563  1.00  0.00    -0.184 NA 
HETATM   18  H2  UNL     1      -5.368  14.524  66.625  1.00  0.00     0.000 HD 
HETATM   19  C   UNL     1      -7.881  18.471  67.286  1.00  0.00    -0.235 A  
HETATM   20  C   UNL     1      -6.637  18.684  66.838  1.00  0.00    -0.188 A  
HETATM   21  N   UNL     1      -5.731  17.680  66.588  1.00  0.00    -0.162 NA 
HETATM   22  H1  UNL     1      -4.223  15.724  66.083  1.00  0.00     0.000 HD 
BRANCH  13  23
HETATM   23  C   UNL     1      -7.501  13.644  68.068  1.00  0.00    -0.133 A  
HETATM   24  C   UNL     1      -6.587  10.987  68.486  1.00  0.00    -0.059 A  
HETATM   25  C   UNL     1      -6.551  11.924  69.527  1.00  0.00    -0.093 A  
HETATM   26  C   UNL     1      -7.460  12.714  67.016  1.00  0.00     0.030 A  
HETATM   27  C   UNL     1      -7.002  13.240  69.313  1.00  0.00     0.018 A  
HETATM   28  C   UNL     1      -7.033  11.390  67.226  1.00  0.00    -0.115 A  
BRANCH  24  29
HETATM   29  C   UNL     1      -6.206   9.570  68.765  1.00  0.00    -0.043 C  
HETATM   30  H   UNL     1      -7.949   9.299  69.862  1.00  0.00     0.000 HD 
HETATM   31  O   UNL     1      -5.150   9.146  68.313  1.00  0.00    -0.031 OA 
HETATM   32  N   UNL     1      -7.135   8.826  69.470  1.00  0.00    -0.054 N  
BRANCH  32  33
HETATM   33  C   UNL     1      -6.995   7.445  69.664  1.00  0.00    -0.053 A  
HETATM   34  C   UNL     1      -7.565   6.511  68.804  1.00  0.00    -0.100 A  
HETATM   35  C   UNL     1      -7.437   5.156  69.106  1.00  0.00    -0.065 A  
HETATM   36  C   UNL     1      -6.776   4.781  70.268  1.00  0.00    -0.036 A  
HETATM   37  C   UNL     1      -6.215   5.780  71.048  1.00  0.00    -0.035 A  
HETATM   38  N   UNL     1      -6.269   7.097  70.746  1.00  0.00    -0.035 NA 
ENDBRANCH  32  33
ENDBRANCH  24  29
ENDBRANCH  13  23
ENDBRANCH  10  11
ENDBRANCH   3   4
TORSDOF 5
ENDMDL
MODEL      109
REMARK 921   NORMALIZED FREE ENERGY PREDICTED BY IDOCK:    3.74 KCAL/MOL
REMARK 922        TOTAL FREE ENERGY PREDICTED BY IDOCK:    5.35 KCAL/MOL
REMARK 923 INTER-LIGAND FREE ENERGY PREDICTED BY IDOCK:    5.16 KCAL/MOL
REMARK 924 INTRA-LIGAND FREE ENERGY PREDICTED BY IDOCK:    0.19 KCAL/MOL
REMARK 927      BINDING AFFINITY PREDICTED BY RF-SCORE:    0.00 PKD
ROOT
HETATM    1  C   UNL     1     -12.094  19.166  64.083  1.00  0.00     9.471 C  
HETATM    2  C   UNL     1     -11.338  19.054  65.397  1.00  0.00     1.223 C  
HETATM    3  C   UNL     1     -10.689  18.958  66.524  1.00  0.00    -0.375 C  
ENDROOT
BRANCH   3   4
HETATM    4  C   UNL     1     -10.035  18.871  67.818  1.00  0.00    -0.355 C  
HETATM    5  O   UNL     1     -10.555  19.458  68.759  1.00  0.00    -0.126 OA 
HETATM    6  N   UNL     1      -8.824  18.212  67.911  1.00  0.00    -0.263 N  
HETATM    7  C   UNL     1      -7.966  18.373  69.069  1.00  0.00    -0.091 C  
HETATM    8  C   UNL     1      -6.577  18.437  68.458  1.00  0.00    -0.242 C  
HETATM    9  C   UNL     1      -6.652  17.556  67.211  1.00  0.00    -0.184 C  
HETATM   10  C   UNL     1      -8.153  17.412  66.892  1.00  0.00    -0.227 C  
BRANCH  10  11
HETATM   11  C   UNL     1      -8.557  15.957  67.005  1.00  0.00    -0.216 A  
HETATM   12  N   UNL     1      -7.884  14.993  67.619  1.00  0.00    -0.152 NA 
HETATM   13  C   UNL     1      -8.545  13.804  67.353  1.00  0.00    -0.203 A  
HETATM   14  N   UNL     1     -11.073  12.005  66.386  1.00  0.00    -0.303 NA 
HETATM   15  C   UNL     1      -9.689  14.068  66.616  1.00  0.00    -0.289 A  
HETATM   16  C   UNL     1     -10.803  13.308  66.086  1.00  0.00    -0.280 A  
HETATM   17  N   UNL     1      -9.643  15.423  66.340  1.00  0.00    -0.271 NA 
HETATM   18  H2  UNL     1     -10.442  11.529  67.032  1.00  0.00     0.000 HD 
HETATM   19  C   UNL     1     -10.579  15.996  65.495  1.00  0.00    -0.398 A  
HETATM   20  C   UNL     1     -11.536  15.211  64.981  1.00  0.00    -0.294 A  
HETATM   21  N   UNL     1     -11.675  13.877  65.283  1.00  0.00    -0.327 NA 
HETATM   22  H1  UNL     1     -11.857  11.470  66.013  1.00  0.00     0.000 HD 
BRANCH  13  23
HETATM   23  C   UNL     1      -8.036  12.517  67.836  1.00  0.00    -0.163 A  
HETATM   24  C   UNL     1      -7.116  10.040  68.879  1.00  0.00    -0.068 A  
HETATM   25  C   UNL     1      -6.903  11.232  69.583  1.00  0.00    -0.095 A  
HETATM   26  C   UNL     1      -8.175  11.323  67.108  1.00  0.00    -0.149 A  
HETATM   27  C   UNL     1      -7.357  12.457  69.060  1.00  0.00     0.031 A  
HETATM   28  C   UNL     1      -7.744  10.091  67.633  1.00  0.00    -0.091 A  
BRANCH  24  29
HETATM   29  C   UNL     1      -6.721   8.742  69.504  1.00  0.00    -0.047 C  
HETATM   30  H   UNL     1      -7.986   7.717  68.214  1.00  0.00     0.000 HD 
HETATM   31  O   UNL     1      -5.911   8.755  70.422  1.00  0.00    -0.029 OA 
HETATM   32  N   UNL     1      -7.267   7.608  68.929  1.00  0.00    -0.079 N  
BRANCH  32  33
HETATM   33  C   UNL     1      -6.864   6.317  69.294  1.00  0.00    -0.062 A  
HETATM   34  C   UNL     1      -6.633   5.316  68.356  1.00  0.00    -0.049 A  
HETATM   35  C   UNL     1      -6.302   4.039  68.806  1.00  0.00    -0.033 A  
HETATM   36  C   UNL     1      -6.246   3.795  70.172  1.00  0.00    -0.027 A  
HETATM   37  C   UNL     1      -6.462   4.861  71.031  1.00  0.00    -0.023 A  
HETATM   38  N   UNL     1      -6.722   6.124  70.621  1.00  0.00    -0.052 NA 
ENDBRANCH  32  33
ENDBRANCH  24  29
ENDBRANCH  13  23
ENDBRANCH  10  11
ENDBRANCH   3   4
TORSDOF 5
ENDMDL
MODEL      110
REMARK 921   NORMALIZED FREE ENERGY PREDICTED BY IDOCK:    3.81 KCAL/MOL
REMARK 922        TOTAL FREE ENERGY PREDICTED BY IDOCK:    5.45 KCAL/MOL
REMARK 923 INTER-LIGAND FREE ENERGY PREDICTED BY IDOCK:    4.08 KCAL/MOL
REMARK 924 INTRA-LIGAND FREE ENERGY PREDICTED BY IDOCK:    1.37 KCAL/MOL
REMARK 927      BINDING AFFINITY PREDICTED BY RF-SCORE:    0.00 PKD
ROOT
HETATM    1  C   UNL     1      -5.760  18.367  67.526  1.00  0.00    -0.150 C  
HETATM    2  C   UNL     1      -7.024  17.699  67.011  1.00  0.00    -0.209 C  
HETATM    3  C   UNL     1      -8.109  17.126  66.569  1.00  0.00    -0.318 C  
ENDROOT
BRANCH   3   4
HETATM    4  C   UNL     1      -9.275  16.419  66.070  1.00  0.00    -0.293 C  
HETATM    5  O   UNL     1      -9.561  16.556  64.887  1.00  0.00     0.412 OA 
HETATM    6  N   UNL     1     -10.053  15.702  66.960  1.00  0.00    -0.248 N  
HETATM    7  C   UNL     1     -11.389  15.263  66.608  1.00  0.00    -0.170 C  
HETATM    8  C   UNL     1     -12.173  15.494  67.888  1.00  0.00     0.515 C  
HETATM    9  C   UNL     1     -11.163  15.276  69.014  1.00  0.00    -0.287 C  
HETATM   10  C   UNL     1      -9.774  15.400  68.359  1.00  0.00    -0.211 C  
BRANCH  10  11
HETATM   11  C   UNL     1      -9.036  14.084  68.484  1.00  0.00    -0.160 A  
HETATM   12  N   UNL     1      -9.461  12.994  69.109  1.00  0.00     0.466 NA 
HETATM   13  C   UNL     1      -8.414  12.085  69.094  1.00  0.00     0.480 A  
HETATM   14  N   UNL     1      -5.575  10.896  68.052  1.00  0.00    -0.043 NA 
HETATM   15  C   UNL     1      -7.353  12.615  68.377  1.00  0.00    -0.118 A  
HETATM   16  C   UNL     1      -6.040  12.174  67.951  1.00  0.00    -0.075 A  
HETATM   17  N   UNL     1      -7.734  13.908  68.062  1.00  0.00    -0.134 NA 
HETATM   18  H2  UNL     1      -6.198  10.198  68.458  1.00  0.00     0.000 HD 
HETATM   19  C   UNL     1      -6.835  14.771  67.456  1.00  0.00    -0.155 A  
HETATM   20  C   UNL     1      -5.612  14.313  67.162  1.00  0.00     0.929 A  
HETATM   21  N   UNL     1      -5.207  13.017  67.381  1.00  0.00    -0.329 NA 
HETATM   22  H1  UNL     1      -4.651  10.586  67.753  1.00  0.00     0.000 HD 
BRANCH  13  23
HETATM   23  C   UNL     1      -8.520  10.780  69.754  1.00  0.00     0.367 A  
HETATM   24  C   UNL     1      -8.839   8.237  70.979  1.00  0.00    -0.176 A  
HETATM   25  C   UNL     1      -9.794   9.243  71.169  1.00  0.00    -0.342 A  
HETATM   26  C   UNL     1      -7.535   9.785  69.635  1.00  0.00    -0.113 A  
HETATM   27  C   UNL     1      -9.629  10.503  70.564  1.00  0.00     1.125 A  
HETATM   28  C   UNL     1      -7.702   8.516  70.218  1.00  0.00    -0.077 A  
BRANCH  24  29
HETATM   29  C   UNL     1      -9.089   6.876  71.542  1.00  0.00    -0.144 C  
HETATM   30  H   UNL     1     -11.118   7.296  71.699  1.00  0.00     0.000 HD 
HETATM   31  O   UNL     1      -8.139   6.118  71.690  1.00  0.00    -0.109 OA 
HETATM   32  N   UNL     1     -10.414   6.563  71.790  1.00  0.00    -0.209 N  
BRANCH  32  33
HETATM   33  C   UNL     1     -10.821   5.275  72.160  1.00  0.00    -0.188 A  
HETATM   34  C   UNL     1     -10.887   4.224  71.249  1.00  0.00     0.741 A  
HETATM   35  C   UNL     1     -11.368   2.990  71.684  1.00  0.00     2.751 A  
HETATM   36  C   UNL     1     -11.796   2.855  72.998  1.00  0.00     0.425 A  
HETATM   37  C   UNL     1     -11.664   3.947  73.840  1.00  0.00     0.448 A  
HETATM   38  N   UNL     1     -11.142   5.136  73.462  1.00  0.00    -0.320 NA 
ENDBRANCH  32  33
ENDBRANCH  24  29
ENDBRANCH  13  23
ENDBRANCH  10  11
ENDBRANCH   3   4
TORSDOF 5
ENDMDL
MODEL      111
REMARK 921   NORMALIZED FREE ENERGY PREDICTED BY IDOCK:    7.63 KCAL/MOL
REMARK 922        TOTAL FREE ENERGY PREDICTED BY IDOCK:   10.38 KCAL/MOL
REMARK 923 INTER-LIGAND FREE ENERGY PREDICTED BY IDOCK:    9.87 KCAL/MOL
REMARK 924 INTRA-LIGAND FREE ENERGY PREDICTED BY IDOCK:    0.51 KCAL/MOL
REMARK 927      BINDING AFFINITY PREDICTED BY RF-SCORE:    0.00 PKD
ROOT
HETATM    1  C   UNL     1     -14.204  13.782  72.865  1.00  0.00     0.521 C  
HETATM    2  C   UNL     1     -13.145  14.555  72.097  1.00  0.00    -0.438 C  
HETATM    3  C   UNL     1     -12.236  15.218  71.437  1.00  0.00    -0.414 C  
ENDROOT
BRANCH   3   4
HETATM    4  C   UNL     1     -11.284  15.993  70.661  1.00  0.00    -0.372 C  
HETATM    5  O   UNL     1     -10.298  16.429  71.242  1.00  0.00     1.228 OA 
HETATM    6  N   UNL     1     -11.572  16.276  69.339  1.00  0.00    -0.245 N  
HETATM    7  C   UNL     1     -10.853  17.305  68.615  1.00  0.00    -0.199 C  
HETATM    8  C   UNL     1     -11.945  17.975  67.799  1.00  0.00     2.517 C  
HETATM    9  C   UNL     1     -12.951  16.864  67.498  1.00  0.00     5.211 C  
HETATM   10  C   UNL     1     -12.661  15.750  68.523  1.00  0.00     1.019 C  
BRANCH  10  11
HETATM   11  C   UNL     1     -12.223  14.495  67.796  1.00  0.00    -0.113 A  
HETATM   12  N   UNL     1     -11.298  13.632  68.193  1.00  0.00    -0.271 NA 
HETATM   13  C   UNL     1     -11.126  12.721  67.162  1.00  0.00    -0.277 A  
HETATM   14  N   UNL     1     -11.969  11.203  64.415  1.00  0.00     0.309 NA 
HETATM   15  C   UNL     1     -12.023  13.001  66.144  1.00  0.00    -0.427 A  
HETATM   16  C   UNL     1     -12.390  12.420  64.868  1.00  0.00    -0.402 A  
HETATM   17  N   UNL     1     -12.658  14.169  66.527  1.00  0.00    -0.287 NA 
HETATM   18  H2  UNL     1     -11.350  10.663  65.019  1.00  0.00     0.000 HD 
HETATM   19  C   UNL     1     -13.532  14.805  65.659  1.00  0.00     1.430 A  
HETATM   20  C   UNL     1     -13.761  14.246  64.464  1.00  0.00     2.762 A  
HETATM   21  N   UNL     1     -13.219  13.047  64.063  1.00  0.00    -0.047 NA 
HETATM   22  H1  UNL     1     -12.227  10.795  63.517  1.00  0.00     0.000 HD 
BRANCH  13  23
HETATM   23  C   UNL     1     -10.127  11.650  67.241  1.00  0.00    -0.221 A  
HETATM   24  C   UNL     1      -8.223   9.560  67.518  1.00  0.00    -0.121 A  
HETATM   25  C   UNL     1      -8.173  10.683  68.354  1.00  0.00    -0.125 A  
HETATM   26  C   UNL     1     -10.116  10.554  66.363  1.00  0.00    -0.285 A  
HETATM   27  C   UNL     1      -9.117  11.718  68.210  1.00  0.00    -0.187 A  
HETATM   28  C   UNL     1      -9.190   9.504  66.514  1.00  0.00    -0.201 A  
BRANCH  24  29
HETATM   29  C   UNL     1      -7.279   8.428  67.759  1.00  0.00    -0.088 C  
HETATM   30  H   UNL     1      -8.852   7.075  67.667  1.00  0.00     0.000 HD 
HETATM   31  O   UNL     1      -6.089   8.676  67.907  1.00  0.00    -0.049 OA 
HETATM   32  N   UNL     1      -7.838   7.163  67.726  1.00  0.00    -0.112 N  
BRANCH  32  33
HETATM   33  C   UNL     1      -7.058   6.000  67.769  1.00  0.00    -0.074 A  
HETATM   34  C   UNL     1      -6.664   5.411  68.967  1.00  0.00    -0.053 A  
HETATM   35  C   UNL     1      -5.831   4.294  68.922  1.00  0.00    -0.022 A  
HETATM   36  C   UNL     1      -5.395   3.823  67.691  1.00  0.00    -0.016 A  
HETATM   37  C   UNL     1      -5.864   4.454  66.550  1.00  0.00    -0.026 A  
HETATM   38  N   UNL     1      -6.723   5.500  66.562  1.00  0.00    -0.056 NA 
ENDBRANCH  32  33
ENDBRANCH  24  29
ENDBRANCH  13  23
ENDBRANCH  10  11
ENDBRANCH   3   4
TORSDOF 5
ENDMDL
MODEL      112
REMARK 921   NORMALIZED FREE ENERGY PREDICTED BY IDOCK:    9.19 KCAL/MOL
REMARK 922        TOTAL FREE ENERGY PREDICTED BY IDOCK:   12.40 KCAL/MOL
REMARK 923 INTER-LIGAND FREE ENERGY PREDICTED BY IDOCK:   11.61 KCAL/MOL
REMARK 924 INTRA-LIGAND FREE ENERGY PREDICTED BY IDOCK:    0.79 KCAL/MOL
REMARK 927      BINDING AFFINITY PREDICTED BY RF-SCORE:    0.00 PKD
ROOT
HETATM    1  C   UNL     1      -6.322  18.780  73.685  1.00  0.00     7.770 C  
HETATM    2  C   UNL     1      -6.688  18.887  72.214  1.00  0.00     2.988 C  
HETATM    3  C   UNL     1      -7.002  18.980  70.952  1.00  0.00     1.633 C  
ENDROOT
BRANCH   3   4
HETATM    4  C   UNL     1      -7.335  19.162  69.550  1.00  0.00    -0.036 C  
HETATM    5  O   UNL     1      -6.693  19.989  68.915  1.00  0.00    -0.307 OA 
HETATM    6  N   UNL     1      -8.408  18.468  69.023  1.00  0.00    -0.143 N  
HETATM    7  C   UNL     1      -8.999  18.846  67.754  1.00  0.00    -0.291 C  
HETATM    8  C   UNL     1     -10.487  18.674  68.006  1.00  0.00    -0.395 C  
HETATM    9  C   UNL     1     -10.588  17.527  69.012  1.00  0.00    -0.146 C  
HETATM   10  C   UNL     1      -9.189  17.407  69.649  1.00  0.00     0.762 C  
BRANCH  10  11
HETATM   11  C   UNL     1      -8.600  16.050  69.326  1.00  0.00    -0.224 A  
HETATM   12  N   UNL     1      -9.125  15.128  68.529  1.00  0.00    -0.183 NA 
HETATM   13  C   UNL     1      -8.327  14.000  68.636  1.00  0.00    -0.104 A  
HETATM   14  N   UNL     1      -5.626  12.379  69.437  1.00  0.00    -0.074 NA 
HETATM   15  C   UNL     1      -7.252  14.271  69.467  1.00  0.00    -0.003 A  
HETATM   16  C   UNL     1      -6.069  13.573  69.928  1.00  0.00    -0.127 A  
HETATM   17  N   UNL     1      -7.479  15.547  69.954  1.00  0.00    -0.079 NA 
HETATM   18  H2  UNL     1      -6.169  11.946  68.689  1.00  0.00     0.000 HD 
HETATM   19  C   UNL     1      -6.651  16.079  70.930  1.00  0.00     1.340 A  
HETATM   20  C   UNL     1      -5.621  15.340  71.362  1.00  0.00     0.157 A  
HETATM   21  N   UNL     1      -5.303  14.100  70.857  1.00  0.00    -0.128 NA 
HETATM   22  H1  UNL     1      -4.793  11.888  69.761  1.00  0.00     0.000 HD 
BRANCH  13  23
HETATM   23  C   UNL     1      -8.652  12.759  67.926  1.00  0.00    -0.181 A  
HETATM   24  C   UNL     1      -9.173  10.305  66.592  1.00  0.00    -0.179 A  
HETATM   25  C   UNL     1      -7.996  11.019  66.335  1.00  0.00    -0.161 A  
HETATM   26  C   UNL     1      -9.861  12.068  68.116  1.00  0.00    -0.201 A  
HETATM   27  C   UNL     1      -7.744  12.236  66.995  1.00  0.00    -0.089 A  
HETATM   28  C   UNL     1     -10.111  10.840  67.477  1.00  0.00    -0.218 A  
BRANCH  24  29
HETATM   29  C   UNL     1      -9.367   8.965  65.961  1.00  0.00    -0.242 C  
HETATM   30  H   UNL     1      -8.121   9.506  64.389  1.00  0.00     0.000 HD 
HETATM   31  O   UNL     1     -10.091   8.152  66.521  1.00  0.00    -0.267 OA 
HETATM   32  N   UNL     1      -8.639   8.734  64.808  1.00  0.00    -0.164 N  
BRANCH  32  33
HETATM   33  C   UNL     1      -8.587   7.474  64.197  1.00  0.00     0.407 A  
HETATM   34  C   UNL     1      -8.045   7.283  62.929  1.00  0.00    -0.057 A  
HETATM   35  C   UNL     1      -8.094   6.010  62.364  1.00  0.00    -0.101 A  
HETATM   36  C   UNL     1      -8.709   4.981  63.065  1.00  0.00    -0.094 A  
HETATM   37  C   UNL     1      -9.193   5.258  64.333  1.00  0.00     0.260 A  
HETATM   38  N   UNL     1      -9.102   6.468  64.932  1.00  0.00     0.486 NA 
ENDBRANCH  32  33
ENDBRANCH  24  29
ENDBRANCH  13  23
ENDBRANCH  10  11
ENDBRANCH   3   4
TORSDOF 5
ENDMDL
MODEL      113
REMARK 921   NORMALIZED FREE ENERGY PREDICTED BY IDOCK:    9.42 KCAL/MOL
REMARK 922        TOTAL FREE ENERGY PREDICTED BY IDOCK:   12.69 KCAL/MOL
REMARK 923 INTER-LIGAND FREE ENERGY PREDICTED BY IDOCK:   11.12 KCAL/MOL
REMARK 924 INTRA-LIGAND FREE ENERGY PREDICTED BY IDOCK:    1.58 KCAL/MOL
REMARK 927      BINDING AFFINITY PREDICTED BY RF-SCORE:    0.00 PKD
ROOT
HETATM    1  C   UNL     1      -7.843  18.828  73.977  1.00  0.00     8.351 C  
HETATM    2  C   UNL     1      -7.768  19.352  72.552  1.00  0.00     4.320 C  
HETATM    3  C   UNL     1      -7.703  19.801  71.330  1.00  0.00     2.005 C  
ENDROOT
BRANCH   3   4
HETATM    4  C   UNL     1      -7.639  20.225  69.942  1.00  0.00     0.689 C  
HETATM    5  O   UNL     1      -6.815  21.081  69.646  1.00  0.00     0.634 OA 
HETATM    6  N   UNL     1      -8.558  19.715  69.045  1.00  0.00    -0.227 N  
HETATM    7  C   UNL     1      -8.769  20.332  67.750  1.00  0.00    -0.210 C  
HETATM    8  C   UNL     1     -10.276  20.252  67.575  1.00  0.00    -0.486 C  
HETATM    9  C   UNL     1     -10.692  18.977  68.309  1.00  0.00    -0.102 C  
HETATM   10  C   UNL     1      -9.523  18.641  69.256  1.00  0.00     0.044 C  
BRANCH  10  11
HETATM   11  C   UNL     1      -8.926  17.304  68.869  1.00  0.00    -0.173 A  
HETATM   12  N   UNL     1      -9.502  16.115  68.988  1.00  0.00    -0.236 NA 
HETATM   13  C   UNL     1      -8.549  15.168  68.648  1.00  0.00    -0.172 A  
HETATM   14  N   UNL     1      -5.759  14.155  67.324  1.00  0.00    -0.211 NA 
HETATM   15  C   UNL     1      -7.387  15.806  68.245  1.00  0.00    -0.119 A  
HETATM   16  C   UNL     1      -6.091  15.416  67.728  1.00  0.00    -0.152 A  
HETATM   17  N   UNL     1      -7.616  17.154  68.461  1.00  0.00    -0.234 NA 
HETATM   18  H2  UNL     1      -6.478  13.434  67.392  1.00  0.00     0.000 HD 
HETATM   19  C   UNL     1      -6.593  18.072  68.287  1.00  0.00    -0.201 A  
HETATM   20  C   UNL     1      -5.398  17.624  67.880  1.00  0.00    -0.135 A  
HETATM   21  N   UNL     1      -5.138  16.308  67.575  1.00  0.00    -0.144 NA 
HETATM   22  H1  UNL     1      -4.847  13.881  66.960  1.00  0.00     0.000 HD 
BRANCH  13  23
HETATM   23  C   UNL     1      -8.832  13.731  68.725  1.00  0.00     0.044 A  
HETATM   24  C   UNL     1      -9.462  10.962  68.776  1.00  0.00    -0.196 A  
HETATM   25  C   UNL     1     -10.472  11.924  68.902  1.00  0.00    -0.164 A  
HETATM   26  C   UNL     1      -7.824  12.754  68.676  1.00  0.00    -0.044 A  
HETATM   27  C   UNL     1     -10.154  13.295  68.880  1.00  0.00     0.012 A  
HETATM   28  C   UNL     1      -8.134  11.381  68.675  1.00  0.00    -0.141 A  
BRANCH  24  29
HETATM   29  C   UNL     1      -9.834   9.518  68.695  1.00  0.00    -0.162 C  
HETATM   30  H   UNL     1      -8.040   8.986  69.596  1.00  0.00     0.000 HD 
HETATM   31  O   UNL     1     -10.909   9.216  68.193  1.00  0.00    -0.172 OA 
HETATM   32  N   UNL     1      -8.939   8.633  69.270  1.00  0.00    -0.144 N  
BRANCH  32  33
HETATM   33  C   UNL     1      -9.227   7.270  69.420  1.00  0.00    -0.148 A  
HETATM   34  C   UNL     1     -10.052   6.790  70.432  1.00  0.00    -0.200 A  
HETATM   35  C   UNL     1     -10.231   5.412  70.553  1.00  0.00    -0.326 A  
HETATM   36  C   UNL     1      -9.559   4.563  69.686  1.00  0.00    -0.270 A  
HETATM   37  C   UNL     1      -8.783   5.133  68.689  1.00  0.00    -0.093 A  
HETATM   38  N   UNL     1      -8.641   6.466  68.509  1.00  0.00    -0.122 NA 
ENDBRANCH  32  33
ENDBRANCH  24  29
ENDBRANCH  13  23
ENDBRANCH  10  11
ENDBRANCH   3   4
TORSDOF 5
ENDMDL
MODEL      114
REMARK 921   NORMALIZED FREE ENERGY PREDICTED BY IDOCK:    9.46 KCAL/MOL
REMARK 922        TOTAL FREE ENERGY PREDICTED BY IDOCK:   12.75 KCAL/MOL
REMARK 923 INTER-LIGAND FREE ENERGY PREDICTED BY IDOCK:   11.62 KCAL/MOL
REMARK 924 INTRA-LIGAND FREE ENERGY PREDICTED BY IDOCK:    1.13 KCAL/MOL
REMARK 927      BINDING AFFINITY PREDICTED BY RF-SCORE:    0.00 PKD
ROOT
HETATM    1  C   UNL     1     -11.199  16.668  64.931  1.00  0.00    -0.065 C  
HETATM    2  C   UNL     1     -11.306  16.605  66.445  1.00  0.00     0.656 C  
HETATM    3  C   UNL     1     -11.398  16.550  67.745  1.00  0.00     0.005 C  
ENDROOT
BRANCH   3   4
HETATM    4  C   UNL     1     -11.481  16.410  69.188  1.00  0.00    -0.188 C  
HETATM    5  O   UNL     1     -12.465  16.875  69.749  1.00  0.00     1.505 OA 
HETATM    6  N   UNL     1     -10.417  15.846  69.866  1.00  0.00    -0.308 N  
HETATM    7  C   UNL     1     -10.283  15.980  71.304  1.00  0.00     1.641 C  
HETATM    8  C   UNL     1      -8.793  16.207  71.488  1.00  0.00     6.458 C  
HETATM    9  C   UNL     1      -8.131  15.427  70.352  1.00  0.00     1.074 C  
HETATM   10  C   UNL     1      -9.240  15.188  69.309  1.00  0.00    -0.205 C  
BRANCH  10  11
HETATM   11  C   UNL     1      -9.482  13.701  69.157  1.00  0.00     0.412 A  
HETATM   12  N   UNL     1      -8.577  12.779  68.854  1.00  0.00     0.209 NA 
HETATM   13  C   UNL     1      -9.260  11.585  68.682  1.00  0.00    -0.132 A  
HETATM   14  N   UNL     1     -11.813   9.595  68.970  1.00  0.00    -0.099 NA 
HETATM   15  C   UNL     1     -10.604  11.777  68.957  1.00  0.00    -0.136 A  
HETATM   16  C   UNL     1     -11.798  10.958  69.022  1.00  0.00    -0.299 A  
HETATM   17  N   UNL     1     -10.740  13.136  69.183  1.00  0.00    -0.103 NA 
HETATM   18  H2  UNL     1     -10.917   9.116  68.879  1.00  0.00     0.000 HD 
HETATM   19  C   UNL     1     -11.998  13.692  69.356  1.00  0.00    -0.342 A  
HETATM   20  C   UNL     1     -13.062  12.879  69.327  1.00  0.00     1.914 A  
HETATM   21  N   UNL     1     -12.979  11.513  69.184  1.00  0.00     0.631 NA 
HETATM   22  H1  UNL     1     -12.654   9.019  69.016  1.00  0.00     0.000 HD 
BRANCH  13  23
HETATM   23  C   UNL     1      -8.568  10.356  68.280  1.00  0.00    -0.128 A  
HETATM   24  C   UNL     1      -7.283   7.915  67.601  1.00  0.00    -0.088 A  
HETATM   25  C   UNL     1      -7.116   8.477  68.873  1.00  0.00    -0.062 A  
HETATM   26  C   UNL     1      -8.664   9.817  66.986  1.00  0.00    -0.141 A  
HETATM   27  C   UNL     1      -7.752   9.689  69.203  1.00  0.00    -0.087 A  
HETATM   28  C   UNL     1      -8.051   8.595  66.654  1.00  0.00    -0.100 A  
BRANCH  24  29
HETATM   29  C   UNL     1      -6.687   6.577  67.309  1.00  0.00    -0.060 C  
HETATM   30  H   UNL     1      -8.222   5.646  68.356  1.00  0.00     0.000 HD 
HETATM   31  O   UNL     1      -5.654   6.524  66.655  1.00  0.00    -0.013 OA 
HETATM   32  N   UNL     1      -7.411   5.487  67.758  1.00  0.00    -0.075 N  
BRANCH  32  33
HETATM   33  C   UNL     1      -7.069   4.171  67.419  1.00  0.00    -0.067 A  
HETATM   34  C   UNL     1      -6.747   3.797  66.117  1.00  0.00    -0.049 A  
HETATM   35  C   UNL     1      -6.485   2.454  65.851  1.00  0.00    -0.028 A  
HETATM   36  C   UNL     1      -6.585   1.527  66.881  1.00  0.00    -0.027 A  
HETATM   37  C   UNL     1      -6.881   1.997  68.151  1.00  0.00    -0.036 A  
HETATM   38  N   UNL     1      -7.077   3.302  68.449  1.00  0.00    -0.049 NA 
ENDBRANCH  32  33
ENDBRANCH  24  29
ENDBRANCH  13  23
ENDBRANCH  10  11
ENDBRANCH   3   4
TORSDOF 5
ENDMDL
MODEL      115
REMARK 921   NORMALIZED FREE ENERGY PREDICTED BY IDOCK:   12.41 KCAL/MOL
REMARK 922        TOTAL FREE ENERGY PREDICTED BY IDOCK:   16.57 KCAL/MOL
REMARK 923 INTER-LIGAND FREE ENERGY PREDICTED BY IDOCK:   15.85 KCAL/MOL
REMARK 924 INTRA-LIGAND FREE ENERGY PREDICTED BY IDOCK:    0.72 KCAL/MOL
REMARK 927      BINDING AFFINITY PREDICTED BY RF-SCORE:    0.00 PKD
ROOT
HETATM    1  C   UNL     1     -11.962   3.675  68.923  1.00  0.00    15.243 C  
HETATM    2  C   UNL     1     -10.735   3.228  68.147  1.00  0.00     3.690 C  
HETATM    3  C   UNL     1      -9.681   2.845  67.480  1.00  0.00     0.156 C  
ENDROOT
BRANCH   3   4
HETATM    4  C   UNL     1      -8.539   2.455  66.673  1.00  0.00    -0.110 C  
HETATM    5  O   UNL     1      -8.721   1.619  65.796  1.00  0.00    -0.106 OA 
HETATM    6  N   UNL     1      -7.294   2.970  66.982  1.00  0.00    -0.061 N  
HETATM    7  C   UNL     1      -6.081   2.379  66.452  1.00  0.00    -0.024 C  
HETATM    8  C   UNL     1      -5.128   2.439  67.632  1.00  0.00    -0.008 C  
HETATM    9  C   UNL     1      -5.539   3.689  68.410  1.00  0.00    -0.017 C  
HETATM   10  C   UNL     1      -6.968   4.022  67.938  1.00  0.00    -0.055 C  
BRANCH  10  11
HETATM   11  C   UNL     1      -6.975   5.378  67.262  1.00  0.00    -0.065 A  
HETATM   12  N   UNL     1      -6.816   6.556  67.850  1.00  0.00    -0.071 NA 
HETATM   13  C   UNL     1      -7.034   7.524  66.882  1.00  0.00    -0.079 A  
HETATM   14  N   UNL     1      -7.343   8.609  63.834  1.00  0.00    -0.097 NA 
HETATM   15  C   UNL     1      -7.262   6.911  65.660  1.00  0.00    -0.073 A  
HETATM   16  C   UNL     1      -7.487   7.331  64.292  1.00  0.00    -0.101 A  
HETATM   17  N   UNL     1      -7.295   5.554  65.932  1.00  0.00    -0.076 NA 
HETATM   18  H2  UNL     1      -7.055   9.321  64.505  1.00  0.00     0.000 HD 
HETATM   19  C   UNL     1      -7.641   4.652  64.939  1.00  0.00    -0.077 A  
HETATM   20  C   UNL     1      -7.912   5.125  63.715  1.00  0.00    -0.102 A  
HETATM   21  N   UNL     1      -7.818   6.453  63.371  1.00  0.00    -0.109 NA 
HETATM   22  H1  UNL     1      -7.502   8.904  62.871  1.00  0.00     0.000 HD 
BRANCH  13  23
HETATM   23  C   UNL     1      -6.995   8.954  67.202  1.00  0.00    -0.075 A  
HETATM   24  C   UNL     1      -6.976  11.699  67.934  1.00  0.00    -0.080 A  
HETATM   25  C   UNL     1      -8.179  10.983  67.887  1.00  0.00    -0.119 A  
HETATM   26  C   UNL     1      -5.808   9.705  67.181  1.00  0.00    -0.051 A  
HETATM   27  C   UNL     1      -8.184   9.624  67.520  1.00  0.00    -0.114 A  
HETATM   28  C   UNL     1      -5.791  11.058  67.568  1.00  0.00    -0.046 A  
BRANCH  24  29
HETATM   29  C   UNL     1      -6.983  13.108  68.429  1.00  0.00    -0.104 C  
HETATM   30  H   UNL     1      -7.498  13.789  66.535  1.00  0.00     0.000 HD 
HETATM   31  O   UNL     1      -6.717  13.319  69.605  1.00  0.00    -0.051 OA 
HETATM   32  N   UNL     1      -7.367  14.066  67.508  1.00  0.00    -0.179 N  
BRANCH  32  33
HETATM   33  C   UNL     1      -7.583  15.404  67.866  1.00  0.00    -0.136 A  
HETATM   34  C   UNL     1      -8.856  15.921  68.082  1.00  0.00    -0.176 A  
HETATM   35  C   UNL     1      -8.989  17.279  68.368  1.00  0.00    -0.269 A  
HETATM   36  C   UNL     1      -7.855  18.079  68.395  1.00  0.00    -0.300 A  
HETATM   37  C   UNL     1      -6.625  17.470  68.197  1.00  0.00    -0.186 A  
HETATM   38  N   UNL     1      -6.462  16.145  67.981  1.00  0.00    -0.123 NA 
ENDBRANCH  32  33
ENDBRANCH  24  29
ENDBRANCH  13  23
ENDBRANCH  10  11
ENDBRANCH   3   4
TORSDOF 5
ENDMDL
MODEL      116
REMARK 921   NORMALIZED FREE ENERGY PREDICTED BY IDOCK:   12.57 KCAL/MOL
REMARK 922        TOTAL FREE ENERGY PREDICTED BY IDOCK:   16.76 KCAL/MOL
REMARK 923 INTER-LIGAND FREE ENERGY PREDICTED BY IDOCK:   16.39 KCAL/MOL
REMARK 924 INTRA-LIGAND FREE ENERGY PREDICTED BY IDOCK:    0.37 KCAL/MOL
REMARK 927      BINDING AFFINITY PREDICTED BY RF-SCORE:    0.00 PKD
ROOT
HETATM    1  C   UNL     1     -11.247   9.297  63.310  1.00  0.00     9.369 C  
HETATM    2  C   UNL     1     -10.454   8.339  64.183  1.00  0.00     7.710 C  
HETATM    3  C   UNL     1      -9.773   7.516  64.932  1.00  0.00     2.244 C  
ENDROOT
BRANCH   3   4
HETATM    4  C   UNL     1      -8.947   6.634  65.736  1.00  0.00    -0.026 C  
HETATM    5  O   UNL     1      -8.189   5.872  65.148  1.00  0.00    -0.131 OA 
HETATM    6  N   UNL     1      -9.114   6.628  67.108  1.00  0.00    -0.126 N  
HETATM    7  C   UNL     1      -8.581   5.557  67.928  1.00  0.00    -0.104 C  
HETATM    8  C   UNL     1      -9.684   5.326  68.946  1.00  0.00    -0.207 C  
HETATM    9  C   UNL     1     -10.332   6.696  69.145  1.00  0.00    -0.220 C  
HETATM   10  C   UNL     1      -9.916   7.535  67.921  1.00  0.00    -0.165 C  
BRANCH  10  11
HETATM   11  C   UNL     1      -9.086   8.718  68.377  1.00  0.00    -0.141 A  
HETATM   12  N   UNL     1      -9.311   9.996  68.102  1.00  0.00    -0.131 NA 
HETATM   13  C   UNL     1      -8.232  10.712  68.598  1.00  0.00    -0.135 A  
HETATM   14  N   UNL     1      -5.581  11.132  70.429  1.00  0.00    -0.110 NA 
HETATM   15  C   UNL     1      -7.367   9.849  69.251  1.00  0.00    -0.084 A  
HETATM   16  C   UNL     1      -6.137   9.959  70.009  1.00  0.00    -0.053 A  
HETATM   17  N   UNL     1      -7.882   8.583  69.038  1.00  0.00    -0.102 NA 
HETATM   18  H2  UNL     1      -6.068  11.997  70.192  1.00  0.00     0.000 HD 
HETATM   19  C   UNL     1      -7.176   7.464  69.449  1.00  0.00    -0.083 A  
HETATM   20  C   UNL     1      -6.006   7.644  70.076  1.00  0.00    -0.023 A  
HETATM   21  N   UNL     1      -5.485   8.880  70.383  1.00  0.00    -0.026 NA 
HETATM   22  H1  UNL     1      -4.715  11.209  70.963  1.00  0.00     0.000 HD 
BRANCH  13  23
HETATM   23  C   UNL     1      -8.125  12.163  68.417  1.00  0.00    -0.149 A  
HETATM   24  C   UNL     1      -7.992  14.964  67.963  1.00  0.00    -0.132 A  
HETATM   25  C   UNL     1      -7.602  14.062  66.965  1.00  0.00     0.212 A  
HETATM   26  C   UNL     1      -8.441  13.081  69.432  1.00  0.00     1.119 A  
HETATM   27  C   UNL     1      -7.666  12.675  67.197  1.00  0.00    -0.094 A  
HETATM   28  C   UNL     1      -8.402  14.469  69.202  1.00  0.00    -0.001 A  
BRANCH  24  29
HETATM   29  C   UNL     1      -8.017  16.426  67.657  1.00  0.00    -0.149 C  
HETATM   30  H   UNL     1     -10.095  16.415  67.692  1.00  0.00     0.000 HD 
HETATM   31  O   UNL     1      -6.954  17.014  67.513  1.00  0.00    -0.136 OA 
HETATM   32  N   UNL     1      -9.270  17.012  67.630  1.00  0.00    -0.232 N  
BRANCH  32  33
HETATM   33  C   UNL     1      -9.445  18.398  67.522  1.00  0.00    -0.270 A  
HETATM   34  C   UNL     1      -9.803  19.190  68.609  1.00  0.00    -0.485 A  
HETATM   35  C   UNL     1     -10.024  20.551  68.402  1.00  0.00    -0.080 A  
HETATM   36  C   UNL     1      -9.914  21.068  67.118  1.00  0.00     0.055 A  
HETATM   37  C   UNL     1      -9.523  20.209  66.104  1.00  0.00    -0.297 A  
HETATM   38  N   UNL     1      -9.240  18.898  66.287  1.00  0.00    -0.422 NA 
ENDBRANCH  32  33
ENDBRANCH  24  29
ENDBRANCH  13  23
ENDBRANCH  10  11
ENDBRANCH   3   4
TORSDOF 5
ENDMDL
MODEL      117
REMARK 921   NORMALIZED FREE ENERGY PREDICTED BY IDOCK:   14.28 KCAL/MOL
REMARK 922        TOTAL FREE ENERGY PREDICTED BY IDOCK:   18.97 KCAL/MOL
REMARK 923 INTER-LIGAND FREE ENERGY PREDICTED BY IDOCK:   19.90 KCAL/MOL
REMARK 924 INTRA-LIGAND FREE ENERGY PREDICTED BY IDOCK:   -0.92 KCAL/MOL
REMARK 927      BINDING AFFINITY PREDICTED BY RF-SCORE:    0.00 PKD
ROOT
HETATM    1  C   UNL     1      -5.605  21.374  68.176  1.00  0.00    -0.258 C  
HETATM    2  C   UNL     1      -6.391  20.835  66.992  1.00  0.00    -0.335 C  
HETATM    3  C   UNL     1      -7.066  20.373  65.977  1.00  0.00    -0.255 C  
ENDROOT
BRANCH   3   4
HETATM    4  C   UNL     1      -7.863  19.925  64.848  1.00  0.00     1.131 C  
HETATM    5  O   UNL     1      -7.330  19.912  63.745  1.00  0.00     1.260 OA 
HETATM    6  N   UNL     1      -9.196  19.623  65.050  1.00  0.00     1.646 N  
HETATM    7  C   UNL     1     -10.118  19.501  63.937  1.00  0.00     9.418 C  
HETATM    8  C   UNL     1     -11.377  20.169  64.462  1.00  0.00     2.475 C  
HETATM    9  C   UNL     1     -11.369  19.901  65.967  1.00  0.00     0.515 C  
HETATM   10  C   UNL     1      -9.916  19.523  66.315  1.00  0.00    -0.450 C  
BRANCH  10  11
HETATM   11  C   UNL     1      -9.874  18.103  66.841  1.00  0.00    -0.330 A  
HETATM   12  N   UNL     1      -9.248  17.072  66.289  1.00  0.00    -0.370 NA 
HETATM   13  C   UNL     1      -9.593  15.949  67.025  1.00  0.00    -0.223 A  
HETATM   14  N   UNL     1     -10.773  14.388  69.620  1.00  0.00    -0.439 NA 
HETATM   15  C   UNL     1     -10.392  16.324  68.093  1.00  0.00    -0.277 A  
HETATM   16  C   UNL     1     -11.015  15.672  69.227  1.00  0.00    -0.267 A  
HETATM   17  N   UNL     1     -10.622  17.677  67.920  1.00  0.00    -0.395 NA 
HETATM   18  H2  UNL     1     -10.103  13.846  69.073  1.00  0.00     0.000 HD 
HETATM   19  C   UNL     1     -11.508  18.346  68.750  1.00  0.00     2.275 A  
HETATM   20  C   UNL     1     -12.105  17.657  69.731  1.00  0.00     5.502 A  
HETATM   21  N   UNL     1     -11.854  16.331  69.996  1.00  0.00    -0.092 NA 
HETATM   22  H1  UNL     1     -11.212  13.930  70.418  1.00  0.00     0.000 HD 
BRANCH  13  23
HETATM   23  C   UNL     1      -9.118  14.612  66.654  1.00  0.00    -0.285 A  
HETATM   24  C   UNL     1      -8.192  11.993  66.058  1.00  0.00     0.426 A  
HETATM   25  C   UNL     1      -7.439  12.846  66.875  1.00  0.00     0.249 A  
HETATM   26  C   UNL     1      -9.824  13.772  65.776  1.00  0.00    -0.242 A  
HETATM   27  C   UNL     1      -7.900  14.144  67.164  1.00  0.00    -0.063 A  
HETATM   28  C   UNL     1      -9.381  12.465  65.500  1.00  0.00     0.106 A  
BRANCH  24  29
HETATM   29  C   UNL     1      -7.735  10.586  65.854  1.00  0.00    -0.148 C  
HETATM   30  H   UNL     1      -7.718  10.276  67.908  1.00  0.00     0.000 HD 
HETATM   31  O   UNL     1      -7.559  10.186  64.711  1.00  0.00    -0.141 OA 
HETATM   32  N   UNL     1      -7.616   9.821  67.001  1.00  0.00    -0.092 N  
BRANCH  32  33
HETATM   33  C   UNL     1      -7.360   8.444  66.958  1.00  0.00    -0.084 A  
HETATM   34  C   UNL     1      -8.374   7.503  66.811  1.00  0.00    -0.126 A  
HETATM   35  C   UNL     1      -8.042   6.149  66.847  1.00  0.00    -0.109 A  
HETATM   36  C   UNL     1      -6.720   5.781  67.061  1.00  0.00    -0.062 A  
HETATM   37  C   UNL     1      -5.774   6.789  67.166  1.00  0.00    -0.014 A  
HETATM   38  N   UNL     1      -6.059   8.108  67.072  1.00  0.00    -0.053 NA 
ENDBRANCH  32  33
ENDBRANCH  24  29
ENDBRANCH  13  23
ENDBRANCH  10  11
ENDBRANCH   3   4
TORSDOF 5
ENDMDL
MODEL      118
REMARK 921   NORMALIZED FREE ENERGY PREDICTED BY IDOCK:   14.69 KCAL/MOL
REMARK 922        TOTAL FREE ENERGY PREDICTED BY IDOCK:   19.51 KCAL/MOL
REMARK 923 INTER-LIGAND FREE ENERGY PREDICTED BY IDOCK:   19.85 KCAL/MOL
REMARK 924 INTRA-LIGAND FREE ENERGY PREDICTED BY IDOCK:   -0.34 KCAL/MOL
REMARK 927      BINDING AFFINITY PREDICTED BY RF-SCORE:    0.00 PKD
ROOT
HETATM    1  C   UNL     1      -7.086  18.944  70.891  1.00  0.00     2.109 C  
HETATM    2  C   UNL     1      -7.165  18.540  69.428  1.00  0.00    -0.036 C  
HETATM    3  C   UNL     1      -7.233  18.194  68.172  1.00  0.00    -0.247 C  
ENDROOT
BRANCH   3   4
HETATM    4  C   UNL     1      -7.229  17.795  66.776  1.00  0.00    -0.207 C  
HETATM    5  O   UNL     1      -6.151  17.775  66.193  1.00  0.00    -0.188 OA 
HETATM    6  N   UNL     1      -8.434  17.544  66.148  1.00  0.00    -0.190 N  
HETATM    7  C   UNL     1      -8.532  17.476  64.703  1.00  0.00     6.100 C  
HETATM    8  C   UNL     1      -9.843  18.187  64.416  1.00  0.00     6.346 C  
HETATM    9  C   UNL     1     -10.724  17.898  65.631  1.00  0.00    -0.055 C  
HETATM   10  C   UNL     1      -9.761  17.456  66.749  1.00  0.00    -0.290 C  
BRANCH  10  11
HETATM   11  C   UNL     1     -10.070  16.028  67.150  1.00  0.00    -0.270 A  
HETATM   12  N   UNL     1      -9.302  14.966  66.951  1.00  0.00    -0.229 NA 
HETATM   13  C   UNL     1     -10.035  13.857  67.345  1.00  0.00    -0.240 A  
HETATM   14  N   UNL     1     -12.468  12.340  68.874  1.00  0.00     0.174 NA 
HETATM   15  C   UNL     1     -11.253  14.269  67.862  1.00  0.00    -0.285 A  
HETATM   16  C   UNL     1     -12.406  13.644  68.477  1.00  0.00     0.057 A  
HETATM   17  N   UNL     1     -11.291  15.638  67.663  1.00  0.00    -0.280 NA 
HETATM   18  H2  UNL     1     -11.641  11.762  68.726  1.00  0.00     0.000 HD 
HETATM   19  C   UNL     1     -12.443  16.353  67.948  1.00  0.00     1.966 A  
HETATM   20  C   UNL     1     -13.497  15.691  68.443  1.00  0.00     4.393 A  
HETATM   21  N   UNL     1     -13.488  14.346  68.733  1.00  0.00     3.095 NA 
HETATM   22  H1  UNL     1     -13.281  11.900  69.306  1.00  0.00     0.000 HD 
BRANCH  13  23
HETATM   23  C   UNL     1      -9.505  12.497  67.207  1.00  0.00    -0.193 A  
HETATM   24  C   UNL     1      -8.447   9.864  67.062  1.00  0.00    -0.121 A  
HETATM   25  C   UNL     1      -7.649  10.929  67.498  1.00  0.00    -0.101 A  
HETATM   26  C   UNL     1     -10.269  11.432  66.700  1.00  0.00    -0.258 A  
HETATM   27  C   UNL     1      -8.177  12.232  67.564  1.00  0.00    -0.170 A  
HETATM   28  C   UNL     1      -9.756  10.122  66.652  1.00  0.00    -0.242 A  
BRANCH  24  29
HETATM   29  C   UNL     1      -7.899   8.476  67.102  1.00  0.00    -0.097 C  
HETATM   30  H   UNL     1      -9.341   7.848  65.745  1.00  0.00     0.000 HD 
HETATM   31  O   UNL     1      -6.936   8.245  67.822  1.00  0.00    -0.075 OA 
HETATM   32  N   UNL     1      -8.499   7.568  66.249  1.00  0.00    -0.132 N  
BRANCH  32  33
HETATM   33  C   UNL     1      -7.991   6.277  66.052  1.00  0.00    -0.114 A  
HETATM   34  C   UNL     1      -8.806   5.149  66.048  1.00  0.00    -0.137 A  
HETATM   35  C   UNL     1      -8.212   3.894  65.915  1.00  0.00    -0.105 A  
HETATM   36  C   UNL     1      -6.830   3.805  65.823  1.00  0.00    -0.057 A  
HETATM   37  C   UNL     1      -6.103   4.985  65.804  1.00  0.00    -0.030 A  
HETATM   38  N   UNL     1      -6.657   6.217  65.868  1.00  0.00    -0.046 NA 
ENDBRANCH  32  33
ENDBRANCH  24  29
ENDBRANCH  13  23
ENDBRANCH  10  11
ENDBRANCH   3   4
TORSDOF 5
ENDMDL
MODEL      119
REMARK 921   NORMALIZED FREE ENERGY PREDICTED BY IDOCK:   19.74 KCAL/MOL
REMARK 922        TOTAL FREE ENERGY PREDICTED BY IDOCK:   26.04 KCAL/MOL
REMARK 923 INTER-LIGAND FREE ENERGY PREDICTED BY IDOCK:   26.95 KCAL/MOL
REMARK 924 INTRA-LIGAND FREE ENERGY PREDICTED BY IDOCK:   -0.91 KCAL/MOL
REMARK 927      BINDING AFFINITY PREDICTED BY RF-SCORE:    0.00 PKD
ROOT
HETATM    1  C   UNL     1      -5.127  21.190  68.619  1.00  0.00    -0.269 C  
HETATM    2  C   UNL     1      -5.684  20.737  67.280  1.00  0.00    -0.260 C  
HETATM    3  C   UNL     1      -6.162  20.348  66.130  1.00  0.00    -0.237 C  
ENDROOT
BRANCH   3   4
HETATM    4  C   UNL     1      -6.731  19.986  64.844  1.00  0.00    -0.199 C  
HETATM    5  O   UNL     1      -5.957  19.761  63.922  1.00  0.00    -0.269 OA 
HETATM    6  N   UNL     1      -8.105  19.998  64.695  1.00  0.00     1.582 N  
HETATM    7  C   UNL     1      -8.721  19.981  63.382  1.00  0.00     9.722 C  
HETATM    8  C   UNL     1      -9.881  20.949  63.537  1.00  0.00     6.411 C  
HETATM    9  C   UNL     1     -10.313  20.818  64.998  1.00  0.00     1.351 C  
HETATM   10  C   UNL     1      -9.122  20.167  65.727  1.00  0.00     0.071 C  
BRANCH  10  11
HETATM   11  C   UNL     1      -9.544  18.823  66.286  1.00  0.00    -0.297 A  
HETATM   12  N   UNL     1      -9.045  17.638  65.958  1.00  0.00    -0.514 NA 
HETATM   13  C   UNL     1      -9.817  16.683  66.602  1.00  0.00    -0.274 A  
HETATM   14  N   UNL     1     -11.960  15.645  68.813  1.00  0.00    -0.550 NA 
HETATM   15  C   UNL     1     -10.762  17.312  67.395  1.00  0.00    -0.247 A  
HETATM   16  C   UNL     1     -11.793  16.911  68.332  1.00  0.00     0.781 A  
HETATM   17  N   UNL     1     -10.626  18.663  67.127  1.00  0.00    -0.421 NA 
HETATM   18  H2  UNL     1     -11.311  14.927  68.489  1.00  0.00     0.000 HD 
HETATM   19  C   UNL     1     -11.522  19.575  67.661  1.00  0.00     0.755 A  
HETATM   20  C   UNL     1     -12.496  19.118  68.458  1.00  0.00     6.929 A  
HETATM   21  N   UNL     1     -12.632  17.798  68.820  1.00  0.00     4.804 NA 
HETATM   22  H1  UNL     1     -12.685  15.363  69.472  1.00  0.00     0.000 HD 
BRANCH  13  23
HETATM   23  C   UNL     1      -9.578  15.249  66.415  1.00  0.00    -0.317 A  
HETATM   24  C   UNL     1      -9.072  12.495  65.934  1.00  0.00     0.139 A  
HETATM   25  C   UNL     1      -9.914  13.223  65.084  1.00  0.00    -0.174 A  
HETATM   26  C   UNL     1      -8.797  14.486  67.299  1.00  0.00    -0.221 A  
HETATM   27  C   UNL     1     -10.165  14.586  65.329  1.00  0.00    -0.431 A  
HETATM   28  C   UNL     1      -8.523  13.128  67.050  1.00  0.00    -0.139 A  
BRANCH  24  29
HETATM   29  C   UNL     1      -8.737  11.080  65.594  1.00  0.00    -0.157 C  
HETATM   30  H   UNL     1      -7.992  11.682  63.750  1.00  0.00     0.000 HD 
HETATM   31  O   UNL     1      -8.991  10.203  66.409  1.00  0.00    -0.142 OA 
HETATM   32  N   UNL     1      -8.090  10.890  64.385  1.00  0.00     0.164 N  
BRANCH  32  33
HETATM   33  C   UNL     1      -7.565   9.648  64.005  1.00  0.00    -0.128 A  
HETATM   34  C   UNL     1      -6.301   9.222  64.400  1.00  0.00    -0.077 A  
HETATM   35  C   UNL     1      -5.825   8.001  63.921  1.00  0.00    -0.057 A  
HETATM   36  C   UNL     1      -6.609   7.267  63.042  1.00  0.00    -0.053 A  
HETATM   37  C   UNL     1      -7.867   7.757  62.729  1.00  0.00    -0.135 A  
HETATM   38  N   UNL     1      -8.379   8.905  63.228  1.00  0.00    -0.191 NA 
ENDBRANCH  32  33
ENDBRANCH  24  29
ENDBRANCH  13  23
ENDBRANCH  10  11
ENDBRANCH   3   4
TORSDOF 5
ENDMDL
MODEL      120
REMARK 921   NORMALIZED FREE ENERGY PREDICTED BY IDOCK:   19.88 KCAL/MOL
REMARK 922        TOTAL FREE ENERGY PREDICTED BY IDOCK:   26.21 KCAL/MOL
REMARK 923 INTER-LIGAND FREE ENERGY PREDICTED BY IDOCK:   26.60 KCAL/MOL
REMARK 924 INTRA-LIGAND FREE ENERGY PREDICTED BY IDOCK:   -0.38 KCAL/MOL
REMARK 927      BINDING AFFINITY PREDICTED BY RF-SCORE:    0.00 PKD
ROOT
HETATM    1  C   UNL     1      -6.902   6.788  72.488  1.00  0.00    -0.063 C  
HETATM    2  C   UNL     1      -8.264   7.122  71.904  1.00  0.00    -0.104 C  
HETATM    3  C   UNL     1      -9.434   7.409  71.403  1.00  0.00    -0.160 C  
ENDROOT
BRANCH   3   4
HETATM    4  C   UNL     1     -10.712   7.694  70.775  1.00  0.00    -0.226 C  
HETATM    5  O   UNL     1     -11.725   7.509  71.438  1.00  0.00    -0.267 OA 
HETATM    6  N   UNL     1     -10.735   8.070  69.446  1.00  0.00    -0.201 N  
HETATM    7  C   UNL     1     -11.962   8.040  68.675  1.00  0.00     2.553 C  
HETATM    8  C   UNL     1     -11.506   7.510  67.327  1.00  0.00     0.956 C  
HETATM    9  C   UNL     1     -10.074   8.020  67.166  1.00  0.00    -0.334 C  
HETATM   10  C   UNL     1      -9.605   8.400  68.584  1.00  0.00    -0.149 C  
BRANCH  10  11
HETATM   11  C   UNL     1      -9.308   9.884  68.638  1.00  0.00    -0.149 A  
HETATM   12  N   UNL     1      -9.848  10.828  67.879  1.00  0.00    -0.164 NA 
HETATM   13  C   UNL     1      -9.187  12.010  68.172  1.00  0.00    -0.195 A  
HETATM   14  N   UNL     1      -7.285  13.944  69.962  1.00  0.00    -0.217 NA 
HETATM   15  C   UNL     1      -8.269  11.787  69.186  1.00  0.00     0.292 A  
HETATM   16  C   UNL     1      -7.340  12.581  69.964  1.00  0.00     1.412 A  
HETATM   17  N   UNL     1      -8.305  10.423  69.418  1.00  0.00    -0.161 NA 
HETATM   18  H2  UNL     1      -7.948  14.442  69.367  1.00  0.00     0.000 HD 
HETATM   19  C   UNL     1      -7.400   9.840  70.290  1.00  0.00    -0.158 A  
HETATM   20  C   UNL     1      -6.518  10.631  70.915  1.00  0.00     0.315 A  
HETATM   21  N   UNL     1      -6.490  12.000  70.782  1.00  0.00     0.248 NA 
HETATM   22  H1  UNL     1      -6.631  14.502  70.510  1.00  0.00     0.000 HD 
BRANCH  13  23
HETATM   23  C   UNL     1      -9.495  13.258  67.466  1.00  0.00    -0.220 A  
HETATM   24  C   UNL     1     -10.190  15.616  66.042  1.00  0.00    -0.354 A  
HETATM   25  C   UNL     1      -9.909  14.427  65.356  1.00  0.00    -0.265 A  
HETATM   26  C   UNL     1      -9.706  14.477  68.133  1.00  0.00    -0.219 A  
HETATM   27  C   UNL     1      -9.561  13.263  66.066  1.00  0.00    -0.174 A  
HETATM   28  C   UNL     1     -10.076  15.640  67.432  1.00  0.00    -0.251 A  
BRANCH  24  29
HETATM   29  C   UNL     1     -10.660  16.808  65.274  1.00  0.00    -0.168 C  
HETATM   30  H   UNL     1      -9.412  18.039  66.388  1.00  0.00     0.000 HD 
HETATM   31  O   UNL     1     -11.496  16.647  64.394  1.00  0.00    -0.959 OA 
HETATM   32  N   UNL     1     -10.044  18.006  65.588  1.00  0.00     0.007 N  
BRANCH  32  33
HETATM   33  C   UNL     1     -10.257  19.174  64.844  1.00  0.00     2.284 A  
HETATM   34  C   UNL     1     -11.527  19.701  64.634  1.00  0.00     2.912 A  
HETATM   35  C   UNL     1     -11.659  20.829  63.824  1.00  0.00     4.994 A  
HETATM   36  C   UNL     1     -10.528  21.371  63.228  1.00  0.00     5.571 A  
HETATM   37  C   UNL     1      -9.301  20.796  63.521  1.00  0.00     6.545 A  
HETATM   38  N   UNL     1      -9.137  19.742  64.352  1.00  0.00     3.666 NA 
ENDBRANCH  32  33
ENDBRANCH  24  29
ENDBRANCH  13  23
ENDBRANCH  10  11
ENDBRANCH   3   4
TORSDOF 5
ENDMDL
MODEL      121
REMARK 921   NORMALIZED FREE ENERGY PREDICTED BY IDOCK:   25.52 KCAL/MOL
REMARK 922        TOTAL FREE ENERGY PREDICTED BY IDOCK:   33.50 KCAL/MOL
REMARK 923 INTER-LIGAND FREE ENERGY PREDICTED BY IDOCK:   33.16 KCAL/MOL
REMARK 924 INTRA-LIGAND FREE ENERGY PREDICTED BY IDOCK:    0.34 KCAL/MOL
REMARK 927      BINDING AFFINITY PREDICTED BY RF-SCORE:    0.00 PKD
ROOT
HETATM    1  C   UNL     1      -5.779  18.871  69.356  1.00  0.00    -0.237 C  
HETATM    2  C   UNL     1      -7.032  18.167  68.862  1.00  0.00    -0.274 C  
HETATM    3  C   UNL     1      -8.108  17.563  68.438  1.00  0.00    -0.266 C  
ENDROOT
BRANCH   3   4
HETATM    4  C   UNL     1      -9.290  16.921  67.892  1.00  0.00    -0.238 C  
HETATM    5  O   UNL     1      -9.568  17.141  66.720  1.00  0.00    -0.250 OA 
HETATM    6  N   UNL     1     -10.091  16.170  68.732  1.00  0.00    -0.227 N  
HETATM    7  C   UNL     1     -11.437  15.789  68.350  1.00  0.00    -0.365 C  
HETATM    8  C   UNL     1     -12.219  15.960  69.640  1.00  0.00    -0.133 C  
HETATM    9  C   UNL     1     -11.220  15.642  70.753  1.00  0.00    -0.396 C  
HETATM   10  C   UNL     1      -9.825  15.771  70.110  1.00  0.00     0.108 C  
BRANCH  10  11
HETATM   11  C   UNL     1      -9.123  14.430  70.151  1.00  0.00     1.453 A  
HETATM   12  N   UNL     1      -9.688  13.236  70.027  1.00  0.00     2.278 NA 
HETATM   13  C   UNL     1      -8.700  12.294  70.267  1.00  0.00     4.798 A  
HETATM   14  N   UNL     1      -5.631  11.277  70.593  1.00  0.00    -0.151 NA 
HETATM   15  C   UNL     1      -7.490  12.936  70.473  1.00  0.00     3.288 A  
HETATM   16  C   UNL     1      -6.113  12.549  70.704  1.00  0.00     0.181 A  
HETATM   17  N   UNL     1      -7.788  14.288  70.471  1.00  0.00     1.458 NA 
HETATM   18  H2  UNL     1      -6.289  10.545  70.327  1.00  0.00     0.000 HD 
HETATM   19  C   UNL     1      -6.812  15.218  70.788  1.00  0.00     0.652 A  
HETATM   20  C   UNL     1      -5.578  14.777  71.067  1.00  0.00    -0.121 A  
HETATM   21  N   UNL     1      -5.208  13.453  71.007  1.00  0.00    -0.144 NA 
HETATM   22  H1  UNL     1      -4.662  11.005  70.756  1.00  0.00     0.000 HD 
BRANCH  13  23
HETATM   23  C   UNL     1      -8.993  10.857  70.268  1.00  0.00     1.761 A  
HETATM   24  C   UNL     1      -9.484   8.061  70.372  1.00  0.00    -0.166 A  
HETATM   25  C   UNL     1      -8.175   8.550  70.282  1.00  0.00    -0.115 A  
HETATM   26  C   UNL     1     -10.302  10.348  70.282  1.00  0.00    -0.031 A  
HETATM   27  C   UNL     1      -7.937   9.937  70.227  1.00  0.00    -0.135 A  
HETATM   28  C   UNL     1     -10.548   8.964  70.361  1.00  0.00    -0.252 A  
BRANCH  24  29
HETATM   29  C   UNL     1      -9.706   6.593  70.538  1.00  0.00    -0.176 C  
HETATM   30  H   UNL     1     -11.456   6.959  71.596  1.00  0.00     0.000 HD 
HETATM   31  O   UNL     1      -8.888   5.818  70.060  1.00  0.00    -0.132 OA 
HETATM   32  N   UNL     1     -10.880   6.231  71.173  1.00  0.00    -0.254 N  
BRANCH  32  33
HETATM   33  C   UNL     1     -11.306   4.899  71.254  1.00  0.00     0.989 A  
HETATM   34  C   UNL     1     -11.870   4.366  72.410  1.00  0.00     0.948 A  
HETATM   35  C   UNL     1     -12.205   3.013  72.430  1.00  0.00     2.739 A  
HETATM   36  C   UNL     1     -11.936   2.232  71.315  1.00  0.00     6.379 A  
HETATM   37  C   UNL     1     -11.400   2.855  70.199  1.00  0.00     7.425 A  
HETATM   38  N   UNL     1     -11.125   4.178  70.129  1.00  0.00     2.764 NA 
ENDBRANCH  32  33
ENDBRANCH  24  29
ENDBRANCH  13  23
ENDBRANCH  10  11
ENDBRANCH   3   4
TORSDOF 5
ENDMDL
MODEL      122
REMARK 921   NORMALIZED FREE ENERGY PREDICTED BY IDOCK:   29.06 KCAL/MOL
REMARK 922        TOTAL FREE ENERGY PREDICTED BY IDOCK:   38.07 KCAL/MOL
REMARK 923 INTER-LIGAND FREE ENERGY PREDICTED BY IDOCK:   38.24 KCAL/MOL
REMARK 924 INTRA-LIGAND FREE ENERGY PREDICTED BY IDOCK:   -0.16 KCAL/MOL
REMARK 927      BINDING AFFINITY PREDICTED BY RF-SCORE:    0.00 PKD
ROOT
HETATM    1  C   UNL     1      -5.250  20.451  69.100  1.00  0.00    -0.278 C  
HETATM    2  C   UNL     1      -5.857  19.979  67.789  1.00  0.00    -0.219 C  
HETATM    3  C   UNL     1      -6.378  19.575  66.664  1.00  0.00    -0.185 C  
ENDROOT
BRANCH   3   4
HETATM    4  C   UNL     1      -6.993  19.198  65.403  1.00  0.00    -0.140 C  
HETATM    5  O   UNL     1      -6.252  18.875  64.483  1.00  0.00    -0.475 OA 
HETATM    6  N   UNL     1      -8.364  19.303  65.271  1.00  0.00     0.976 N  
HETATM    7  C   UNL     1      -9.000  19.272  63.968  1.00  0.00     9.320 C  
HETATM    8  C   UNL     1     -10.085  20.328  64.092  1.00  0.00     4.870 C  
HETATM    9  C   UNL     1     -10.501  20.296  65.563  1.00  0.00    -0.129 C  
HETATM   10  C   UNL     1      -9.349  19.593  66.307  1.00  0.00    -0.383 C  
BRANCH  10  11
HETATM   11  C   UNL     1      -9.858  18.311  66.933  1.00  0.00    -0.331 A  
HETATM   12  N   UNL     1      -9.427  17.082  66.681  1.00  0.00    -0.252 NA 
HETATM   13  C   UNL     1     -10.264  16.213  67.364  1.00  0.00    -0.272 A  
HETATM   14  N   UNL     1     -12.496  15.431  69.593  1.00  0.00    -0.605 NA 
HETATM   15  C   UNL     1     -11.181  16.941  68.105  1.00  0.00    -0.093 A  
HETATM   16  C   UNL     1     -12.246  16.655  69.044  1.00  0.00     1.215 A  
HETATM   17  N   UNL     1     -10.960  18.263  67.763  1.00  0.00    -0.223 NA 
HETATM   18  H2  UNL     1     -11.887  14.659  69.321  1.00  0.00     0.000 HD 
HETATM   19  C   UNL     1     -11.807  19.256  68.229  1.00  0.00     2.912 A  
HETATM   20  C   UNL     1     -12.818  18.903  69.033  1.00  0.00    12.747 A  
HETATM   21  N   UNL     1     -13.038  17.616  69.467  1.00  0.00     9.388 NA 
HETATM   22  H1  UNL     1     -13.246  15.230  70.254  1.00  0.00     0.000 HD 
BRANCH  13  23
HETATM   23  C   UNL     1     -10.108  14.758  67.262  1.00  0.00    -0.236 A  
HETATM   24  C   UNL     1      -9.762  11.956  66.946  1.00  0.00    -0.212 A  
HETATM   25  C   UNL     1     -10.548  12.682  66.043  1.00  0.00    -0.294 A  
HETATM   26  C   UNL     1      -9.386  14.003  68.201  1.00  0.00    -0.201 A  
HETATM   27  C   UNL     1     -10.720  14.070  66.206  1.00  0.00    -0.289 A  
HETATM   28  C   UNL     1      -9.191  12.619  68.033  1.00  0.00    -0.208 A  
BRANCH  24  29
HETATM   29  C   UNL     1      -9.507  10.507  66.692  1.00  0.00    -0.168 C  
HETATM   30  H   UNL     1     -11.275  10.008  67.662  1.00  0.00     0.000 HD 
HETATM   31  O   UNL     1      -8.489  10.186  66.091  1.00  0.00    -0.125 OA 
HETATM   32  N   UNL     1     -10.502   9.640  67.107  1.00  0.00    -0.255 N  
BRANCH  32  33
HETATM   33  C   UNL     1     -10.485   8.275  66.791  1.00  0.00    -0.243 A  
HETATM   34  C   UNL     1      -9.359   7.645  66.270  1.00  0.00    -0.189 A  
HETATM   35  C   UNL     1      -9.446   6.299  65.918  1.00  0.00     0.049 A  
HETATM   36  C   UNL     1     -10.658   5.638  66.067  1.00  0.00     0.044 A  
HETATM   37  C   UNL     1     -11.717   6.338  66.622  1.00  0.00     1.365 A  
HETATM   38  N   UNL     1     -11.642   7.626  67.031  1.00  0.00     1.359 NA 
ENDBRANCH  32  33
ENDBRANCH  24  29
ENDBRANCH  13  23
ENDBRANCH  10  11
ENDBRANCH   3   4
TORSDOF 5
ENDMDL
MODEL      123
REMARK 921   NORMALIZED FREE ENERGY PREDICTED BY IDOCK:   32.39 KCAL/MOL
REMARK 922        TOTAL FREE ENERGY PREDICTED BY IDOCK:   42.38 KCAL/MOL
REMARK 923 INTER-LIGAND FREE ENERGY PREDICTED BY IDOCK:   42.52 KCAL/MOL
REMARK 924 INTRA-LIGAND FREE ENERGY PREDICTED BY IDOCK:   -0.14 KCAL/MOL
REMARK 927      BINDING AFFINITY PREDICTED BY RF-SCORE:    0.00 PKD
ROOT
HETATM    1  C   UNL     1     -10.460   4.898  64.469  1.00  0.00     0.644 C  
HETATM    2  C   UNL     1      -9.877   6.236  64.047  1.00  0.00     3.233 C  
HETATM    3  C   UNL     1      -9.377   7.385  63.685  1.00  0.00     2.541 C  
ENDROOT
BRANCH   3   4
HETATM    4  C   UNL     1      -8.873   8.700  63.331  1.00  0.00     0.273 C  
HETATM    5  O   UNL     1      -9.602   9.432  62.674  1.00  0.00     0.200 OA 
HETATM    6  N   UNL     1      -7.575   9.032  63.672  1.00  0.00    -0.111 N  
HETATM    7  C   UNL     1      -6.905  10.168  63.069  1.00  0.00    -0.135 C  
HETATM    8  C   UNL     1      -5.494   9.652  62.843  1.00  0.00    -0.085 C  
HETATM    9  C   UNL     1      -5.250   8.658  63.979  1.00  0.00    -0.055 C  
HETATM   10  C   UNL     1      -6.647   8.287  64.516  1.00  0.00    -0.065 C  
BRANCH  10  11
HETATM   11  C   UNL     1      -6.768   8.728  65.960  1.00  0.00    -0.068 A  
HETATM   12  N   UNL     1      -7.047   9.950  66.394  1.00  0.00    -0.093 NA 
HETATM   13  C   UNL     1      -6.918   9.928  67.774  1.00  0.00    -0.085 A  
HETATM   14  N   UNL     1      -6.694   8.488  70.678  1.00  0.00    -0.038 NA 
HETATM   15  C   UNL     1      -6.622   8.640  68.189  1.00  0.00    -0.061 A  
HETATM   16  C   UNL     1      -6.428   7.954  69.451  1.00  0.00    -0.035 A  
HETATM   17  N   UNL     1      -6.457   7.909  67.026  1.00  0.00    -0.055 NA 
HETATM   18  H2  UNL     1      -7.056   9.441  70.710  1.00  0.00     0.000 HD 
HETATM   19  C   UNL     1      -6.016   6.597  67.083  1.00  0.00    -0.021 A  
HETATM   20  C   UNL     1      -5.784   6.055  68.286  1.00  0.00    -0.012 A  
HETATM   21  N   UNL     1      -6.006   6.710  69.475  1.00  0.00    -0.021 NA 
HETATM   22  H1  UNL     1      -6.558   8.005  71.566  1.00  0.00     0.000 HD 
BRANCH  13  23
HETATM   23  C   UNL     1      -7.101  11.138  68.582  1.00  0.00    -0.090 A  
HETATM   24  C   UNL     1      -7.561  13.507  70.081  1.00  0.00     1.625 A  
HETATM   25  C   UNL     1      -7.461  13.556  68.685  1.00  0.00    -0.108 A  
HETATM   26  C   UNL     1      -7.129  11.117  69.986  1.00  0.00     0.213 A  
HETATM   27  C   UNL     1      -7.228  12.381  67.947  1.00  0.00    -0.110 A  
HETATM   28  C   UNL     1      -7.383  12.284  70.731  1.00  0.00     4.057 A  
BRANCH  24  29
HETATM   29  C   UNL     1      -7.914  14.748  70.832  1.00  0.00     2.248 C  
HETATM   30  H   UNL     1      -8.676  15.602  69.098  1.00  0.00     0.000 HD 
HETATM   31  O   UNL     1      -7.659  14.804  72.028  1.00  0.00     2.707 OA 
HETATM   32  N   UNL     1      -8.578  15.721  70.106  1.00  0.00     0.554 N  
BRANCH  32  33
HETATM   33  C   UNL     1      -9.119  16.865  70.708  1.00  0.00     4.400 A  
HETATM   34  C   UNL     1      -8.338  17.961  71.063  1.00  0.00     7.027 A  
HETATM   35  C   UNL     1      -8.943  19.031  71.720  1.00  0.00     6.755 A  
HETATM   36  C   UNL     1     -10.294  18.958  72.031  1.00  0.00     3.730 A  
HETATM   37  C   UNL     1     -10.998  17.841  71.611  1.00  0.00     2.518 A  
HETATM   38  N   UNL     1     -10.450  16.817  70.916  1.00  0.00     1.043 NA 
ENDBRANCH  32  33
ENDBRANCH  24  29
ENDBRANCH  13  23
ENDBRANCH  10  11
ENDBRANCH   3   4
TORSDOF 5
ENDMDL
MODEL      124
REMARK 921   NORMALIZED FREE ENERGY PREDICTED BY IDOCK:   34.24 KCAL/MOL
REMARK 922        TOTAL FREE ENERGY PREDICTED BY IDOCK:   44.78 KCAL/MOL
REMARK 923 INTER-LIGAND FREE ENERGY PREDICTED BY IDOCK:   45.68 KCAL/MOL
REMARK 924 INTRA-LIGAND FREE ENERGY PREDICTED BY IDOCK:   -0.90 KCAL/MOL
REMARK 927      BINDING AFFINITY PREDICTED BY RF-SCORE:    0.00 PKD
ROOT
HETATM    1  C   UNL     1      -7.659  18.131  64.769  1.00  0.00     3.363 C  
HETATM    2  C   UNL     1      -8.159  16.724  64.490  1.00  0.00     7.852 C  
HETATM    3  C   UNL     1      -8.588  15.516  64.251  1.00  0.00     9.501 C  
ENDROOT
BRANCH   3   4
HETATM    4  C   UNL     1      -9.104  14.172  64.057  1.00  0.00     5.961 C  
HETATM    5  O   UNL     1      -8.352  13.339  63.567  1.00  0.00     5.693 OA 
HETATM    6  N   UNL     1     -10.431  13.917  64.346  1.00  0.00    -0.317 N  
HETATM    7  C   UNL     1     -11.090  12.718  63.868  1.00  0.00    -0.431 C  
HETATM    8  C   UNL     1     -12.466  13.220  63.468  1.00  0.00    -0.328 C  
HETATM    9  C   UNL     1     -12.760  14.374  64.427  1.00  0.00    -0.016 C  
HETATM   10  C   UNL     1     -11.394  14.794  65.004  1.00  0.00    -0.391 C  
BRANCH  10  11
HETATM   11  C   UNL     1     -11.385  14.568  66.501  1.00  0.00    -0.352 A  
HETATM   12  N   UNL     1     -11.417  13.398  67.125  1.00  0.00    -0.322 NA 
HETATM   13  C   UNL     1     -11.537  13.666  68.480  1.00  0.00    -0.335 A  
HETATM   14  N   UNL     1     -11.397  15.552  71.123  1.00  0.00    -0.363 NA 
HETATM   15  C   UNL     1     -11.505  15.036  68.685  1.00  0.00    -0.311 A  
HETATM   16  C   UNL     1     -11.522  15.937  69.820  1.00  0.00    -0.342 A  
HETATM   17  N   UNL     1     -11.484  15.595  67.419  1.00  0.00    -0.169 NA 
HETATM   18  H2  UNL     1     -11.282  14.556  71.312  1.00  0.00     0.000 HD 
HETATM   19  C   UNL     1     -11.586  16.967  67.259  1.00  0.00     0.905 A  
HETATM   20  C   UNL     1     -11.677  17.730  68.357  1.00  0.00     1.825 A  
HETATM   21  N   UNL     1     -11.624  17.235  69.639  1.00  0.00     1.279 NA 
HETATM   22  H1  UNL     1     -11.409  16.186  71.922  1.00  0.00     0.000 HD 
BRANCH  13  23
HETATM   23  C   UNL     1     -11.659  12.590  69.468  1.00  0.00    -0.348 A  
HETATM   24  C   UNL     1     -12.017  10.486  71.344  1.00  0.00    -0.325 A  
HETATM   25  C   UNL     1     -12.871  11.596  71.348  1.00  0.00    -0.461 A  
HETATM   26  C   UNL     1     -10.767  11.506  69.526  1.00  0.00    -0.054 A  
HETATM   27  C   UNL     1     -12.687  12.638  70.420  1.00  0.00     0.017 A  
HETATM   28  C   UNL     1     -10.957  10.449  70.437  1.00  0.00    -0.320 A  
BRANCH  24  29
HETATM   29  C   UNL     1     -12.297   9.345  72.266  1.00  0.00    -0.228 C  
HETATM   30  H   UNL     1     -12.984   8.203  70.673  1.00  0.00     0.000 HD 
HETATM   31  O   UNL     1     -12.056   9.482  73.459  1.00  0.00     2.450 OA 
HETATM   32  N   UNL     1     -12.750   8.184  71.666  1.00  0.00    -0.315 N  
BRANCH  32  33
HETATM   33  C   UNL     1     -12.897   6.984  72.374  1.00  0.00     0.230 A  
HETATM   34  C   UNL     1     -14.139   6.509  72.784  1.00  0.00     1.052 A  
HETATM   35  C   UNL     1     -14.192   5.341  73.543  1.00  0.00     6.179 A  
HETATM   36  C   UNL     1     -13.008   4.708  73.895  1.00  0.00     4.883 A  
HETATM   37  C   UNL     1     -11.820   5.237  73.416  1.00  0.00     0.401 A  
HETATM   38  N   UNL     1     -11.744   6.332  72.625  1.00  0.00    -0.184 NA 
ENDBRANCH  32  33
ENDBRANCH  24  29
ENDBRANCH  13  23
ENDBRANCH  10  11
ENDBRANCH   3   4
TORSDOF 5
ENDMDL
MODEL      125
REMARK 921   NORMALIZED FREE ENERGY PREDICTED BY IDOCK:   40.69 KCAL/MOL
REMARK 922        TOTAL FREE ENERGY PREDICTED BY IDOCK:   53.10 KCAL/MOL
REMARK 923 INTER-LIGAND FREE ENERGY PREDICTED BY IDOCK:   51.46 KCAL/MOL
REMARK 924 INTRA-LIGAND FREE ENERGY PREDICTED BY IDOCK:    1.64 KCAL/MOL
REMARK 927      BINDING AFFINITY PREDICTED BY RF-SCORE:    0.00 PKD
ROOT
HETATM    1  C   UNL     1      -6.241  17.492  70.832  1.00  0.00     1.234 C  
HETATM    2  C   UNL     1      -7.706  17.663  71.197  1.00  0.00     6.578 C  
HETATM    3  C   UNL     1      -8.963  17.810  71.511  1.00  0.00    10.161 C  
ENDROOT
BRANCH   3   4
HETATM    4  C   UNL     1     -10.362  18.047  71.824  1.00  0.00     4.304 C  
HETATM    5  O   UNL     1     -10.831  19.142  71.541  1.00  0.00     2.392 OA 
HETATM    6  N   UNL     1     -11.069  17.071  72.499  1.00  0.00     1.253 N  
HETATM    7  C   UNL     1     -12.340  17.363  73.133  1.00  0.00     1.669 C  
HETATM    8  C   UNL     1     -12.261  16.585  74.434  1.00  0.00    -0.440 C  
HETATM    9  C   UNL     1     -11.407  15.359  74.110  1.00  0.00     1.246 C  
HETATM   10  C   UNL     1     -10.650  15.709  72.814  1.00  0.00     2.462 C  
BRANCH  10  11
HETATM   11  C   UNL     1     -11.064  14.756  71.712  1.00  0.00     0.463 A  
HETATM   12  N   UNL     1     -10.343  13.760  71.215  1.00  0.00     4.129 NA 
HETATM   13  C   UNL     1     -11.050  13.247  70.138  1.00  0.00     0.533 A  
HETATM   14  N   UNL     1     -13.699  12.807  68.308  1.00  0.00     5.576 NA 
HETATM   15  C   UNL     1     -12.263  13.906  70.027  1.00  0.00    -0.344 A  
HETATM   16  C   UNL     1     -13.442  13.817  69.189  1.00  0.00     3.499 A  
HETATM   17  N   UNL     1     -12.225  14.907  70.982  1.00  0.00    -0.294 NA 
HETATM   18  H2  UNL     1     -13.009  12.059  68.233  1.00  0.00     0.000 HD 
HETATM   19  C   UNL     1     -13.240  15.848  71.048  1.00  0.00     0.146 A  
HETATM   20  C   UNL     1     -14.261  15.744  70.187  1.00  0.00     2.427 A  
HETATM   21  N   UNL     1     -14.389  14.726  69.271  1.00  0.00     5.590 NA 
HETATM   22  H1  UNL     1     -14.529  12.744  67.719  1.00  0.00     0.000 HD 
BRANCH  13  23
HETATM   23  C   UNL     1     -10.512  12.161  69.313  1.00  0.00     0.120 A  
HETATM   24  C   UNL     1      -9.391  10.026  67.811  1.00  0.00    -0.154 A  
HETATM   25  C   UNL     1      -8.574  11.042  68.322  1.00  0.00    -0.143 A  
HETATM   26  C   UNL     1     -11.325  11.175  68.730  1.00  0.00    -0.342 A  
HETATM   27  C   UNL     1      -9.135  12.100  69.062  1.00  0.00     0.379 A  
HETATM   28  C   UNL     1     -10.771  10.102  68.007  1.00  0.00    -0.305 A  
BRANCH  24  29
HETATM   29  C   UNL     1      -8.762   8.860  67.122  1.00  0.00    -0.120 C  
HETATM   30  H   UNL     1      -7.170   8.909  68.456  1.00  0.00     0.000 HD 
HETATM   31  O   UNL     1      -9.332   8.371  66.155  1.00  0.00    -0.200 OA 
HETATM   32  N   UNL     1      -7.597   8.382  67.694  1.00  0.00    -0.097 N  
BRANCH  32  33
HETATM   33  C   UNL     1      -6.983   7.198  67.263  1.00  0.00    -0.078 A  
HETATM   34  C   UNL     1      -7.069   6.751  65.948  1.00  0.00    -0.069 A  
HETATM   35  C   UNL     1      -6.487   5.527  65.617  1.00  0.00    -0.040 A  
HETATM   36  C   UNL     1      -5.872   4.779  66.611  1.00  0.00    -0.022 A  
HETATM   37  C   UNL     1      -5.808   5.319  67.886  1.00  0.00    -0.017 A  
HETATM   38  N   UNL     1      -6.308   6.531  68.221  1.00  0.00    -0.036 NA 
ENDBRANCH  32  33
ENDBRANCH  24  29
ENDBRANCH  13  23
ENDBRANCH  10  11
ENDBRANCH   3   4
TORSDOF 5
ENDMDL
MODEL      126
REMARK 921   NORMALIZED FREE ENERGY PREDICTED BY IDOCK:   41.98 KCAL/MOL
REMARK 922        TOTAL FREE ENERGY PREDICTED BY IDOCK:   54.77 KCAL/MOL
REMARK 923 INTER-LIGAND FREE ENERGY PREDICTED BY IDOCK:   55.66 KCAL/MOL
REMARK 924 INTRA-LIGAND FREE ENERGY PREDICTED BY IDOCK:   -0.89 KCAL/MOL
REMARK 927      BINDING AFFINITY PREDICTED BY RF-SCORE:    0.00 PKD
ROOT
HETATM    1  C   UNL     1      -7.626  18.148  64.744  1.00  0.00     3.363 C  
HETATM    2  C   UNL     1      -7.930  16.673  64.537  1.00  0.00     8.247 C  
HETATM    3  C   UNL     1      -8.191  15.408  64.359  1.00  0.00    10.644 C  
ENDROOT
BRANCH   3   4
HETATM    4  C   UNL     1      -8.515  13.998  64.235  1.00  0.00     8.463 C  
HETATM    5  O   UNL     1      -7.719  13.282  63.638  1.00  0.00     8.855 OA 
HETATM    6  N   UNL     1      -9.731  13.547  64.710  1.00  0.00     0.058 N  
HETATM    7  C   UNL     1     -10.257  12.251  64.326  1.00  0.00    -0.330 C  
HETATM    8  C   UNL     1     -11.737  12.529  64.130  1.00  0.00    -0.471 C  
HETATM    9  C   UNL     1     -12.067  13.641  65.126  1.00  0.00    -0.426 C  
HETATM   10  C   UNL     1     -10.715  14.277  65.502  1.00  0.00    -0.331 C  
BRANCH  10  11
HETATM   11  C   UNL     1     -10.458  14.082  66.982  1.00  0.00    -0.275 A  
HETATM   12  N   UNL     1     -10.189  12.937  67.595  1.00  0.00    -0.217 NA 
HETATM   13  C   UNL     1     -10.168  13.202  68.956  1.00  0.00     0.107 A  
HETATM   14  N   UNL     1     -10.013  15.127  71.569  1.00  0.00     0.967 NA 
HETATM   15  C   UNL     1     -10.360  14.558  69.165  1.00  0.00    -0.189 A  
HETATM   16  C   UNL     1     -10.385  15.459  70.299  1.00  0.00    -0.183 A  
HETATM   17  N   UNL     1     -10.616  15.089  67.913  1.00  0.00    -0.254 NA 
HETATM   18  H2  UNL     1      -9.692  14.172  71.732  1.00  0.00     0.000 HD 
HETATM   19  C   UNL     1     -10.990  16.417  67.781  1.00  0.00    -0.261 A  
HETATM   20  C   UNL     1     -11.066  17.169  68.887  1.00  0.00     0.070 A  
HETATM   21  N   UNL     1     -10.747  16.714  70.145  1.00  0.00    -0.190 NA 
HETATM   22  H1  UNL     1     -10.031  15.762  72.367  1.00  0.00     0.000 HD 
BRANCH  13  23
HETATM   23  C   UNL     1      -9.953  12.138  69.942  1.00  0.00     1.893 A  
HETATM   24  C   UNL     1      -9.657  10.038  71.832  1.00  0.00     3.323 A  
HETATM   25  C   UNL     1     -10.685  10.979  71.969  1.00  0.00     6.381 A  
HETATM   26  C   UNL     1      -8.883  11.231  69.861  1.00  0.00     1.442 A  
HETATM   27  C   UNL     1     -10.825  12.020  71.033  1.00  0.00     3.665 A  
HETATM   28  C   UNL     1      -8.749  10.174  70.781  1.00  0.00     1.114 A  
BRANCH  24  29
HETATM   29  C   UNL     1      -9.594   8.882  72.776  1.00  0.00     0.473 C  
HETATM   30  H   UNL     1     -10.282   7.606  71.287  1.00  0.00     0.000 HD 
HETATM   31  O   UNL     1      -9.216   9.081  73.923  1.00  0.00     0.986 OA 
HETATM   32  N   UNL     1      -9.910   7.648  72.236  1.00  0.00    -0.168 N  
BRANCH  32  33
HETATM   33  C   UNL     1      -9.737   6.454  72.948  1.00  0.00    -0.157 A  
HETATM   34  C   UNL     1     -10.803   5.770  73.526  1.00  0.00    -0.272 A  
HETATM   35  C   UNL     1     -10.537   4.625  74.276  1.00  0.00    -0.328 A  
HETATM   36  C   UNL     1      -9.220   4.222  74.453  1.00  0.00    -0.113 A  
HETATM   37  C   UNL     1      -8.227   4.948  73.815  1.00  0.00    -0.106 A  
HETATM   38  N   UNL     1      -8.462   6.024  73.029  1.00  0.00    -0.120 NA 
ENDBRANCH  32  33
ENDBRANCH  24  29
ENDBRANCH  13  23
ENDBRANCH  10  11
ENDBRANCH   3   4
TORSDOF 5
ENDMDL
MODEL      127
REMARK 921   NORMALIZED FREE ENERGY PREDICTED BY IDOCK:   47.31 KCAL/MOL
REMARK 922        TOTAL FREE ENERGY PREDICTED BY IDOCK:   61.66 KCAL/MOL
REMARK 923 INTER-LIGAND FREE ENERGY PREDICTED BY IDOCK:   61.77 KCAL/MOL
REMARK 924 INTRA-LIGAND FREE ENERGY PREDICTED BY IDOCK:   -0.11 KCAL/MOL
REMARK 927      BINDING AFFINITY PREDICTED BY RF-SCORE:    0.00 PKD
ROOT
HETATM    1  C   UNL     1      -9.384   3.313  66.932  1.00  0.00    -0.184 C  
HETATM    2  C   UNL     1      -9.281   4.391  67.998  1.00  0.00    -0.174 C  
HETATM    3  C   UNL     1      -9.193   5.316  68.913  1.00  0.00    -0.150 C  
ENDROOT
BRANCH   3   4
HETATM    4  C   UNL     1      -9.122   6.400  69.878  1.00  0.00    -0.142 C  
HETATM    5  O   UNL     1      -8.124   6.467  70.585  1.00  0.00    -0.110 OA 
HETATM    6  N   UNL     1     -10.208   7.244  70.016  1.00  0.00    -0.197 N  
HETATM    7  C   UNL     1     -10.342   8.116  71.166  1.00  0.00    -0.198 C  
HETATM    8  C   UNL     1     -11.825   8.032  71.487  1.00  0.00    -0.328 C  
HETATM    9  C   UNL     1     -12.509   7.815  70.137  1.00  0.00     0.830 C  
HETATM   10  C   UNL     1     -11.405   7.314  69.186  1.00  0.00     0.217 C  
BRANCH  10  11
HETATM   11  C   UNL     1     -11.216   8.310  68.061  1.00  0.00     0.644 A  
HETATM   12  N   UNL     1     -10.783   9.559  68.173  1.00  0.00    -0.220 NA 
HETATM   13  C   UNL     1     -10.900  10.142  66.921  1.00  0.00    -0.106 A  
HETATM   14  N   UNL     1     -11.273  10.113  63.693  1.00  0.00     1.833 NA 
HETATM   15  C   UNL     1     -11.350   9.198  66.013  1.00  0.00     3.161 A  
HETATM   16  C   UNL     1     -11.615   9.143  64.589  1.00  0.00    10.265 A  
HETATM   17  N   UNL     1     -11.616   8.066  66.763  1.00  0.00     2.202 NA 
HETATM   18  H2  UNL     1     -10.795  10.940  64.053  1.00  0.00     0.000 HD 
HETATM   19  C   UNL     1     -12.216   6.964  66.174  1.00  0.00     6.287 A  
HETATM   20  C   UNL     1     -12.502   7.018  64.867  1.00  0.00    14.185 A  
HETATM   21  N   UNL     1     -12.189   8.086  64.058  1.00  0.00    21.514 NA 
HETATM   22  H1  UNL     1     -11.459  10.074  62.691  1.00  0.00     0.000 HD 
BRANCH  13  23
HETATM   23  C   UNL     1     -10.561  11.551  66.695  1.00  0.00    -0.294 A  
HETATM   24  C   UNL     1      -9.938  14.265  66.135  1.00  0.00    -0.330 A  
HETATM   25  C   UNL     1      -9.340  13.232  65.402  1.00  0.00     0.399 A  
HETATM   26  C   UNL     1     -11.094  12.595  67.469  1.00  0.00    -0.313 A  
HETATM   27  C   UNL     1      -9.649  11.889  65.687  1.00  0.00    -0.221 A  
HETATM   28  C   UNL     1     -10.808  13.942  67.177  1.00  0.00    -0.288 A  
BRANCH  24  29
HETATM   29  C   UNL     1      -9.677  15.683  65.744  1.00  0.00    -0.345 C  
HETATM   30  H   UNL     1     -11.462  16.273  66.630  1.00  0.00     0.000 HD 
HETATM   31  O   UNL     1      -8.652  15.944  65.128  1.00  0.00     1.179 OA 
HETATM   32  N   UNL     1     -10.607  16.608  66.185  1.00  0.00    -0.262 N  
BRANCH  32  33
HETATM   33  C   UNL     1     -10.414  17.989  66.043  1.00  0.00    -0.313 A  
HETATM   34  C   UNL     1      -9.304  18.523  65.395  1.00  0.00     1.369 A  
HETATM   35  C   UNL     1      -9.153  19.908  65.356  1.00  0.00     0.679 A  
HETATM   36  C   UNL     1     -10.092  20.710  65.991  1.00  0.00     0.133 A  
HETATM   37  C   UNL     1     -11.180  20.091  66.584  1.00  0.00     0.489 A  
HETATM   38  N   UNL     1     -11.385  18.753  66.582  1.00  0.00     0.561 NA 
ENDBRANCH  32  33
ENDBRANCH  24  29
ENDBRANCH  13  23
ENDBRANCH  10  11
ENDBRANCH   3   4
TORSDOF 5
ENDMDL
MODEL      128
REMARK 921   NORMALIZED FREE ENERGY PREDICTED BY IDOCK:   51.27 KCAL/MOL
REMARK 922        TOTAL FREE ENERGY PREDICTED BY IDOCK:   66.78 KCAL/MOL
REMARK 923 INTER-LIGAND FREE ENERGY PREDICTED BY IDOCK:   67.64 KCAL/MOL
REMARK 924 INTRA-LIGAND FREE ENERGY PREDICTED BY IDOCK:   -0.86 KCAL/MOL
REMARK 927      BINDING AFFINITY PREDICTED BY RF-SCORE:    0.00 PKD
ROOT
HETATM    1  C   UNL     1      -7.583  18.181  64.682  1.00  0.00     4.080 C  
HETATM    2  C   UNL     1      -7.711  16.752  64.182  1.00  0.00    11.785 C  
HETATM    3  C   UNL     1      -7.820  15.525  63.753  1.00  0.00    19.220 C  
ENDROOT
BRANCH   3   4
HETATM    4  C   UNL     1      -7.979  14.141  63.345  1.00  0.00    17.258 C  
HETATM    5  O   UNL     1      -7.057  13.619  62.730  1.00  0.00    11.341 OA 
HETATM    6  N   UNL     1      -9.183  13.507  63.587  1.00  0.00     3.877 N  
HETATM    7  C   UNL     1      -9.529  12.266  62.922  1.00  0.00     1.103 C  
HETATM    8  C   UNL     1     -11.002  12.448  62.604  1.00  0.00     1.535 C  
HETATM    9  C   UNL     1     -11.546  13.322  63.734  1.00  0.00    -0.427 C  
HETATM   10  C   UNL     1     -10.313  13.989  64.374  1.00  0.00     0.040 C  
BRANCH  10  11
HETATM   11  C   UNL     1     -10.187  13.544  65.816  1.00  0.00    -0.297 A  
HETATM   12  N   UNL     1      -9.499  12.503  66.266  1.00  0.00    -0.232 NA 
HETATM   13  C   UNL     1      -9.777  12.390  67.620  1.00  0.00    -0.195 A  
HETATM   14  N   UNL     1     -10.868  13.450  70.491  1.00  0.00     0.754 NA 
HETATM   15  C   UNL     1     -10.600  13.433  68.011  1.00  0.00    -0.243 A  
HETATM   16  C   UNL     1     -11.186  13.912  69.247  1.00  0.00    -0.251 A  
HETATM   17  N   UNL     1     -10.911  14.111  66.845  1.00  0.00    -0.293 NA 
HETATM   18  H2  UNL     1     -10.165  12.713  70.556  1.00  0.00     0.000 HD 
HETATM   19  C   UNL     1     -11.836  15.142  66.863  1.00  0.00     0.004 A  
HETATM   20  C   UNL     1     -12.394  15.477  68.034  1.00  0.00     0.689 A  
HETATM   21  N   UNL     1     -12.064  14.890  69.234  1.00  0.00    -0.281 NA 
HETATM   22  H1  UNL     1     -11.280  13.787  71.361  1.00  0.00     0.000 HD 
BRANCH  13  23
HETATM   23  C   UNL     1      -9.223  11.300  68.429  1.00  0.00    -0.178 A  
HETATM   24  C   UNL     1      -8.234   9.109  69.943  1.00  0.00    -0.137 A  
HETATM   25  C   UNL     1      -9.585   9.472  70.015  1.00  0.00    -0.272 A  
HETATM   26  C   UNL     1      -7.857  10.970  68.427  1.00  0.00    -0.127 A  
HETATM   27  C   UNL     1     -10.069  10.560  69.266  1.00  0.00    -0.244 A  
HETATM   28  C   UNL     1      -7.368   9.870  69.155  1.00  0.00    -0.083 A  
BRANCH  24  29
HETATM   29  C   UNL     1      -7.766   7.887  70.663  1.00  0.00    -0.090 C  
HETATM   30  H   UNL     1      -8.131   8.803  72.492  1.00  0.00     0.000 HD 
HETATM   31  O   UNL     1      -7.388   6.926  70.005  1.00  0.00    -0.077 OA 
HETATM   32  N   UNL     1      -7.870   7.926  72.042  1.00  0.00    -0.096 N  
BRANCH  32  33
HETATM   33  C   UNL     1      -7.629   6.800  72.842  1.00  0.00    -0.094 A  
HETATM   34  C   UNL     1      -6.454   6.643  73.571  1.00  0.00    -0.064 A  
HETATM   35  C   UNL     1      -6.264   5.462  74.287  1.00  0.00    -0.067 A  
HETATM   36  C   UNL     1      -7.232   4.469  74.227  1.00  0.00    -0.073 A  
HETATM   37  C   UNL     1      -8.383   4.728  73.500  1.00  0.00    -0.106 A  
HETATM   38  N   UNL     1      -8.622   5.889  72.847  1.00  0.00    -0.122 NA 
ENDBRANCH  32  33
ENDBRANCH  24  29
ENDBRANCH  13  23
ENDBRANCH  10  11
ENDBRANCH   3   4
TORSDOF 5
ENDMDL
MODEL      129
REMARK 921   NORMALIZED FREE ENERGY PREDICTED BY IDOCK:   66.65 KCAL/MOL
REMARK 922        TOTAL FREE ENERGY PREDICTED BY IDOCK:   86.66 KCAL/MOL
REMARK 923 INTER-LIGAND FREE ENERGY PREDICTED BY IDOCK:   86.50 KCAL/MOL
REMARK 924 INTRA-LIGAND FREE ENERGY PREDICTED BY IDOCK:    0.16 KCAL/MOL
REMARK 927      BINDING AFFINITY PREDICTED BY RF-SCORE:    0.00 PKD
ROOT
HETATM    1  C   UNL     1      -5.847  18.391  73.881  1.00  0.00    10.261 C  
HETATM    2  C   UNL     1      -6.468  17.880  72.592  1.00  0.00     4.690 C  
HETATM    3  C   UNL     1      -7.002  17.443  71.485  1.00  0.00     5.385 C  
ENDROOT
BRANCH   3   4
HETATM    4  C   UNL     1      -7.586  17.030  70.222  1.00  0.00     2.214 C  
HETATM    5  O   UNL     1      -7.101  17.486  69.194  1.00  0.00    -0.251 OA 
HETATM    6  N   UNL     1      -8.707  16.220  70.237  1.00  0.00     1.437 N  
HETATM    7  C   UNL     1      -9.529  16.050  69.055  1.00  0.00    -0.243 C  
HETATM    8  C   UNL     1     -10.940  16.058  69.617  1.00  0.00    -0.326 C  
HETATM    9  C   UNL     1     -10.813  15.447  71.013  1.00  0.00    -0.207 C  
HETATM   10  C   UNL     1      -9.320  15.553  71.380  1.00  0.00     3.393 C  
BRANCH  10  11
HETATM   11  C   UNL     1      -8.743  14.165  71.560  1.00  0.00     7.024 A  
HETATM   12  N   UNL     1      -9.324  13.017  71.236  1.00  0.00    10.798 NA 
HETATM   13  C   UNL     1      -8.504  12.002  71.703  1.00  0.00    14.986 A  
HETATM   14  N   UNL     1      -5.717  10.762  72.824  1.00  0.00     0.387 NA 
HETATM   15  C   UNL     1      -7.361  12.552  72.261  1.00  0.00    10.681 A  
HETATM   16  C   UNL     1      -6.130  12.062  72.848  1.00  0.00     3.404 A  
HETATM   17  N   UNL     1      -7.561  13.921  72.231  1.00  0.00     5.229 NA 
HETATM   18  H2  UNL     1      -6.320  10.084  72.357  1.00  0.00     0.000 HD 
HETATM   19  C   UNL     1      -6.656  14.773  72.843  1.00  0.00     2.026 A  
HETATM   20  C   UNL     1      -5.579  14.238  73.434  1.00  0.00    -0.130 A  
HETATM   21  N   UNL     1      -5.291  12.893  73.426  1.00  0.00    -0.236 NA 
HETATM   22  H1  UNL     1      -4.851  10.418  73.238  1.00  0.00     0.000 HD 
BRANCH  13  23
HETATM   23  C   UNL     1      -8.874  10.590  71.565  1.00  0.00     5.321 A  
HETATM   24  C   UNL     1      -9.650   7.862  71.411  1.00  0.00    -0.187 A  
HETATM   25  C   UNL     1      -8.897   8.327  72.496  1.00  0.00    -0.297 A  
HETATM   26  C   UNL     1      -9.565  10.091  70.447  1.00  0.00     0.019 A  
HETATM   27  C   UNL     1      -8.512   9.679  72.565  1.00  0.00     2.964 A  
HETATM   28  C   UNL     1      -9.973   8.746  70.380  1.00  0.00    -0.219 A  
BRANCH  24  29
HETATM   29  C   UNL     1     -10.138   6.450  71.412  1.00  0.00    -0.189 C  
HETATM   30  H   UNL     1      -8.617   5.908  72.719  1.00  0.00     0.000 HD 
HETATM   31  O   UNL     1     -11.117   6.166  70.734  1.00  0.00    -0.285 OA 
HETATM   32  N   UNL     1      -9.465   5.583  72.254  1.00  0.00    -0.145 N  
BRANCH  32  33
HETATM   33  C   UNL     1      -9.907   4.274  72.489  1.00  0.00    -0.154 A  
HETATM   34  C   UNL     1     -11.091   3.999  73.166  1.00  0.00    -0.242 A  
HETATM   35  C   UNL     1     -11.425   2.669  73.419  1.00  0.00    -0.195 A  
HETATM   36  C   UNL     1     -10.554   1.665  73.020  1.00  0.00    -0.223 A  
HETATM   37  C   UNL     1      -9.413   2.032  72.325  1.00  0.00    -0.093 A  
HETATM   38  N   UNL     1      -9.096   3.310  72.010  1.00  0.00    -0.099 NA 
ENDBRANCH  32  33
ENDBRANCH  24  29
ENDBRANCH  13  23
ENDBRANCH  10  11
ENDBRANCH   3   4
TORSDOF 5
ENDMDL
MODEL      130
REMARK 921   NORMALIZED FREE ENERGY PREDICTED BY IDOCK:   82.04 KCAL/MOL
REMARK 922        TOTAL FREE ENERGY PREDICTED BY IDOCK:  106.54 KCAL/MOL
REMARK 923 INTER-LIGAND FREE ENERGY PREDICTED BY IDOCK:  106.41 KCAL/MOL
REMARK 924 INTRA-LIGAND FREE ENERGY PREDICTED BY IDOCK:    0.13 KCAL/MOL
REMARK 927      BINDING AFFINITY PREDICTED BY RF-SCORE:    0.00 PKD
ROOT
HETATM    1  C   UNL     1     -11.371  18.326  71.190  1.00  0.00     4.239 C  
HETATM    2  C   UNL     1     -10.807  17.162  71.988  1.00  0.00     2.258 C  
HETATM    3  C   UNL     1     -10.323  16.163  72.672  1.00  0.00     4.424 C  
ENDROOT
BRANCH   3   4
HETATM    4  C   UNL     1      -9.718  15.095  73.448  1.00  0.00     7.719 C  
HETATM    5  O   UNL     1     -10.364  14.632  74.380  1.00  0.00     4.655 OA 
HETATM    6  N   UNL     1      -8.421  14.713  73.163  1.00  0.00     7.646 N  
HETATM    7  C   UNL     1      -7.649  13.912  74.092  1.00  0.00     5.915 C  
HETATM    8  C   UNL     1      -6.265  14.532  74.010  1.00  0.00     0.870 C  
HETATM    9  C   UNL     1      -6.144  15.040  72.573  1.00  0.00     0.996 C  
HETATM   10  C   UNL     1      -7.587  15.127  72.039  1.00  0.00     4.641 C  
BRANCH  10  11
HETATM   11  C   UNL     1      -7.754  14.176  70.872  1.00  0.00     2.836 A  
HETATM   12  N   UNL     1      -8.563  13.127  70.816  1.00  0.00     6.300 NA 
HETATM   13  C   UNL     1      -8.289  12.468  69.627  1.00  0.00     1.779 A  
HETATM   14  N   UNL     1      -7.046  12.206  66.636  1.00  0.00    -0.373 NA 
HETATM   15  C   UNL     1      -7.337  13.179  68.915  1.00  0.00    -0.019 A  
HETATM   16  C   UNL     1      -6.684  13.074  67.625  1.00  0.00    -0.157 A  
HETATM   17  N   UNL     1      -6.955  14.216  69.748  1.00  0.00    -0.023 NA 
HETATM   18  H2  UNL     1      -7.835  11.585  66.818  1.00  0.00     0.000 HD 
HETATM   19  C   UNL     1      -5.906  15.049  69.390  1.00  0.00    -0.103 A  
HETATM   20  C   UNL     1      -5.300  14.839  68.214  1.00  0.00    -0.113 A  
HETATM   21  N   UNL     1      -5.690  13.875  67.314  1.00  0.00    -0.243 NA 
HETATM   22  H1  UNL     1      -6.586  12.132  65.729  1.00  0.00     0.000 HD 
BRANCH  13  23
HETATM   23  C   UNL     1      -8.968  11.220  69.266  1.00  0.00     0.243 A  
HETATM   24  C   UNL     1     -10.381   8.835  68.644  1.00  0.00    -0.230 A  
HETATM   25  C   UNL     1     -10.059   9.146  69.971  1.00  0.00    -0.230 A  
HETATM   26  C   UNL     1      -9.233  10.856  67.935  1.00  0.00    -0.152 A  
HETATM   27  C   UNL     1      -9.356  10.327  70.274  1.00  0.00     0.329 A  
HETATM   28  C   UNL     1      -9.955   9.689  67.625  1.00  0.00    -0.218 A  
BRANCH  24  29
HETATM   29  C   UNL     1     -11.220   7.633  68.358  1.00  0.00     0.470 C  
HETATM   30  H   UNL     1     -10.884   7.862  66.321  1.00  0.00     0.000 HD 
HETATM   31  O   UNL     1     -11.731   7.037  69.297  1.00  0.00     0.085 OA 
HETATM   32  N   UNL     1     -11.289   7.252  67.030  1.00  0.00     0.191 N  
BRANCH  32  33
HETATM   33  C   UNL     1     -11.897   6.055  66.626  1.00  0.00     1.872 A  
HETATM   34  C   UNL     1     -12.848   6.008  65.611  1.00  0.00     7.334 A  
HETATM   35  C   UNL     1     -13.455   4.788  65.317  1.00  0.00    10.491 A  
HETATM   36  C   UNL     1     -13.119   3.667  66.064  1.00  0.00    17.517 A  
HETATM   37  C   UNL     1     -12.140   3.803  67.035  1.00  0.00    12.980 A  
HETATM   38  N   UNL     1     -11.489   4.960  67.299  1.00  0.00     2.483 NA 
ENDBRANCH  32  33
ENDBRANCH  24  29
ENDBRANCH  13  23
ENDBRANCH  10  11
ENDBRANCH   3   4
TORSDOF 5
ENDMDL
