MODEL        1
REMARK 921   NORMALIZED FREE ENERGY PREDICTED BY IDOCK:   -4.64 KCAL/MOL
REMARK 922        TOTAL FREE ENERGY PREDICTED BY IDOCK:   -5.56 KCAL/MOL
REMARK 923 INTER-LIGAND FREE ENERGY PREDICTED BY IDOCK:   -5.45 KCAL/MOL
REMARK 924 INTRA-LIGAND FREE ENERGY PREDICTED BY IDOCK:   -0.11 KCAL/MOL
REMARK 927      BINDING AFFINITY PREDICTED BY RF-SCORE:    0.00 PKD
ROOT
HETATM    1  C   UNL     1     -13.855  15.291  71.469  1.00  0.00    -0.617 C  
HETATM    2  C   UNL     1     -12.627  15.502  70.627  1.00  0.00    -0.443 C  
HETATM    3  N   UNL     1     -12.555  14.657  69.544  1.00  0.00    -0.575 N  
HETATM    4  O   UNL     1     -11.774  16.341  70.896  1.00  0.00    -0.376 OA 
HETATM    5  H   UNL     1     -13.302  13.980  69.390  1.00  0.00     0.000 HD 
ENDROOT
BRANCH   3   6
HETATM    6  C   UNL     1     -11.445  14.704  68.617  1.00  0.00    -0.300 C  
BRANCH   6   7
HETATM    7  C   UNL     1     -11.641  13.746  67.449  1.00  0.00    -0.393 C  
BRANCH   7   8
HETATM    8  C   UNL     1     -12.097  14.507  66.213  1.00  0.00    -0.294 C  
HETATM    9  S   UNL     1     -12.101  13.466  64.766  1.00  0.00    -0.426 S  
HETATM   10  O   UNL     1     -13.141  12.472  64.868  1.00  0.00    -0.833 OA 
HETATM   11  O   UNL     1     -10.739  13.145  64.401  1.00  0.00    -0.367 OA 
HETATM   12  O   UNL     1     -12.578  14.587  63.706  1.00  0.00    -0.825 OA 
ENDBRANCH   7   8
ENDBRANCH   6   7
ENDBRANCH   3   6
TORSDOF 3
ENDMDL
MODEL        2
REMARK 921   NORMALIZED FREE ENERGY PREDICTED BY IDOCK:   -4.61 KCAL/MOL
REMARK 922        TOTAL FREE ENERGY PREDICTED BY IDOCK:   -5.52 KCAL/MOL
REMARK 923 INTER-LIGAND FREE ENERGY PREDICTED BY IDOCK:   -5.15 KCAL/MOL
REMARK 924 INTRA-LIGAND FREE ENERGY PREDICTED BY IDOCK:   -0.37 KCAL/MOL
REMARK 927      BINDING AFFINITY PREDICTED BY RF-SCORE:    0.00 PKD
ROOT
HETATM    1  C   UNL     1     -10.888  19.251  67.269  1.00  0.00    -0.554 C  
HETATM    2  C   UNL     1     -10.089  17.978  67.322  1.00  0.00    -0.342 C  
HETATM    3  N   UNL     1     -10.108  17.270  66.143  1.00  0.00    -0.315 N  
HETATM    4  O   UNL     1      -9.491  17.612  68.329  1.00  0.00    -0.275 OA 
HETATM    5  H   UNL     1     -10.634  17.637  65.351  1.00  0.00     0.000 HD 
ENDROOT
BRANCH   3   6
HETATM    6  C   UNL     1      -9.401  16.016  65.999  1.00  0.00    -0.345 C  
BRANCH   6   7
HETATM    7  C   UNL     1     -10.307  14.821  66.267  1.00  0.00    -0.305 C  
BRANCH   7   8
HETATM    8  C   UNL     1     -10.678  14.136  64.960  1.00  0.00    -0.416 C  
HETATM    9  S   UNL     1     -12.259  14.693  64.353  1.00  0.00    -0.342 S  
HETATM   10  O   UNL     1     -12.171  16.067  63.921  1.00  0.00    -0.883 OA 
HETATM   11  O   UNL     1     -13.307  14.207  65.222  1.00  0.00    -0.715 OA 
HETATM   12  O   UNL     1     -12.319  13.755  63.040  1.00  0.00    -0.661 OA 
ENDBRANCH   7   8
ENDBRANCH   6   7
ENDBRANCH   3   6
TORSDOF 3
ENDMDL
MODEL        3
REMARK 921   NORMALIZED FREE ENERGY PREDICTED BY IDOCK:   -4.57 KCAL/MOL
REMARK 922        TOTAL FREE ENERGY PREDICTED BY IDOCK:   -5.48 KCAL/MOL
REMARK 923 INTER-LIGAND FREE ENERGY PREDICTED BY IDOCK:   -5.09 KCAL/MOL
REMARK 924 INTRA-LIGAND FREE ENERGY PREDICTED BY IDOCK:   -0.38 KCAL/MOL
REMARK 927      BINDING AFFINITY PREDICTED BY RF-SCORE:    0.00 PKD
ROOT
HETATM    1  C   UNL     1     -11.655  10.606  70.610  1.00  0.00    -0.432 C  
HETATM    2  C   UNL     1     -11.883  11.695  69.599  1.00  0.00    -0.352 C  
HETATM    3  N   UNL     1     -11.676  12.960  70.100  1.00  0.00    -0.530 N  
HETATM    4  O   UNL     1     -12.231  11.466  68.445  1.00  0.00    -0.571 OA 
HETATM    5  H   UNL     1     -11.393  13.069  71.073  1.00  0.00     0.000 HD 
ENDROOT
BRANCH   3   6
HETATM    6  C   UNL     1     -11.849  14.139  69.279  1.00  0.00    -0.338 C  
BRANCH   6   7
HETATM    7  C   UNL     1     -12.427  15.302  70.075  1.00  0.00    -0.330 C  
BRANCH   7   8
HETATM    8  C   UNL     1     -11.863  15.307  71.488  1.00  0.00    -0.380 C  
HETATM    9  S   UNL     1     -13.126  14.971  72.700  1.00  0.00    -0.461 S  
HETATM   10  O   UNL     1     -13.569  13.602  72.593  1.00  0.00    -0.615 OA 
HETATM   11  O   UNL     1     -14.039  16.090  72.767  1.00  0.00    -0.509 OA 
HETATM   12  O   UNL     1     -12.193  15.097  74.012  1.00  0.00    -0.577 OA 
ENDBRANCH   7   8
ENDBRANCH   6   7
ENDBRANCH   3   6
TORSDOF 3
ENDMDL
MODEL        4
REMARK 921   NORMALIZED FREE ENERGY PREDICTED BY IDOCK:   -4.52 KCAL/MOL
REMARK 922        TOTAL FREE ENERGY PREDICTED BY IDOCK:   -5.42 KCAL/MOL
REMARK 923 INTER-LIGAND FREE ENERGY PREDICTED BY IDOCK:   -5.27 KCAL/MOL
REMARK 924 INTRA-LIGAND FREE ENERGY PREDICTED BY IDOCK:   -0.15 KCAL/MOL
REMARK 927      BINDING AFFINITY PREDICTED BY RF-SCORE:    0.00 PKD
ROOT
HETATM    1  C   UNL     1     -13.243  15.518  71.264  1.00  0.00    -0.588 C  
HETATM    2  C   UNL     1     -12.099  15.134  70.367  1.00  0.00    -0.328 C  
HETATM    3  N   UNL     1     -12.498  14.517  69.204  1.00  0.00    -0.575 N  
HETATM    4  O   UNL     1     -10.927  15.345  70.661  1.00  0.00    -0.313 OA 
HETATM    5  H   UNL     1     -13.492  14.372  69.034  1.00  0.00     0.000 HD 
ENDROOT
BRANCH   3   6
HETATM    6  C   UNL     1     -11.541  14.070  68.215  1.00  0.00    -0.329 C  
BRANCH   6   7
HETATM    7  C   UNL     1     -11.773  14.733  66.863  1.00  0.00    -0.316 C  
BRANCH   7   8
HETATM    8  C   UNL     1     -11.040  13.972  65.769  1.00  0.00    -0.305 C  
HETATM    9  S   UNL     1     -12.144  13.488  64.454  1.00  0.00    -0.416 S  
HETATM   10  O   UNL     1     -12.588  14.649  63.723  1.00  0.00    -0.820 OA 
HETATM   11  O   UNL     1     -13.049  12.469  64.937  1.00  0.00    -0.833 OA 
HETATM   12  O   UNL     1     -11.058  12.707  63.550  1.00  0.00    -0.448 OA 
ENDBRANCH   7   8
ENDBRANCH   6   7
ENDBRANCH   3   6
TORSDOF 3
ENDMDL
MODEL        5
REMARK 921   NORMALIZED FREE ENERGY PREDICTED BY IDOCK:   -4.48 KCAL/MOL
REMARK 922        TOTAL FREE ENERGY PREDICTED BY IDOCK:   -5.38 KCAL/MOL
REMARK 923 INTER-LIGAND FREE ENERGY PREDICTED BY IDOCK:   -5.25 KCAL/MOL
REMARK 924 INTRA-LIGAND FREE ENERGY PREDICTED BY IDOCK:   -0.13 KCAL/MOL
REMARK 927      BINDING AFFINITY PREDICTED BY RF-SCORE:    0.00 PKD
ROOT
HETATM    1  C   UNL     1      -9.681  18.715  67.795  1.00  0.00    -0.344 C  
HETATM    2  C   UNL     1     -10.192  18.133  66.506  1.00  0.00    -0.391 C  
HETATM    3  N   UNL     1     -10.202  16.758  66.492  1.00  0.00    -0.307 N  
HETATM    4  O   UNL     1     -10.552  18.828  65.562  1.00  0.00    -0.596 OA 
HETATM    5  H   UNL     1      -9.881  16.250  67.315  1.00  0.00     0.000 HD 
ENDROOT
BRANCH   3   6
HETATM    6  C   UNL     1     -10.656  16.014  65.337  1.00  0.00    -0.408 C  
BRANCH   6   7
HETATM    7  C   UNL     1     -10.227  14.553  65.400  1.00  0.00    -0.415 C  
BRANCH   7   8
HETATM    8  C   UNL     1     -10.950  13.744  64.335  1.00  0.00    -0.343 C  
HETATM    9  S   UNL     1     -12.394  12.931  64.996  1.00  0.00    -0.489 S  
HETATM   10  O   UNL     1     -13.406  13.904  65.328  1.00  0.00    -0.732 OA 
HETATM   11  O   UNL     1     -11.982  11.883  65.902  1.00  0.00    -0.480 OA 
HETATM   12  O   UNL     1     -12.845  12.177  63.641  1.00  0.00    -0.746 OA 
ENDBRANCH   7   8
ENDBRANCH   6   7
ENDBRANCH   3   6
TORSDOF 3
ENDMDL
MODEL        6
REMARK 921   NORMALIZED FREE ENERGY PREDICTED BY IDOCK:   -4.40 KCAL/MOL
REMARK 922        TOTAL FREE ENERGY PREDICTED BY IDOCK:   -5.28 KCAL/MOL
REMARK 923 INTER-LIGAND FREE ENERGY PREDICTED BY IDOCK:   -5.15 KCAL/MOL
REMARK 924 INTRA-LIGAND FREE ENERGY PREDICTED BY IDOCK:   -0.12 KCAL/MOL
REMARK 927      BINDING AFFINITY PREDICTED BY RF-SCORE:    0.00 PKD
ROOT
HETATM    1  C   UNL     1     -10.650  19.784  67.173  1.00  0.00    -0.577 C  
HETATM    2  C   UNL     1     -10.440  18.304  67.334  1.00  0.00    -0.409 C  
HETATM    3  N   UNL     1     -10.247  17.646  66.141  1.00  0.00    -0.362 N  
HETATM    4  O   UNL     1     -10.452  17.747  68.426  1.00  0.00    -0.369 OA 
HETATM    5  H   UNL     1     -10.255  18.179  65.272  1.00  0.00     0.000 HD 
ENDROOT
BRANCH   3   6
HETATM    6  C   UNL     1     -10.031  16.216  66.089  1.00  0.00    -0.335 C  
BRANCH   6   7
HETATM    7  C   UNL     1     -10.715  15.584  64.883  1.00  0.00    -0.415 C  
BRANCH   7   8
HETATM    8  C   UNL     1     -11.761  14.577  65.337  1.00  0.00    -0.354 C  
HETATM    9  S   UNL     1     -11.983  13.276  64.138  1.00  0.00    -0.462 S  
HETATM   10  O   UNL     1     -10.809  12.439  64.085  1.00  0.00    -0.315 OA 
HETATM   11  O   UNL     1     -12.619  13.815  62.956  1.00  0.00    -0.721 OA 
HETATM   12  O   UNL     1     -13.143  12.469  64.920  1.00  0.00    -0.833 OA 
ENDBRANCH   7   8
ENDBRANCH   6   7
ENDBRANCH   3   6
TORSDOF 3
ENDMDL
MODEL        7
REMARK 921   NORMALIZED FREE ENERGY PREDICTED BY IDOCK:   -4.39 KCAL/MOL
REMARK 922        TOTAL FREE ENERGY PREDICTED BY IDOCK:   -5.27 KCAL/MOL
REMARK 923 INTER-LIGAND FREE ENERGY PREDICTED BY IDOCK:   -4.88 KCAL/MOL
REMARK 924 INTRA-LIGAND FREE ENERGY PREDICTED BY IDOCK:   -0.39 KCAL/MOL
REMARK 927      BINDING AFFINITY PREDICTED BY RF-SCORE:    0.00 PKD
ROOT
HETATM    1  C   UNL     1      -9.796  20.010  66.592  1.00  0.00    -0.577 C  
HETATM    2  C   UNL     1     -10.074  19.023  67.691  1.00  0.00    -0.374 C  
HETATM    3  N   UNL     1     -10.513  17.802  67.233  1.00  0.00    -0.363 N  
HETATM    4  O   UNL     1      -9.931  19.295  68.879  1.00  0.00    -0.422 OA 
HETATM    5  H   UNL     1     -10.612  17.653  66.230  1.00  0.00     0.000 HD 
ENDROOT
BRANCH   3   6
HETATM    6  C   UNL     1     -10.837  16.722  68.141  1.00  0.00    -0.353 C  
BRANCH   6   7
HETATM    7  C   UNL     1     -10.523  15.360  67.536  1.00  0.00    -0.275 C  
BRANCH   7   8
HETATM    8  C   UNL     1     -11.650  14.920  66.614  1.00  0.00    -0.261 C  
HETATM    9  S   UNL     1     -11.189  15.069  64.897  1.00  0.00    -0.405 S  
HETATM   10  O   UNL     1     -10.175  14.098  64.566  1.00  0.00    -0.347 OA 
HETATM   11  O   UNL     1     -11.083  16.468  64.548  1.00  0.00    -0.821 OA 
HETATM   12  O   UNL     1     -12.589  14.573  64.264  1.00  0.00    -0.681 OA 
ENDBRANCH   7   8
ENDBRANCH   6   7
ENDBRANCH   3   6
TORSDOF 3
ENDMDL
MODEL        8
REMARK 921   NORMALIZED FREE ENERGY PREDICTED BY IDOCK:   -4.38 KCAL/MOL
REMARK 922        TOTAL FREE ENERGY PREDICTED BY IDOCK:   -5.26 KCAL/MOL
REMARK 923 INTER-LIGAND FREE ENERGY PREDICTED BY IDOCK:   -5.05 KCAL/MOL
REMARK 924 INTRA-LIGAND FREE ENERGY PREDICTED BY IDOCK:   -0.21 KCAL/MOL
REMARK 927      BINDING AFFINITY PREDICTED BY RF-SCORE:    0.00 PKD
ROOT
HETATM    1  C   UNL     1     -10.642  11.682  63.209  1.00  0.00    -0.420 C  
HETATM    2  C   UNL     1     -11.853  12.289  63.860  1.00  0.00    -0.464 C  
HETATM    3  N   UNL     1     -11.548  13.202  64.843  1.00  0.00    -0.312 N  
HETATM    4  O   UNL     1     -12.999  11.983  63.544  1.00  0.00    -0.774 OA 
HETATM    5  H   UNL     1     -10.570  13.400  65.052  1.00  0.00     0.000 HD 
ENDROOT
BRANCH   3   6
HETATM    6  C   UNL     1     -12.581  13.891  65.587  1.00  0.00    -0.517 C  
BRANCH   6   7
HETATM    7  C   UNL     1     -12.004  14.690  66.748  1.00  0.00    -0.297 C  
BRANCH   7   8
HETATM    8  C   UNL     1     -10.582  15.130  66.432  1.00  0.00    -0.305 C  
HETATM    9  S   UNL     1     -10.514  16.851  65.973  1.00  0.00    -0.225 S  
HETATM   10  O   UNL     1     -10.805  17.684  67.114  1.00  0.00    -0.251 OA 
HETATM   11  O   UNL     1     -11.148  17.031  64.685  1.00  0.00    -0.997 OA 
HETATM   12  O   UNL     1      -8.927  16.927  65.686  1.00  0.00    -0.486 OA 
ENDBRANCH   7   8
ENDBRANCH   6   7
ENDBRANCH   3   6
TORSDOF 3
ENDMDL
MODEL        9
REMARK 921   NORMALIZED FREE ENERGY PREDICTED BY IDOCK:   -4.36 KCAL/MOL
REMARK 922        TOTAL FREE ENERGY PREDICTED BY IDOCK:   -5.23 KCAL/MOL
REMARK 923 INTER-LIGAND FREE ENERGY PREDICTED BY IDOCK:   -4.88 KCAL/MOL
REMARK 924 INTRA-LIGAND FREE ENERGY PREDICTED BY IDOCK:   -0.35 KCAL/MOL
REMARK 927      BINDING AFFINITY PREDICTED BY RF-SCORE:    0.00 PKD
ROOT
HETATM    1  C   UNL     1     -10.225  17.038  65.742  1.00  0.00    -0.262 C  
HETATM    2  C   UNL     1     -11.083  16.210  64.827  1.00  0.00    -0.333 C  
HETATM    3  N   UNL     1     -11.174  14.891  65.206  1.00  0.00    -0.354 N  
HETATM    4  O   UNL     1     -11.635  16.675  63.835  1.00  0.00    -1.204 OA 
HETATM    5  H   UNL     1     -10.681  14.579  66.041  1.00  0.00     0.000 HD 
ENDROOT
BRANCH   3   6
HETATM    6  C   UNL     1     -11.952  13.935  64.448  1.00  0.00    -0.450 C  
BRANCH   6   7
HETATM    7  C   UNL     1     -12.020  12.582  65.143  1.00  0.00    -0.484 C  
BRANCH   7   8
HETATM    8  C   UNL     1     -10.891  12.451  66.155  1.00  0.00    -0.273 C  
HETATM    9  S   UNL     1     -11.493  12.570  67.829  1.00  0.00    -0.341 S  
HETATM   10  O   UNL     1     -12.285  11.411  68.159  1.00  0.00    -0.602 OA 
HETATM   11  O   UNL     1     -11.934  13.923  68.086  1.00  0.00    -0.355 OA 
HETATM   12  O   UNL     1     -10.066  12.434  68.572  1.00  0.00    -0.221 OA 
ENDBRANCH   7   8
ENDBRANCH   6   7
ENDBRANCH   3   6
TORSDOF 3
ENDMDL
MODEL       10
REMARK 921   NORMALIZED FREE ENERGY PREDICTED BY IDOCK:   -4.31 KCAL/MOL
REMARK 922        TOTAL FREE ENERGY PREDICTED BY IDOCK:   -5.18 KCAL/MOL
REMARK 923 INTER-LIGAND FREE ENERGY PREDICTED BY IDOCK:   -5.17 KCAL/MOL
REMARK 924 INTRA-LIGAND FREE ENERGY PREDICTED BY IDOCK:   -0.00 KCAL/MOL
REMARK 927      BINDING AFFINITY PREDICTED BY RF-SCORE:    0.00 PKD
ROOT
HETATM    1  C   UNL     1     -11.102  10.321  70.104  1.00  0.00    -0.385 C  
HETATM    2  C   UNL     1     -11.569  11.261  69.028  1.00  0.00    -0.319 C  
HETATM    3  N   UNL     1     -11.408  12.589  69.353  1.00  0.00    -0.405 N  
HETATM    4  O   UNL     1     -12.054  10.871  67.971  1.00  0.00    -0.563 OA 
HETATM    5  H   UNL     1     -11.001  12.834  70.255  1.00  0.00     0.000 HD 
ENDROOT
BRANCH   3   6
HETATM    6  C   UNL     1     -11.801  13.645  68.446  1.00  0.00    -0.372 C  
BRANCH   6   7
HETATM    7  C   UNL     1     -10.947  13.656  67.185  1.00  0.00    -0.299 C  
BRANCH   7   8
HETATM    8  C   UNL     1     -11.631  14.462  66.090  1.00  0.00    -0.369 C  
HETATM    9  S   UNL     1     -11.945  13.468  64.644  1.00  0.00    -0.422 S  
HETATM   10  O   UNL     1     -12.960  12.482  64.926  1.00  0.00    -0.821 OA 
HETATM   11  O   UNL     1     -10.692  13.144  64.001  1.00  0.00    -0.399 OA 
HETATM   12  O   UNL     1     -12.608  14.628  63.736  1.00  0.00    -0.820 OA 
ENDBRANCH   7   8
ENDBRANCH   6   7
ENDBRANCH   3   6
TORSDOF 3
ENDMDL
MODEL       11
REMARK 921   NORMALIZED FREE ENERGY PREDICTED BY IDOCK:   -4.30 KCAL/MOL
REMARK 922        TOTAL FREE ENERGY PREDICTED BY IDOCK:   -5.17 KCAL/MOL
REMARK 923 INTER-LIGAND FREE ENERGY PREDICTED BY IDOCK:   -5.06 KCAL/MOL
REMARK 924 INTRA-LIGAND FREE ENERGY PREDICTED BY IDOCK:   -0.11 KCAL/MOL
REMARK 927      BINDING AFFINITY PREDICTED BY RF-SCORE:    0.00 PKD
ROOT
HETATM    1  C   UNL     1     -13.121  15.304  71.128  1.00  0.00    -0.546 C  
HETATM    2  C   UNL     1     -12.557  14.221  70.251  1.00  0.00    -0.319 C  
HETATM    3  N   UNL     1     -12.409  14.601  68.937  1.00  0.00    -0.585 N  
HETATM    4  O   UNL     1     -12.272  13.106  70.675  1.00  0.00    -0.361 OA 
HETATM    5  H   UNL     1     -12.674  15.546  68.660  1.00  0.00     0.000 HD 
ENDROOT
BRANCH   3   6
HETATM    6  C   UNL     1     -11.885  13.694  67.939  1.00  0.00    -0.366 C  
BRANCH   6   7
HETATM    7  C   UNL     1     -12.211  14.159  66.525  1.00  0.00    -0.463 C  
BRANCH   7   8
HETATM    8  C   UNL     1     -12.559  12.969  65.645  1.00  0.00    -0.285 C  
HETATM    9  S   UNL     1     -11.986  13.200  63.972  1.00  0.00    -0.479 S  
HETATM   10  O   UNL     1     -10.545  13.155  63.927  1.00  0.00    -0.361 OA 
HETATM   11  O   UNL     1     -12.760  14.243  63.338  1.00  0.00    -0.733 OA 
HETATM   12  O   UNL     1     -12.552  11.814  63.366  1.00  0.00    -0.558 OA 
ENDBRANCH   7   8
ENDBRANCH   6   7
ENDBRANCH   3   6
TORSDOF 3
ENDMDL
MODEL       12
REMARK 921   NORMALIZED FREE ENERGY PREDICTED BY IDOCK:   -4.29 KCAL/MOL
REMARK 922        TOTAL FREE ENERGY PREDICTED BY IDOCK:   -5.15 KCAL/MOL
REMARK 923 INTER-LIGAND FREE ENERGY PREDICTED BY IDOCK:   -5.04 KCAL/MOL
REMARK 924 INTRA-LIGAND FREE ENERGY PREDICTED BY IDOCK:   -0.11 KCAL/MOL
REMARK 927      BINDING AFFINITY PREDICTED BY RF-SCORE:    0.00 PKD
ROOT
HETATM    1  C   UNL     1     -12.565  10.004  71.366  1.00  0.00    -0.518 C  
HETATM    2  C   UNL     1     -12.476  11.389  70.788  1.00  0.00    -0.365 C  
HETATM    3  N   UNL     1     -11.982  11.417  69.504  1.00  0.00    -0.332 N  
HETATM    4  O   UNL     1     -12.805  12.391  71.415  1.00  0.00    -0.367 OA 
HETATM    5  H   UNL     1     -11.725  10.540  69.052  1.00  0.00     0.000 HD 
ENDROOT
BRANCH   3   6
HETATM    6  C   UNL     1     -11.818  12.659  68.781  1.00  0.00    -0.300 C  
BRANCH   6   7
HETATM    7  C   UNL     1     -11.588  12.421  67.294  1.00  0.00    -0.435 C  
BRANCH   7   8
HETATM    8  C   UNL     1     -12.015  13.641  66.492  1.00  0.00    -0.424 C  
HETATM    9  S   UNL     1     -12.218  13.252  64.763  1.00  0.00    -0.424 S  
HETATM   10  O   UNL     1     -13.361  12.393  64.575  1.00  0.00    -0.800 OA 
HETATM   11  O   UNL     1     -10.925  12.979  64.176  1.00  0.00    -0.373 OA 
HETATM   12  O   UNL     1     -12.614  14.735  64.262  1.00  0.00    -0.706 OA 
ENDBRANCH   7   8
ENDBRANCH   6   7
ENDBRANCH   3   6
TORSDOF 3
ENDMDL
MODEL       13
REMARK 921   NORMALIZED FREE ENERGY PREDICTED BY IDOCK:   -4.25 KCAL/MOL
REMARK 922        TOTAL FREE ENERGY PREDICTED BY IDOCK:   -5.11 KCAL/MOL
REMARK 923 INTER-LIGAND FREE ENERGY PREDICTED BY IDOCK:   -4.77 KCAL/MOL
REMARK 924 INTRA-LIGAND FREE ENERGY PREDICTED BY IDOCK:   -0.34 KCAL/MOL
REMARK 927      BINDING AFFINITY PREDICTED BY RF-SCORE:    0.00 PKD
ROOT
HETATM    1  C   UNL     1     -11.500  12.209  63.458  1.00  0.00    -0.544 C  
HETATM    2  C   UNL     1     -12.072  12.795  64.719  1.00  0.00    -0.432 C  
HETATM    3  N   UNL     1     -11.114  13.167  65.633  1.00  0.00    -0.275 N  
HETATM    4  O   UNL     1     -13.278  12.914  64.907  1.00  0.00    -0.782 OA 
HETATM    5  H   UNL     1     -10.130  13.031  65.406  1.00  0.00     0.000 HD 
ENDROOT
BRANCH   3   6
HETATM    6  C   UNL     1     -11.469  13.748  66.911  1.00  0.00    -0.347 C  
BRANCH   6   7
HETATM    7  C   UNL     1     -10.314  14.537  67.514  1.00  0.00    -0.244 C  
BRANCH   7   8
HETATM    8  C   UNL     1     -10.604  16.029  67.450  1.00  0.00    -0.316 C  
HETATM    9  S   UNL     1     -10.052  16.739  65.910  1.00  0.00    -0.264 S  
HETATM   10  O   UNL     1     -10.867  16.260  64.820  1.00  0.00    -0.671 OA 
HETATM   11  O   UNL     1      -8.607  16.740  65.871  1.00  0.00    -0.500 OA 
HETATM   12  O   UNL     1     -10.476  18.265  66.223  1.00  0.00    -0.399 OA 
ENDBRANCH   7   8
ENDBRANCH   6   7
ENDBRANCH   3   6
TORSDOF 3
ENDMDL
MODEL       14
REMARK 921   NORMALIZED FREE ENERGY PREDICTED BY IDOCK:   -4.24 KCAL/MOL
REMARK 922        TOTAL FREE ENERGY PREDICTED BY IDOCK:   -5.09 KCAL/MOL
REMARK 923 INTER-LIGAND FREE ENERGY PREDICTED BY IDOCK:   -4.98 KCAL/MOL
REMARK 924 INTRA-LIGAND FREE ENERGY PREDICTED BY IDOCK:   -0.11 KCAL/MOL
REMARK 927      BINDING AFFINITY PREDICTED BY RF-SCORE:    0.00 PKD
ROOT
HETATM    1  C   UNL     1     -11.750  13.685  66.466  1.00  0.00    -0.414 C  
HETATM    2  C   UNL     1     -11.453  14.821  67.405  1.00  0.00    -0.363 C  
HETATM    3  N   UNL     1     -12.096  14.713  68.617  1.00  0.00    -0.562 N  
HETATM    4  O   UNL     1     -10.716  15.754  67.105  1.00  0.00    -0.314 OA 
HETATM    5  H   UNL     1     -12.698  13.909  68.790  1.00  0.00     0.000 HD 
ENDROOT
BRANCH   3   6
HETATM    6  C   UNL     1     -11.938  15.712  69.652  1.00  0.00    -0.349 C  
BRANCH   6   7
HETATM    7  C   UNL     1     -12.127  15.121  71.043  1.00  0.00    -0.389 C  
BRANCH   7   8
HETATM    8  C   UNL     1     -11.810  16.161  72.106  1.00  0.00    -0.536 C  
HETATM    9  S   UNL     1     -12.773  15.902  73.585  1.00  0.00    -0.646 S  
HETATM   10  O   UNL     1     -12.346  14.696  74.253  1.00  0.00    -0.454 OA 
HETATM   11  O   UNL     1     -14.161  16.202  73.314  1.00  0.00    -0.442 OA 
HETATM   12  O   UNL     1     -12.213  17.166  74.420  1.00  0.00    -0.510 OA 
ENDBRANCH   7   8
ENDBRANCH   6   7
ENDBRANCH   3   6
TORSDOF 3
ENDMDL
MODEL       15
REMARK 921   NORMALIZED FREE ENERGY PREDICTED BY IDOCK:   -4.23 KCAL/MOL
REMARK 922        TOTAL FREE ENERGY PREDICTED BY IDOCK:   -5.08 KCAL/MOL
REMARK 923 INTER-LIGAND FREE ENERGY PREDICTED BY IDOCK:   -4.90 KCAL/MOL
REMARK 924 INTRA-LIGAND FREE ENERGY PREDICTED BY IDOCK:   -0.18 KCAL/MOL
REMARK 927      BINDING AFFINITY PREDICTED BY RF-SCORE:    0.00 PKD
ROOT
HETATM    1  C   UNL     1     -12.343  12.222  63.567  1.00  0.00    -0.670 C  
HETATM    2  C   UNL     1     -12.265  13.139  64.756  1.00  0.00    -0.425 C  
HETATM    3  N   UNL     1     -11.055  13.088  65.408  1.00  0.00    -0.273 N  
HETATM    4  O   UNL     1     -13.200  13.851  65.106  1.00  0.00    -0.768 OA 
HETATM    5  H   UNL     1     -10.327  12.466  65.058  1.00  0.00     0.000 HD 
ENDROOT
BRANCH   3   6
HETATM    6  C   UNL     1     -10.789  13.896  66.579  1.00  0.00    -0.295 C  
BRANCH   6   7
HETATM    7  C   UNL     1      -9.771  14.992  66.290  1.00  0.00    -0.316 C  
BRANCH   7   8
HETATM    8  C   UNL     1     -10.430  16.141  65.541  1.00  0.00    -0.386 C  
HETATM    9  S   UNL     1     -10.001  17.719  66.251  1.00  0.00    -0.290 S  
HETATM   10  O   UNL     1      -8.608  18.010  66.017  1.00  0.00    -0.500 OA 
HETATM   11  O   UNL     1     -10.624  17.848  67.549  1.00  0.00    -0.388 OA 
HETATM   12  O   UNL     1     -10.881  18.639  65.258  1.00  0.00    -0.591 OA 
ENDBRANCH   7   8
ENDBRANCH   6   7
ENDBRANCH   3   6
TORSDOF 3
ENDMDL
MODEL       16
REMARK 921   NORMALIZED FREE ENERGY PREDICTED BY IDOCK:   -4.21 KCAL/MOL
REMARK 922        TOTAL FREE ENERGY PREDICTED BY IDOCK:   -5.06 KCAL/MOL
REMARK 923 INTER-LIGAND FREE ENERGY PREDICTED BY IDOCK:   -4.59 KCAL/MOL
REMARK 924 INTRA-LIGAND FREE ENERGY PREDICTED BY IDOCK:   -0.47 KCAL/MOL
REMARK 927      BINDING AFFINITY PREDICTED BY RF-SCORE:    0.00 PKD
ROOT
HETATM    1  C   UNL     1     -12.012  12.097  63.315  1.00  0.00    -0.489 C  
HETATM    2  C   UNL     1     -11.912  13.530  63.758  1.00  0.00    -0.422 C  
HETATM    3  N   UNL     1     -10.781  13.799  64.493  1.00  0.00    -0.510 N  
HETATM    4  O   UNL     1     -12.768  14.367  63.492  1.00  0.00    -0.742 OA 
HETATM    5  H   UNL     1     -10.117  13.047  64.677  1.00  0.00     0.000 HD 
ENDROOT
BRANCH   3   6
HETATM    6  C   UNL     1     -10.509  15.122  65.011  1.00  0.00    -0.389 C  
BRANCH   6   7
HETATM    7  C   UNL     1     -10.890  15.244  66.481  1.00  0.00    -0.311 C  
BRANCH   7   8
HETATM    8  C   UNL     1     -10.224  14.143  67.292  1.00  0.00    -0.256 C  
HETATM    9  S   UNL     1     -11.425  13.032  68.002  1.00  0.00    -0.332 S  
HETATM   10  O   UNL     1     -12.060  12.255  66.966  1.00  0.00    -0.575 OA 
HETATM   11  O   UNL     1     -12.166  13.721  69.035  1.00  0.00    -0.343 OA 
HETATM   12  O   UNL     1     -10.385  12.076  68.784  1.00  0.00    -0.218 OA 
ENDBRANCH   7   8
ENDBRANCH   6   7
ENDBRANCH   3   6
TORSDOF 3
ENDMDL
MODEL       17
REMARK 921   NORMALIZED FREE ENERGY PREDICTED BY IDOCK:   -4.18 KCAL/MOL
REMARK 922        TOTAL FREE ENERGY PREDICTED BY IDOCK:   -5.03 KCAL/MOL
REMARK 923 INTER-LIGAND FREE ENERGY PREDICTED BY IDOCK:   -4.62 KCAL/MOL
REMARK 924 INTRA-LIGAND FREE ENERGY PREDICTED BY IDOCK:   -0.41 KCAL/MOL
REMARK 927      BINDING AFFINITY PREDICTED BY RF-SCORE:    0.00 PKD
ROOT
HETATM    1  C   UNL     1     -11.607  12.736  69.287  1.00  0.00    -0.372 C  
HETATM    2  C   UNL     1     -11.906  12.675  67.815  1.00  0.00    -0.323 C  
HETATM    3  N   UNL     1     -12.184  13.903  67.261  1.00  0.00    -0.489 N  
HETATM    4  O   UNL     1     -11.908  11.624  67.182  1.00  0.00    -0.608 OA 
HETATM    5  H   UNL     1     -12.167  14.731  67.854  1.00  0.00     0.000 HD 
ENDROOT
BRANCH   3   6
HETATM    6  C   UNL     1     -12.500  14.048  65.856  1.00  0.00    -0.481 C  
BRANCH   6   7
HETATM    7  C   UNL     1     -11.286  14.479  65.044  1.00  0.00    -0.384 C  
BRANCH   7   8
HETATM    8  C   UNL     1     -11.311  15.982  64.814  1.00  0.00    -0.280 C  
HETATM    9  S   UNL     1     -10.267  16.842  65.978  1.00  0.00    -0.317 S  
HETATM   10  O   UNL     1      -8.879  16.552  65.712  1.00  0.00    -0.474 OA 
HETATM   11  O   UNL     1     -10.849  16.758  67.298  1.00  0.00    -0.258 OA 
HETATM   12  O   UNL     1     -10.576  18.341  65.464  1.00  0.00    -0.632 OA 
ENDBRANCH   7   8
ENDBRANCH   6   7
ENDBRANCH   3   6
TORSDOF 3
ENDMDL
MODEL       18
REMARK 921   NORMALIZED FREE ENERGY PREDICTED BY IDOCK:   -4.18 KCAL/MOL
REMARK 922        TOTAL FREE ENERGY PREDICTED BY IDOCK:   -5.02 KCAL/MOL
REMARK 923 INTER-LIGAND FREE ENERGY PREDICTED BY IDOCK:   -4.90 KCAL/MOL
REMARK 924 INTRA-LIGAND FREE ENERGY PREDICTED BY IDOCK:   -0.13 KCAL/MOL
REMARK 927      BINDING AFFINITY PREDICTED BY RF-SCORE:    0.00 PKD
ROOT
HETATM    1  C   UNL     1     -14.353  15.279  71.877  1.00  0.00    -0.691 C  
HETATM    2  C   UNL     1     -12.962  15.605  71.410  1.00  0.00    -0.487 C  
HETATM    3  N   UNL     1     -12.727  15.257  70.100  1.00  0.00    -0.617 N  
HETATM    4  O   UNL     1     -12.122  16.122  72.140  1.00  0.00    -0.474 OA 
HETATM    5  H   UNL     1     -13.476  14.825  69.559  1.00  0.00     0.000 HD 
ENDROOT
BRANCH   3   6
HETATM    6  C   UNL     1     -11.445  15.488  69.470  1.00  0.00    -0.333 C  
BRANCH   6   7
HETATM    7  C   UNL     1     -11.598  15.931  68.021  1.00  0.00    -0.168 C  
BRANCH   7   8
HETATM    8  C   UNL     1     -10.411  16.786  67.603  1.00  0.00    -0.309 C  
HETATM    9  S   UNL     1      -9.765  16.281  66.019  1.00  0.00    -0.335 S  
HETATM   10  O   UNL     1     -10.705  16.597  64.972  1.00  0.00    -0.677 OA 
HETATM   11  O   UNL     1      -9.136  14.985  66.147  1.00  0.00    -0.280 OA 
HETATM   12  O   UNL     1      -8.551  17.343  65.943  1.00  0.00    -0.525 OA 
ENDBRANCH   7   8
ENDBRANCH   6   7
ENDBRANCH   3   6
TORSDOF 3
ENDMDL
MODEL       19
REMARK 921   NORMALIZED FREE ENERGY PREDICTED BY IDOCK:   -4.17 KCAL/MOL
REMARK 922        TOTAL FREE ENERGY PREDICTED BY IDOCK:   -5.01 KCAL/MOL
REMARK 923 INTER-LIGAND FREE ENERGY PREDICTED BY IDOCK:   -4.89 KCAL/MOL
REMARK 924 INTRA-LIGAND FREE ENERGY PREDICTED BY IDOCK:   -0.12 KCAL/MOL
REMARK 927      BINDING AFFINITY PREDICTED BY RF-SCORE:    0.00 PKD
ROOT
HETATM    1  C   UNL     1     -10.664  11.809  63.377  1.00  0.00    -0.468 C  
HETATM    2  C   UNL     1     -11.288  13.121  63.764  1.00  0.00    -0.322 C  
HETATM    3  N   UNL     1     -10.432  13.953  64.450  1.00  0.00    -0.599 N  
HETATM    4  O   UNL     1     -12.450  13.408  63.497  1.00  0.00    -0.738 OA 
HETATM    5  H   UNL     1      -9.480  13.641  64.638  1.00  0.00     0.000 HD 
ENDROOT
BRANCH   3   6
HETATM    6  C   UNL     1     -10.851  15.259  64.911  1.00  0.00    -0.425 C  
BRANCH   6   7
HETATM    7  C   UNL     1      -9.826  15.883  65.849  1.00  0.00    -0.383 C  
BRANCH   7   8
HETATM    8  C   UNL     1     -10.493  16.908  66.754  1.00  0.00    -0.260 C  
HETATM    9  S   UNL     1     -10.335  18.560  66.100  1.00  0.00    -0.373 S  
HETATM   10  O   UNL     1     -11.128  18.701  64.903  1.00  0.00    -0.450 OA 
HETATM   11  O   UNL     1      -8.954  18.981  66.183  1.00  0.00    -0.425 OA 
HETATM   12  O   UNL     1     -11.093  19.330  67.300  1.00  0.00    -0.442 OA 
ENDBRANCH   7   8
ENDBRANCH   6   7
ENDBRANCH   3   6
TORSDOF 3
ENDMDL
MODEL       20
REMARK 921   NORMALIZED FREE ENERGY PREDICTED BY IDOCK:   -4.16 KCAL/MOL
REMARK 922        TOTAL FREE ENERGY PREDICTED BY IDOCK:   -5.00 KCAL/MOL
REMARK 923 INTER-LIGAND FREE ENERGY PREDICTED BY IDOCK:   -4.77 KCAL/MOL
REMARK 924 INTRA-LIGAND FREE ENERGY PREDICTED BY IDOCK:   -0.23 KCAL/MOL
REMARK 927      BINDING AFFINITY PREDICTED BY RF-SCORE:    0.00 PKD
ROOT
HETATM    1  C   UNL     1     -12.148  12.354  63.631  1.00  0.00    -0.648 C  
HETATM    2  C   UNL     1     -12.152  13.640  64.411  1.00  0.00    -0.427 C  
HETATM    3  N   UNL     1     -11.012  14.390  64.236  1.00  0.00    -0.593 N  
HETATM    4  O   UNL     1     -13.082  13.971  65.137  1.00  0.00    -0.776 OA 
HETATM    5  H   UNL     1     -10.279  14.043  63.618  1.00  0.00     0.000 HD 
ENDROOT
BRANCH   3   6
HETATM    6  C   UNL     1     -10.828  15.659  64.907  1.00  0.00    -0.418 C  
BRANCH   6   7
HETATM    7  C   UNL     1      -9.939  15.525  66.136  1.00  0.00    -0.332 C  
BRANCH   7   8
HETATM    8  C   UNL     1     -10.789  15.438  67.395  1.00  0.00    -0.309 C  
HETATM    9  S   UNL     1     -10.352  16.706  68.571  1.00  0.00    -0.325 S  
HETATM   10  O   UNL     1     -10.740  18.003  68.073  1.00  0.00    -0.376 OA 
HETATM   11  O   UNL     1      -9.038  16.430  69.109  1.00  0.00    -0.250 OA 
HETATM   12  O   UNL     1     -11.391  16.279  69.731  1.00  0.00    -0.321 OA 
ENDBRANCH   7   8
ENDBRANCH   6   7
ENDBRANCH   3   6
TORSDOF 3
ENDMDL
MODEL       21
REMARK 921   NORMALIZED FREE ENERGY PREDICTED BY IDOCK:   -4.14 KCAL/MOL
REMARK 922        TOTAL FREE ENERGY PREDICTED BY IDOCK:   -4.98 KCAL/MOL
REMARK 923 INTER-LIGAND FREE ENERGY PREDICTED BY IDOCK:   -4.78 KCAL/MOL
REMARK 924 INTRA-LIGAND FREE ENERGY PREDICTED BY IDOCK:   -0.20 KCAL/MOL
REMARK 927      BINDING AFFINITY PREDICTED BY RF-SCORE:    0.00 PKD
ROOT
HETATM    1  C   UNL     1     -12.397  15.353  73.141  1.00  0.00    -0.562 C  
HETATM    2  C   UNL     1     -12.360  15.468  71.642  1.00  0.00    -0.403 C  
HETATM    3  N   UNL     1     -11.110  15.257  71.107  1.00  0.00    -0.505 N  
HETATM    4  O   UNL     1     -13.353  15.735  70.973  1.00  0.00    -0.580 OA 
HETATM    5  H   UNL     1     -10.332  15.044  71.731  1.00  0.00     0.000 HD 
ENDROOT
BRANCH   3   6
HETATM    6  C   UNL     1     -10.872  15.329  69.682  1.00  0.00    -0.286 C  
BRANCH   6   7
HETATM    7  C   UNL     1     -10.928  13.954  69.029  1.00  0.00    -0.281 C  
BRANCH   7   8
HETATM    8  C   UNL     1     -11.877  13.972  67.840  1.00  0.00    -0.376 C  
HETATM    9  S   UNL     1     -11.590  12.590  66.750  1.00  0.00    -0.381 S  
HETATM   10  O   UNL     1     -11.985  11.359  67.390  1.00  0.00    -0.606 OA 
HETATM   11  O   UNL     1     -10.317  12.757  66.086  1.00  0.00    -0.259 OA 
HETATM   12  O   UNL     1     -12.705  12.964  65.644  1.00  0.00    -0.537 OA 
ENDBRANCH   7   8
ENDBRANCH   6   7
ENDBRANCH   3   6
TORSDOF 3
ENDMDL
MODEL       22
REMARK 921   NORMALIZED FREE ENERGY PREDICTED BY IDOCK:   -4.09 KCAL/MOL
REMARK 922        TOTAL FREE ENERGY PREDICTED BY IDOCK:   -4.92 KCAL/MOL
REMARK 923 INTER-LIGAND FREE ENERGY PREDICTED BY IDOCK:   -4.85 KCAL/MOL
REMARK 924 INTRA-LIGAND FREE ENERGY PREDICTED BY IDOCK:   -0.07 KCAL/MOL
REMARK 927      BINDING AFFINITY PREDICTED BY RF-SCORE:    0.00 PKD
ROOT
HETATM    1  C   UNL     1     -11.953  16.184  72.462  1.00  0.00    -0.660 C  
HETATM    2  C   UNL     1     -12.560  15.392  71.337  1.00  0.00    -0.405 C  
HETATM    3  N   UNL     1     -11.716  14.434  70.824  1.00  0.00    -0.452 N  
HETATM    4  O   UNL     1     -13.695  15.596  70.919  1.00  0.00    -0.549 OA 
HETATM    5  H   UNL     1     -10.783  14.329  71.222  1.00  0.00     0.000 HD 
ENDROOT
BRANCH   3   6
HETATM    6  C   UNL     1     -12.119  13.573  69.733  1.00  0.00    -0.318 C  
BRANCH   6   7
HETATM    7  C   UNL     1     -12.030  14.284  68.389  1.00  0.00    -0.344 C  
BRANCH   7   8
HETATM    8  C   UNL     1     -11.572  13.316  67.308  1.00  0.00    -0.359 C  
HETATM    9  S   UNL     1     -11.798  13.999  65.676  1.00  0.00    -0.395 S  
HETATM   10  O   UNL     1     -10.883  15.093  65.462  1.00  0.00    -0.325 OA 
HETATM   11  O   UNL     1     -13.211  14.085  65.383  1.00  0.00    -0.761 OA 
HETATM   12  O   UNL     1     -11.262  12.724  64.843  1.00  0.00    -0.284 OA 
ENDBRANCH   7   8
ENDBRANCH   6   7
ENDBRANCH   3   6
TORSDOF 3
ENDMDL
MODEL       23
REMARK 921   NORMALIZED FREE ENERGY PREDICTED BY IDOCK:   -4.07 KCAL/MOL
REMARK 922        TOTAL FREE ENERGY PREDICTED BY IDOCK:   -4.90 KCAL/MOL
REMARK 923 INTER-LIGAND FREE ENERGY PREDICTED BY IDOCK:   -4.58 KCAL/MOL
REMARK 924 INTRA-LIGAND FREE ENERGY PREDICTED BY IDOCK:   -0.31 KCAL/MOL
REMARK 927      BINDING AFFINITY PREDICTED BY RF-SCORE:    0.00 PKD
ROOT
HETATM    1  C   UNL     1      -9.500  17.299  66.301  1.00  0.00    -0.256 C  
HETATM    2  C   UNL     1     -10.487  16.676  65.353  1.00  0.00    -0.233 C  
HETATM    3  N   UNL     1     -10.597  15.312  65.497  1.00  0.00    -0.344 N  
HETATM    4  O   UNL     1     -11.119  17.329  64.530  1.00  0.00    -1.082 OA 
HETATM    5  H   UNL     1     -10.033  14.839  66.202  1.00  0.00     0.000 HD 
ENDROOT
BRANCH   3   6
HETATM    6  C   UNL     1     -11.494  14.531  64.672  1.00  0.00    -0.387 C  
BRANCH   6   7
HETATM    7  C   UNL     1     -12.490  13.741  65.510  1.00  0.00    -0.548 C  
BRANCH   7   8
HETATM    8  C   UNL     1     -12.162  13.878  66.989  1.00  0.00    -0.355 C  
HETATM    9  S   UNL     1     -11.167  12.516  67.568  1.00  0.00    -0.311 S  
HETATM   10  O   UNL     1      -9.846  12.582  66.992  1.00  0.00    -0.210 OA 
HETATM   11  O   UNL     1     -11.962  11.308  67.576  1.00  0.00    -0.612 OA 
HETATM   12  O   UNL     1     -11.067  12.975  69.113  1.00  0.00    -0.244 OA 
ENDBRANCH   7   8
ENDBRANCH   6   7
ENDBRANCH   3   6
TORSDOF 3
ENDMDL
MODEL       24
REMARK 921   NORMALIZED FREE ENERGY PREDICTED BY IDOCK:   -4.05 KCAL/MOL
REMARK 922        TOTAL FREE ENERGY PREDICTED BY IDOCK:   -4.87 KCAL/MOL
REMARK 923 INTER-LIGAND FREE ENERGY PREDICTED BY IDOCK:   -4.57 KCAL/MOL
REMARK 924 INTRA-LIGAND FREE ENERGY PREDICTED BY IDOCK:   -0.29 KCAL/MOL
REMARK 927      BINDING AFFINITY PREDICTED BY RF-SCORE:    0.00 PKD
ROOT
HETATM    1  C   UNL     1      -8.889  10.301  62.844  1.00  0.00    -0.229 C  
HETATM    2  C   UNL     1      -9.986  10.841  63.718  1.00  0.00    -0.351 C  
HETATM    3  N   UNL     1     -11.046  11.360  63.009  1.00  0.00    -0.840 N  
HETATM    4  O   UNL     1      -9.927  10.826  64.943  1.00  0.00    -0.264 OA 
HETATM    5  H   UNL     1     -11.019  11.341  61.991  1.00  0.00     0.000 HD 
ENDROOT
BRANCH   3   6
HETATM    6  C   UNL     1     -12.197  11.931  63.674  1.00  0.00    -0.479 C  
BRANCH   6   7
HETATM    7  C   UNL     1     -12.103  13.448  63.766  1.00  0.00    -0.516 C  
BRANCH   7   8
HETATM    8  C   UNL     1     -12.208  13.897  65.216  1.00  0.00    -0.433 C  
HETATM    9  S   UNL     1     -10.784  14.850  65.712  1.00  0.00    -0.351 S  
HETATM   10  O   UNL     1     -10.777  16.125  65.036  1.00  0.00    -0.558 OA 
HETATM   11  O   UNL     1      -9.626  13.987  65.777  1.00  0.00    -0.224 OA 
HETATM   12  O   UNL     1     -11.225  15.097  67.246  1.00  0.00    -0.329 OA 
ENDBRANCH   7   8
ENDBRANCH   6   7
ENDBRANCH   3   6
TORSDOF 3
ENDMDL
MODEL       25
REMARK 921   NORMALIZED FREE ENERGY PREDICTED BY IDOCK:   -4.04 KCAL/MOL
REMARK 922        TOTAL FREE ENERGY PREDICTED BY IDOCK:   -4.86 KCAL/MOL
REMARK 923 INTER-LIGAND FREE ENERGY PREDICTED BY IDOCK:   -4.46 KCAL/MOL
REMARK 924 INTRA-LIGAND FREE ENERGY PREDICTED BY IDOCK:   -0.39 KCAL/MOL
REMARK 927      BINDING AFFINITY PREDICTED BY RF-SCORE:    0.00 PKD
ROOT
HETATM    1  C   UNL     1     -13.348  12.971  71.841  1.00  0.00    -0.539 C  
HETATM    2  C   UNL     1     -12.891  14.137  71.009  1.00  0.00    -0.351 C  
HETATM    3  N   UNL     1     -11.744  13.883  70.294  1.00  0.00    -0.457 N  
HETATM    4  O   UNL     1     -13.487  15.209  70.987  1.00  0.00    -0.436 OA 
HETATM    5  H   UNL     1     -11.303  12.967  70.370  1.00  0.00     0.000 HD 
ENDROOT
BRANCH   3   6
HETATM    6  C   UNL     1     -11.146  14.885  69.438  1.00  0.00    -0.280 C  
BRANCH   6   7
HETATM    7  C   UNL     1     -11.526  14.679  67.977  1.00  0.00    -0.346 C  
BRANCH   7   8
HETATM    8  C   UNL     1     -10.669  13.585  67.358  1.00  0.00    -0.263 C  
HETATM    9  S   UNL     1     -11.653  12.182  66.864  1.00  0.00    -0.306 S  
HETATM   10  O   UNL     1     -12.493  12.531  65.744  1.00  0.00    -0.626 OA 
HETATM   11  O   UNL     1     -12.151  11.505  68.040  1.00  0.00    -0.617 OA 
HETATM   12  O   UNL     1     -10.442  11.263  66.318  1.00  0.00    -0.243 OA 
ENDBRANCH   7   8
ENDBRANCH   6   7
ENDBRANCH   3   6
TORSDOF 3
ENDMDL
MODEL       26
REMARK 921   NORMALIZED FREE ENERGY PREDICTED BY IDOCK:   -4.03 KCAL/MOL
REMARK 922        TOTAL FREE ENERGY PREDICTED BY IDOCK:   -4.85 KCAL/MOL
REMARK 923 INTER-LIGAND FREE ENERGY PREDICTED BY IDOCK:   -4.70 KCAL/MOL
REMARK 924 INTRA-LIGAND FREE ENERGY PREDICTED BY IDOCK:   -0.15 KCAL/MOL
REMARK 927      BINDING AFFINITY PREDICTED BY RF-SCORE:    0.00 PKD
ROOT
HETATM    1  C   UNL     1      -9.299  18.557  68.510  1.00  0.00    -0.364 C  
HETATM    2  C   UNL     1      -9.677  17.102  68.558  1.00  0.00    -0.291 C  
HETATM    3  N   UNL     1     -10.772  16.795  67.783  1.00  0.00    -0.338 N  
HETATM    4  O   UNL     1      -9.068  16.281  69.235  1.00  0.00    -0.251 OA 
HETATM    5  H   UNL     1     -11.229  17.536  67.253  1.00  0.00     0.000 HD 
ENDROOT
BRANCH   3   6
HETATM    6  C   UNL     1     -11.291  15.447  67.703  1.00  0.00    -0.290 C  
BRANCH   6   7
HETATM    7  C   UNL     1     -10.960  14.792  66.368  1.00  0.00    -0.331 C  
BRANCH   7   8
HETATM    8  C   UNL     1     -11.984  13.716  66.040  1.00  0.00    -0.413 C  
HETATM    9  S   UNL     1     -12.002  13.336  64.298  1.00  0.00    -0.439 S  
HETATM   10  O   UNL     1     -10.780  12.669  63.920  1.00  0.00    -0.391 OA 
HETATM   11  O   UNL     1     -12.543  14.459  63.566  1.00  0.00    -0.784 OA 
HETATM   12  O   UNL     1     -13.184  12.237  64.338  1.00  0.00    -0.806 OA 
ENDBRANCH   7   8
ENDBRANCH   6   7
ENDBRANCH   3   6
TORSDOF 3
ENDMDL
MODEL       27
REMARK 921   NORMALIZED FREE ENERGY PREDICTED BY IDOCK:   -4.03 KCAL/MOL
REMARK 922        TOTAL FREE ENERGY PREDICTED BY IDOCK:   -4.84 KCAL/MOL
REMARK 923 INTER-LIGAND FREE ENERGY PREDICTED BY IDOCK:   -4.70 KCAL/MOL
REMARK 924 INTRA-LIGAND FREE ENERGY PREDICTED BY IDOCK:   -0.14 KCAL/MOL
REMARK 927      BINDING AFFINITY PREDICTED BY RF-SCORE:    0.00 PKD
ROOT
HETATM    1  C   UNL     1     -11.442  12.204  64.812  1.00  0.00    -0.377 C  
HETATM    2  C   UNL     1     -12.151  13.176  65.713  1.00  0.00    -0.447 C  
HETATM    3  N   UNL     1     -11.553  13.318  66.944  1.00  0.00    -0.345 N  
HETATM    4  O   UNL     1     -13.169  13.772  65.376  1.00  0.00    -0.722 OA 
HETATM    5  H   UNL     1     -10.710  12.784  67.152  1.00  0.00     0.000 HD 
ENDROOT
BRANCH   3   6
HETATM    6  C   UNL     1     -12.090  14.207  67.951  1.00  0.00    -0.274 C  
BRANCH   6   7
HETATM    7  C   UNL     1     -11.329  14.099  69.266  1.00  0.00    -0.324 C  
BRANCH   7   8
HETATM    8  C   UNL     1     -12.230  13.528  70.352  1.00  0.00    -0.356 C  
HETATM    9  S   UNL     1     -12.767  14.791  71.490  1.00  0.00    -0.357 S  
HETATM   10  O   UNL     1     -13.677  15.698  70.836  1.00  0.00    -0.549 OA 
HETATM   11  O   UNL     1     -11.640  15.239  72.278  1.00  0.00    -0.429 OA 
HETATM   12  O   UNL     1     -13.625  13.835  72.469  1.00  0.00    -0.523 OA 
ENDBRANCH   7   8
ENDBRANCH   6   7
ENDBRANCH   3   6
TORSDOF 3
ENDMDL
MODEL       28
REMARK 921   NORMALIZED FREE ENERGY PREDICTED BY IDOCK:   -4.02 KCAL/MOL
REMARK 922        TOTAL FREE ENERGY PREDICTED BY IDOCK:   -4.83 KCAL/MOL
REMARK 923 INTER-LIGAND FREE ENERGY PREDICTED BY IDOCK:   -4.44 KCAL/MOL
REMARK 924 INTRA-LIGAND FREE ENERGY PREDICTED BY IDOCK:   -0.39 KCAL/MOL
REMARK 927      BINDING AFFINITY PREDICTED BY RF-SCORE:    0.00 PKD
ROOT
HETATM    1  C   UNL     1     -12.223  13.736  63.971  1.00  0.00    -0.429 C  
HETATM    2  C   UNL     1     -12.084  13.406  65.432  1.00  0.00    -0.421 C  
HETATM    3  N   UNL     1     -11.726  14.485  66.206  1.00  0.00    -0.373 N  
HETATM    4  O   UNL     1     -12.265  12.277  65.876  1.00  0.00    -0.634 OA 
HETATM    5  H   UNL     1     -11.589  15.392  65.761  1.00  0.00     0.000 HD 
ENDROOT
BRANCH   3   6
HETATM    6  C   UNL     1     -11.540  14.366  67.636  1.00  0.00    -0.370 C  
BRANCH   6   7
HETATM    7  C   UNL     1     -10.407  15.253  68.135  1.00  0.00    -0.242 C  
BRANCH   7   8
HETATM    8  C   UNL     1     -10.842  16.710  68.144  1.00  0.00    -0.348 C  
HETATM    9  S   UNL     1     -10.009  17.651  66.879  1.00  0.00    -0.338 S  
HETATM   10  O   UNL     1     -10.463  17.243  65.572  1.00  0.00    -0.609 OA 
HETATM   11  O   UNL     1      -8.610  17.782  67.219  1.00  0.00    -0.227 OA 
HETATM   12  O   UNL     1     -10.671  19.085  67.217  1.00  0.00    -0.452 OA 
ENDBRANCH   7   8
ENDBRANCH   6   7
ENDBRANCH   3   6
TORSDOF 3
ENDMDL
MODEL       29
REMARK 921   NORMALIZED FREE ENERGY PREDICTED BY IDOCK:   -4.02 KCAL/MOL
REMARK 922        TOTAL FREE ENERGY PREDICTED BY IDOCK:   -4.83 KCAL/MOL
REMARK 923 INTER-LIGAND FREE ENERGY PREDICTED BY IDOCK:   -4.44 KCAL/MOL
REMARK 924 INTRA-LIGAND FREE ENERGY PREDICTED BY IDOCK:   -0.39 KCAL/MOL
REMARK 927      BINDING AFFINITY PREDICTED BY RF-SCORE:    0.00 PKD
ROOT
HETATM    1  C   UNL     1     -10.898  15.802  65.024  1.00  0.00    -0.461 C  
HETATM    2  C   UNL     1     -11.294  14.514  64.359  1.00  0.00    -0.236 C  
HETATM    3  N   UNL     1     -10.279  13.586  64.313  1.00  0.00    -0.672 N  
HETATM    4  O   UNL     1     -12.414  14.323  63.895  1.00  0.00    -0.773 OA 
HETATM    5  H   UNL     1      -9.373  13.821  64.716  1.00  0.00     0.000 HD 
ENDROOT
BRANCH   3   6
HETATM    6  C   UNL     1     -10.466  12.285  63.708  1.00  0.00    -0.444 C  
BRANCH   6   7
HETATM    7  C   UNL     1     -10.823  11.226  64.743  1.00  0.00    -0.314 C  
BRANCH   7   8
HETATM    8  C   UNL     1      -9.992  11.417  66.003  1.00  0.00    -0.231 C  
HETATM    9  S   UNL     1     -11.019  11.763  67.419  1.00  0.00    -0.279 S  
HETATM   10  O   UNL     1     -11.785  10.594  67.778  1.00  0.00    -0.503 OA 
HETATM   11  O   UNL     1     -11.607  13.076  67.279  1.00  0.00    -0.315 OA 
HETATM   12  O   UNL     1      -9.830  11.937  68.499  1.00  0.00    -0.208 OA 
ENDBRANCH   7   8
ENDBRANCH   6   7
ENDBRANCH   3   6
TORSDOF 3
ENDMDL
MODEL       30
REMARK 921   NORMALIZED FREE ENERGY PREDICTED BY IDOCK:   -4.02 KCAL/MOL
REMARK 922        TOTAL FREE ENERGY PREDICTED BY IDOCK:   -4.83 KCAL/MOL
REMARK 923 INTER-LIGAND FREE ENERGY PREDICTED BY IDOCK:   -4.43 KCAL/MOL
REMARK 924 INTRA-LIGAND FREE ENERGY PREDICTED BY IDOCK:   -0.40 KCAL/MOL
REMARK 927      BINDING AFFINITY PREDICTED BY RF-SCORE:    0.00 PKD
ROOT
HETATM    1  C   UNL     1     -10.529  19.547  66.280  1.00  0.00    -0.609 C  
HETATM    2  C   UNL     1     -10.328  18.587  67.419  1.00  0.00    -0.400 C  
HETATM    3  N   UNL     1     -10.254  17.272  67.021  1.00  0.00    -0.312 N  
HETATM    4  O   UNL     1     -10.250  18.951  68.588  1.00  0.00    -0.381 OA 
HETATM    5  H   UNL     1     -10.333  17.048  66.030  1.00  0.00     0.000 HD 
ENDROOT
BRANCH   3   6
HETATM    6  C   UNL     1     -10.066  16.199  67.974  1.00  0.00    -0.242 C  
BRANCH   6   7
HETATM    7  C   UNL     1     -11.001  15.029  67.700  1.00  0.00    -0.305 C  
BRANCH   7   8
HETATM    8  C   UNL     1     -10.490  14.208  66.525  1.00  0.00    -0.280 C  
HETATM    9  S   UNL     1     -11.488  14.456  65.068  1.00  0.00    -0.391 S  
HETATM   10  O   UNL     1     -11.307  15.794  64.560  1.00  0.00    -0.432 OA 
HETATM   11  O   UNL     1     -12.790  13.860  65.270  1.00  0.00    -0.689 OA 
HETATM   12  O   UNL     1     -10.695  13.437  64.098  1.00  0.00    -0.392 OA 
ENDBRANCH   7   8
ENDBRANCH   6   7
ENDBRANCH   3   6
TORSDOF 3
ENDMDL
MODEL       31
REMARK 921   NORMALIZED FREE ENERGY PREDICTED BY IDOCK:   -4.00 KCAL/MOL
REMARK 922        TOTAL FREE ENERGY PREDICTED BY IDOCK:   -4.82 KCAL/MOL
REMARK 923 INTER-LIGAND FREE ENERGY PREDICTED BY IDOCK:   -4.69 KCAL/MOL
REMARK 924 INTRA-LIGAND FREE ENERGY PREDICTED BY IDOCK:   -0.12 KCAL/MOL
REMARK 927      BINDING AFFINITY PREDICTED BY RF-SCORE:    0.00 PKD
ROOT
HETATM    1  C   UNL     1     -12.926  10.519  71.702  1.00  0.00    -0.581 C  
HETATM    2  C   UNL     1     -11.882  10.432  70.624  1.00  0.00    -0.350 C  
HETATM    3  N   UNL     1     -12.325  10.864  69.395  1.00  0.00    -0.469 N  
HETATM    4  O   UNL     1     -10.751  10.004  70.829  1.00  0.00    -0.303 OA 
HETATM    5  H   UNL     1     -13.283  11.201  69.303  1.00  0.00     0.000 HD 
ENDROOT
BRANCH   3   6
HETATM    6  C   UNL     1     -11.466  10.853  68.231  1.00  0.00    -0.305 C  
BRANCH   6   7
HETATM    7  C   UNL     1     -11.526  12.172  67.471  1.00  0.00    -0.410 C  
BRANCH   7   8
HETATM    8  C   UNL     1     -11.086  11.971  66.028  1.00  0.00    -0.320 C  
HETATM    9  S   UNL     1     -11.851  13.157  64.938  1.00  0.00    -0.383 S  
HETATM   10  O   UNL     1     -11.332  14.478  65.195  1.00  0.00    -0.335 OA 
HETATM   11  O   UNL     1     -13.265  12.874  64.834  1.00  0.00    -0.782 OA 
HETATM   12  O   UNL     1     -11.202  12.620  63.560  1.00  0.00    -0.453 OA 
ENDBRANCH   7   8
ENDBRANCH   6   7
ENDBRANCH   3   6
TORSDOF 3
ENDMDL
MODEL       32
REMARK 921   NORMALIZED FREE ENERGY PREDICTED BY IDOCK:   -4.00 KCAL/MOL
REMARK 922        TOTAL FREE ENERGY PREDICTED BY IDOCK:   -4.81 KCAL/MOL
REMARK 923 INTER-LIGAND FREE ENERGY PREDICTED BY IDOCK:   -4.74 KCAL/MOL
REMARK 924 INTRA-LIGAND FREE ENERGY PREDICTED BY IDOCK:   -0.07 KCAL/MOL
REMARK 927      BINDING AFFINITY PREDICTED BY RF-SCORE:    0.00 PKD
ROOT
HETATM    1  C   UNL     1     -10.627  18.273  67.673  1.00  0.00    -0.427 C  
HETATM    2  C   UNL     1     -10.160  17.287  66.639  1.00  0.00    -0.302 C  
HETATM    3  N   UNL     1      -9.715  16.100  67.175  1.00  0.00    -0.230 N  
HETATM    4  O   UNL     1     -10.170  17.531  65.437  1.00  0.00    -0.593 OA 
HETATM    5  H   UNL     1      -9.733  15.974  68.187  1.00  0.00     0.000 HD 
ENDROOT
BRANCH   3   6
HETATM    6  C   UNL     1      -9.222  15.027  66.339  1.00  0.00    -0.295 C  
BRANCH   6   7
HETATM    7  C   UNL     1     -10.311  14.009  66.024  1.00  0.00    -0.312 C  
BRANCH   7   8
HETATM    8  C   UNL     1     -11.063  14.414  64.765  1.00  0.00    -0.394 C  
HETATM    9  S   UNL     1     -11.970  13.042  64.074  1.00  0.00    -0.484 S  
HETATM   10  O   UNL     1     -13.067  12.683  64.938  1.00  0.00    -0.850 OA 
HETATM   11  O   UNL     1     -11.041  12.073  63.537  1.00  0.00    -0.409 OA 
HETATM   12  O   UNL     1     -12.571  13.818  62.791  1.00  0.00    -0.447 OA 
ENDBRANCH   7   8
ENDBRANCH   6   7
ENDBRANCH   3   6
TORSDOF 3
ENDMDL
MODEL       33
REMARK 921   NORMALIZED FREE ENERGY PREDICTED BY IDOCK:   -4.00 KCAL/MOL
REMARK 922        TOTAL FREE ENERGY PREDICTED BY IDOCK:   -4.81 KCAL/MOL
REMARK 923 INTER-LIGAND FREE ENERGY PREDICTED BY IDOCK:   -4.67 KCAL/MOL
REMARK 924 INTRA-LIGAND FREE ENERGY PREDICTED BY IDOCK:   -0.14 KCAL/MOL
REMARK 927      BINDING AFFINITY PREDICTED BY RF-SCORE:    0.00 PKD
ROOT
HETATM    1  C   UNL     1      -9.067  16.612  68.998  1.00  0.00    -0.209 C  
HETATM    2  C   UNL     1     -10.440  16.049  68.754  1.00  0.00    -0.248 C  
HETATM    3  N   UNL     1     -10.505  14.682  68.896  1.00  0.00    -0.243 N  
HETATM    4  O   UNL     1     -11.399  16.750  68.448  1.00  0.00    -0.283 OA 
HETATM    5  H   UNL     1      -9.662  14.168  69.148  1.00  0.00     0.000 HD 
ENDROOT
BRANCH   3   6
HETATM    6  C   UNL     1     -11.741  13.956  68.697  1.00  0.00    -0.361 C  
BRANCH   6   7
HETATM    7  C   UNL     1     -11.768  13.242  67.352  1.00  0.00    -0.419 C  
BRANCH   7   8
HETATM    8  C   UNL     1     -12.191  14.204  66.252  1.00  0.00    -0.449 C  
HETATM    9  S   UNL     1     -12.137  13.429  64.647  1.00  0.00    -0.423 S  
HETATM   10  O   UNL     1     -13.169  12.427  64.540  1.00  0.00    -0.834 OA 
HETATM   11  O   UNL     1     -10.760  13.182  64.278  1.00  0.00    -0.386 OA 
HETATM   12  O   UNL     1     -12.590  14.715  63.781  1.00  0.00    -0.820 OA 
ENDBRANCH   7   8
ENDBRANCH   6   7
ENDBRANCH   3   6
TORSDOF 3
ENDMDL
MODEL       34
REMARK 921   NORMALIZED FREE ENERGY PREDICTED BY IDOCK:   -4.00 KCAL/MOL
REMARK 922        TOTAL FREE ENERGY PREDICTED BY IDOCK:   -4.81 KCAL/MOL
REMARK 923 INTER-LIGAND FREE ENERGY PREDICTED BY IDOCK:   -4.67 KCAL/MOL
REMARK 924 INTRA-LIGAND FREE ENERGY PREDICTED BY IDOCK:   -0.13 KCAL/MOL
REMARK 927      BINDING AFFINITY PREDICTED BY RF-SCORE:    0.00 PKD
ROOT
HETATM    1  C   UNL     1     -12.081  12.589  63.645  1.00  0.00    -0.642 C  
HETATM    2  C   UNL     1     -12.103  13.872  64.428  1.00  0.00    -0.443 C  
HETATM    3  N   UNL     1     -10.991  14.657  64.225  1.00  0.00    -0.570 N  
HETATM    4  O   UNL     1     -13.023  14.173  65.181  1.00  0.00    -0.729 OA 
HETATM    5  H   UNL     1     -10.265  14.334  63.586  1.00  0.00     0.000 HD 
ENDROOT
BRANCH   3   6
HETATM    6  C   UNL     1     -10.827  15.929  64.894  1.00  0.00    -0.400 C  
BRANCH   6   7
HETATM    7  C   UNL     1     -10.344  15.756  66.329  1.00  0.00    -0.320 C  
BRANCH   7   8
HETATM    8  C   UNL     1      -8.840  15.532  66.355  1.00  0.00    -0.324 C  
HETATM    9  S   UNL     1      -7.970  16.988  66.907  1.00  0.00    -0.246 S  
HETATM   10  O   UNL     1      -8.231  17.226  68.305  1.00  0.00    -0.220 OA 
HETATM   11  O   UNL     1      -8.074  18.020  65.900  1.00  0.00    -0.519 OA 
HETATM   12  O   UNL     1      -6.473  16.399  66.767  1.00  0.00    -0.257 OA 
ENDBRANCH   7   8
ENDBRANCH   6   7
ENDBRANCH   3   6
TORSDOF 3
ENDMDL
MODEL       35
REMARK 921   NORMALIZED FREE ENERGY PREDICTED BY IDOCK:   -3.98 KCAL/MOL
REMARK 922        TOTAL FREE ENERGY PREDICTED BY IDOCK:   -4.79 KCAL/MOL
REMARK 923 INTER-LIGAND FREE ENERGY PREDICTED BY IDOCK:   -4.47 KCAL/MOL
REMARK 924 INTRA-LIGAND FREE ENERGY PREDICTED BY IDOCK:   -0.31 KCAL/MOL
REMARK 927      BINDING AFFINITY PREDICTED BY RF-SCORE:    0.00 PKD
ROOT
HETATM    1  C   UNL     1      -8.536  12.224  67.603  1.00  0.00    -0.166 C  
HETATM    2  C   UNL     1      -8.683  13.711  67.438  1.00  0.00    -0.213 C  
HETATM    3  N   UNL     1      -9.240  14.075  66.234  1.00  0.00    -0.487 N  
HETATM    4  O   UNL     1      -8.327  14.512  68.296  1.00  0.00    -0.138 OA 
HETATM    5  H   UNL     1      -9.506  13.350  65.569  1.00  0.00     0.000 HD 
ENDROOT
BRANCH   3   6
HETATM    6  C   UNL     1      -9.459  15.463  65.888  1.00  0.00    -0.334 C  
BRANCH   6   7
HETATM    7  C   UNL     1     -10.759  15.656  65.118  1.00  0.00    -0.463 C  
BRANCH   7   8
HETATM    8  C   UNL     1     -11.741  14.542  65.451  1.00  0.00    -0.354 C  
HETATM    9  S   UNL     1     -11.839  13.340  64.138  1.00  0.00    -0.464 S  
HETATM   10  O   UNL     1     -10.607  12.595  64.049  1.00  0.00    -0.380 OA 
HETATM   11  O   UNL     1     -12.482  13.935  62.988  1.00  0.00    -0.689 OA 
HETATM   12  O   UNL     1     -12.956  12.388  64.812  1.00  0.00    -0.786 OA 
ENDBRANCH   7   8
ENDBRANCH   6   7
ENDBRANCH   3   6
TORSDOF 3
ENDMDL
MODEL       36
REMARK 921   NORMALIZED FREE ENERGY PREDICTED BY IDOCK:   -3.97 KCAL/MOL
REMARK 922        TOTAL FREE ENERGY PREDICTED BY IDOCK:   -4.78 KCAL/MOL
REMARK 923 INTER-LIGAND FREE ENERGY PREDICTED BY IDOCK:   -4.37 KCAL/MOL
REMARK 924 INTRA-LIGAND FREE ENERGY PREDICTED BY IDOCK:   -0.41 KCAL/MOL
REMARK 927      BINDING AFFINITY PREDICTED BY RF-SCORE:    0.00 PKD
ROOT
HETATM    1  C   UNL     1     -11.882   9.641  70.708  1.00  0.00    -0.378 C  
HETATM    2  C   UNL     1     -12.347  11.020  71.088  1.00  0.00    -0.359 C  
HETATM    3  N   UNL     1     -11.727  12.022  70.378  1.00  0.00    -0.525 N  
HETATM    4  O   UNL     1     -13.191  11.219  71.956  1.00  0.00    -0.506 OA 
HETATM    5  H   UNL     1     -11.031  11.776  69.675  1.00  0.00     0.000 HD 
ENDROOT
BRANCH   3   6
HETATM    6  C   UNL     1     -12.039  13.417  70.604  1.00  0.00    -0.295 C  
BRANCH   6   7
HETATM    7  C   UNL     1     -12.282  14.161  69.298  1.00  0.00    -0.308 C  
BRANCH   7   8
HETATM    8  C   UNL     1     -11.119  13.944  68.342  1.00  0.00    -0.255 C  
HETATM    9  S   UNL     1     -11.630  13.070  66.874  1.00  0.00    -0.385 S  
HETATM   10  O   UNL     1     -12.487  13.905  66.069  1.00  0.00    -0.463 OA 
HETATM   11  O   UNL     1     -11.959  11.704  67.217  1.00  0.00    -0.627 OA 
HETATM   12  O   UNL     1     -10.183  12.998  66.161  1.00  0.00    -0.272 OA 
ENDBRANCH   7   8
ENDBRANCH   6   7
ENDBRANCH   3   6
TORSDOF 3
ENDMDL
MODEL       37
REMARK 921   NORMALIZED FREE ENERGY PREDICTED BY IDOCK:   -3.97 KCAL/MOL
REMARK 922        TOTAL FREE ENERGY PREDICTED BY IDOCK:   -4.77 KCAL/MOL
REMARK 923 INTER-LIGAND FREE ENERGY PREDICTED BY IDOCK:   -4.33 KCAL/MOL
REMARK 924 INTRA-LIGAND FREE ENERGY PREDICTED BY IDOCK:   -0.45 KCAL/MOL
REMARK 927      BINDING AFFINITY PREDICTED BY RF-SCORE:    0.00 PKD
ROOT
HETATM    1  C   UNL     1     -12.226  12.131  63.469  1.00  0.00    -0.670 C  
HETATM    2  C   UNL     1     -12.266  13.361  64.333  1.00  0.00    -0.389 C  
HETATM    3  N   UNL     1     -11.219  14.224  64.105  1.00  0.00    -0.585 N  
HETATM    4  O   UNL     1     -13.146  13.560  65.163  1.00  0.00    -0.737 OA 
HETATM    5  H   UNL     1     -10.522  13.986  63.400  1.00  0.00     0.000 HD 
ENDROOT
BRANCH   3   6
HETATM    6  C   UNL     1     -11.082  15.462  64.843  1.00  0.00    -0.423 C  
BRANCH   6   7
HETATM    7  C   UNL     1      -9.907  15.416  65.811  1.00  0.00    -0.399 C  
BRANCH   7   8
HETATM    8  C   UNL     1     -10.251  14.557  67.019  1.00  0.00    -0.262 C  
HETATM    9  S   UNL     1      -9.203  13.118  67.120  1.00  0.00    -0.234 S  
HETATM   10  O   UNL     1      -7.852  13.506  67.443  1.00  0.00    -0.163 OA 
HETATM   11  O   UNL     1      -9.525  12.211  66.040  1.00  0.00    -0.239 OA 
HETATM   12  O   UNL     1      -9.871  12.468  68.440  1.00  0.00    -0.225 OA 
ENDBRANCH   7   8
ENDBRANCH   6   7
ENDBRANCH   3   6
TORSDOF 3
ENDMDL
MODEL       38
REMARK 921   NORMALIZED FREE ENERGY PREDICTED BY IDOCK:   -3.94 KCAL/MOL
REMARK 922        TOTAL FREE ENERGY PREDICTED BY IDOCK:   -4.74 KCAL/MOL
REMARK 923 INTER-LIGAND FREE ENERGY PREDICTED BY IDOCK:   -4.60 KCAL/MOL
REMARK 924 INTRA-LIGAND FREE ENERGY PREDICTED BY IDOCK:   -0.14 KCAL/MOL
REMARK 927      BINDING AFFINITY PREDICTED BY RF-SCORE:    0.00 PKD
ROOT
HETATM    1  C   UNL     1     -14.178  15.130  71.675  1.00  0.00    -0.664 C  
HETATM    2  C   UNL     1     -12.751  15.592  71.576  1.00  0.00    -0.434 C  
HETATM    3  N   UNL     1     -12.126  15.192  70.417  1.00  0.00    -0.303 N  
HETATM    4  O   UNL     1     -12.205  16.251  72.454  1.00  0.00    -0.490 OA 
HETATM    5  H   UNL     1     -12.646  14.640  69.736  1.00  0.00     0.000 HD 
ENDROOT
BRANCH   3   6
HETATM    6  C   UNL     1     -10.747  15.536  70.141  1.00  0.00    -0.329 C  
BRANCH   6   7
HETATM    7  C   UNL     1     -10.629  16.887  69.449  1.00  0.00    -0.292 C  
BRANCH   7   8
HETATM    8  C   UNL     1     -10.733  16.719  67.941  1.00  0.00    -0.347 C  
HETATM    9  S   UNL     1     -10.118  18.153  67.076  1.00  0.00    -0.370 S  
HETATM   10  O   UNL     1      -8.688  18.257  67.237  1.00  0.00    -0.249 OA 
HETATM   11  O   UNL     1     -11.017  19.265  67.289  1.00  0.00    -0.483 OA 
HETATM   12  O   UNL     1     -10.420  17.636  65.577  1.00  0.00    -0.636 OA 
ENDBRANCH   7   8
ENDBRANCH   6   7
ENDBRANCH   3   6
TORSDOF 3
ENDMDL
MODEL       39
REMARK 921   NORMALIZED FREE ENERGY PREDICTED BY IDOCK:   -3.92 KCAL/MOL
REMARK 922        TOTAL FREE ENERGY PREDICTED BY IDOCK:   -4.71 KCAL/MOL
REMARK 923 INTER-LIGAND FREE ENERGY PREDICTED BY IDOCK:   -4.26 KCAL/MOL
REMARK 924 INTRA-LIGAND FREE ENERGY PREDICTED BY IDOCK:   -0.45 KCAL/MOL
REMARK 927      BINDING AFFINITY PREDICTED BY RF-SCORE:    0.00 PKD
ROOT
HETATM    1  C   UNL     1      -8.147  15.532  67.026  1.00  0.00    -0.272 C  
HETATM    2  C   UNL     1      -8.622  14.134  67.309  1.00  0.00    -0.218 C  
HETATM    3  N   UNL     1      -8.957  13.430  66.175  1.00  0.00    -0.440 N  
HETATM    4  O   UNL     1      -8.708  13.680  68.445  1.00  0.00    -0.176 OA 
HETATM    5  H   UNL     1      -8.862  13.879  65.265  1.00  0.00     0.000 HD 
ENDROOT
BRANCH   3   6
HETATM    6  C   UNL     1      -9.439  12.067  66.243  1.00  0.00    -0.229 C  
BRANCH   6   7
HETATM    7  C   UNL     1     -10.961  12.007  66.280  1.00  0.00    -0.340 C  
BRANCH   7   8
HETATM    8  C   UNL     1     -11.533  12.259  64.893  1.00  0.00    -0.332 C  
HETATM    9  S   UNL     1     -12.181  13.913  64.740  1.00  0.00    -0.410 S  
HETATM   10  O   UNL     1     -11.107  14.875  64.766  1.00  0.00    -0.391 OA 
HETATM   11  O   UNL     1     -13.371  14.040  65.553  1.00  0.00    -0.673 OA 
HETATM   12  O   UNL     1     -12.710  13.788  63.220  1.00  0.00    -0.783 OA 
ENDBRANCH   7   8
ENDBRANCH   6   7
ENDBRANCH   3   6
TORSDOF 3
ENDMDL
MODEL       40
REMARK 921   NORMALIZED FREE ENERGY PREDICTED BY IDOCK:   -3.91 KCAL/MOL
REMARK 922        TOTAL FREE ENERGY PREDICTED BY IDOCK:   -4.70 KCAL/MOL
REMARK 923 INTER-LIGAND FREE ENERGY PREDICTED BY IDOCK:   -4.30 KCAL/MOL
REMARK 924 INTRA-LIGAND FREE ENERGY PREDICTED BY IDOCK:   -0.41 KCAL/MOL
REMARK 927      BINDING AFFINITY PREDICTED BY RF-SCORE:    0.00 PKD
ROOT
HETATM    1  C   UNL     1      -9.503   9.238  66.582  1.00  0.00    -0.246 C  
HETATM    2  C   UNL     1      -9.228   9.938  65.280  1.00  0.00    -0.226 C  
HETATM    3  N   UNL     1     -10.319  10.611  64.779  1.00  0.00    -0.327 N  
HETATM    4  O   UNL     1      -8.136   9.896  64.722  1.00  0.00    -0.136 OA 
HETATM    5  H   UNL     1     -11.195  10.594  65.299  1.00  0.00     0.000 HD 
ENDROOT
BRANCH   3   6
HETATM    6  C   UNL     1     -10.252  11.343  63.532  1.00  0.00    -0.413 C  
BRANCH   6   7
HETATM    7  C   UNL     1     -11.141  12.580  63.554  1.00  0.00    -0.497 C  
BRANCH   7   8
HETATM    8  C   UNL     1     -10.749  13.491  64.707  1.00  0.00    -0.401 C  
HETATM    9  S   UNL     1     -11.980  13.483  65.998  1.00  0.00    -0.433 S  
HETATM   10  O   UNL     1     -11.998  12.202  66.662  1.00  0.00    -0.616 OA 
HETATM   11  O   UNL     1     -13.177  14.140  65.526  1.00  0.00    -0.688 OA 
HETATM   12  O   UNL     1     -11.261  14.547  66.976  1.00  0.00    -0.315 OA 
ENDBRANCH   7   8
ENDBRANCH   6   7
ENDBRANCH   3   6
TORSDOF 3
ENDMDL
MODEL       41
REMARK 921   NORMALIZED FREE ENERGY PREDICTED BY IDOCK:   -3.90 KCAL/MOL
REMARK 922        TOTAL FREE ENERGY PREDICTED BY IDOCK:   -4.70 KCAL/MOL
REMARK 923 INTER-LIGAND FREE ENERGY PREDICTED BY IDOCK:   -4.35 KCAL/MOL
REMARK 924 INTRA-LIGAND FREE ENERGY PREDICTED BY IDOCK:   -0.34 KCAL/MOL
REMARK 927      BINDING AFFINITY PREDICTED BY RF-SCORE:    0.00 PKD
ROOT
HETATM    1  C   UNL     1     -12.184  13.847  64.407  1.00  0.00    -0.449 C  
HETATM    2  C   UNL     1     -11.137  14.247  65.409  1.00  0.00    -0.327 C  
HETATM    3  N   UNL     1     -11.650  14.539  66.652  1.00  0.00    -0.371 N  
HETATM    4  O   UNL     1      -9.944  14.313  65.130  1.00  0.00    -0.348 OA 
HETATM    5  H   UNL     1     -12.655  14.465  66.804  1.00  0.00     0.000 HD 
ENDROOT
BRANCH   3   6
HETATM    6  C   UNL     1     -10.799  14.947  67.748  1.00  0.00    -0.286 C  
BRANCH   6   7
HETATM    7  C   UNL     1     -10.970  16.424  68.077  1.00  0.00    -0.327 C  
BRANCH   7   8
HETATM    8  C   UNL     1      -9.810  17.229  67.511  1.00  0.00    -0.275 C  
HETATM    9  S   UNL     1     -10.372  18.474  66.365  1.00  0.00    -0.416 S  
HETATM   10  O   UNL     1     -11.099  19.505  67.064  1.00  0.00    -0.424 OA 
HETATM   11  O   UNL     1     -10.870  17.835  65.167  1.00  0.00    -0.671 OA 
HETATM   12  O   UNL     1      -8.921  19.061  65.968  1.00  0.00    -0.456 OA 
ENDBRANCH   7   8
ENDBRANCH   6   7
ENDBRANCH   3   6
TORSDOF 3
ENDMDL
MODEL       42
REMARK 921   NORMALIZED FREE ENERGY PREDICTED BY IDOCK:   -3.90 KCAL/MOL
REMARK 922        TOTAL FREE ENERGY PREDICTED BY IDOCK:   -4.69 KCAL/MOL
REMARK 923 INTER-LIGAND FREE ENERGY PREDICTED BY IDOCK:   -4.57 KCAL/MOL
REMARK 924 INTRA-LIGAND FREE ENERGY PREDICTED BY IDOCK:   -0.12 KCAL/MOL
REMARK 927      BINDING AFFINITY PREDICTED BY RF-SCORE:    0.00 PKD
ROOT
HETATM    1  C   UNL     1     -12.193  14.320  64.272  1.00  0.00    -0.451 C  
HETATM    2  C   UNL     1     -11.354  15.527  64.589  1.00  0.00    -0.357 C  
HETATM    3  N   UNL     1     -10.524  15.348  65.672  1.00  0.00    -0.344 N  
HETATM    4  O   UNL     1     -11.419  16.568  63.945  1.00  0.00    -1.145 OA 
HETATM    5  H   UNL     1     -10.531  14.453  66.161  1.00  0.00     0.000 HD 
ENDROOT
BRANCH   3   6
HETATM    6  C   UNL     1      -9.642  16.397  66.135  1.00  0.00    -0.325 C  
BRANCH   6   7
HETATM    7  C   UNL     1     -10.316  17.287  67.171  1.00  0.00    -0.321 C  
BRANCH   7   8
HETATM    8  C   UNL     1      -9.275  17.915  68.085  1.00  0.00    -0.278 C  
HETATM    9  S   UNL     1      -8.749  19.509  67.483  1.00  0.00    -0.316 S  
HETATM   10  O   UNL     1      -9.822  20.466  67.601  1.00  0.00    -0.415 OA 
HETATM   11  O   UNL     1      -7.979  19.336  66.272  1.00  0.00    -0.289 OA 
HETATM   12  O   UNL     1      -7.667  19.821  68.641  1.00  0.00    -0.329 OA 
ENDBRANCH   7   8
ENDBRANCH   6   7
ENDBRANCH   3   6
TORSDOF 3
ENDMDL
MODEL       43
REMARK 921   NORMALIZED FREE ENERGY PREDICTED BY IDOCK:   -3.89 KCAL/MOL
REMARK 922        TOTAL FREE ENERGY PREDICTED BY IDOCK:   -4.68 KCAL/MOL
REMARK 923 INTER-LIGAND FREE ENERGY PREDICTED BY IDOCK:   -4.53 KCAL/MOL
REMARK 924 INTRA-LIGAND FREE ENERGY PREDICTED BY IDOCK:   -0.15 KCAL/MOL
REMARK 927      BINDING AFFINITY PREDICTED BY RF-SCORE:    0.00 PKD
ROOT
HETATM    1  C   UNL     1      -6.893  16.965  67.295  1.00  0.00    -0.198 C  
HETATM    2  C   UNL     1      -8.238  16.846  66.634  1.00  0.00    -0.257 C  
HETATM    3  N   UNL     1      -9.008  15.823  67.138  1.00  0.00    -0.205 N  
HETATM    4  O   UNL     1      -8.599  17.588  65.727  1.00  0.00    -0.521 OA 
HETATM    5  H   UNL     1      -8.635  15.245  67.891  1.00  0.00     0.000 HD 
ENDROOT
BRANCH   3   6
HETATM    6  C   UNL     1     -10.333  15.548  66.628  1.00  0.00    -0.286 C  
BRANCH   6   7
HETATM    7  C   UNL     1     -10.313  14.467  65.554  1.00  0.00    -0.382 C  
BRANCH   7   8
HETATM    8  C   UNL     1     -11.562  13.603  65.651  1.00  0.00    -0.328 C  
HETATM    9  S   UNL     1     -12.019  12.932  64.064  1.00  0.00    -0.487 S  
HETATM   10  O   UNL     1     -11.049  11.954  63.636  1.00  0.00    -0.379 OA 
HETATM   11  O   UNL     1     -12.491  13.998  63.208  1.00  0.00    -0.795 OA 
HETATM   12  O   UNL     1     -13.346  12.148  64.546  1.00  0.00    -0.691 OA 
ENDBRANCH   7   8
ENDBRANCH   6   7
ENDBRANCH   3   6
TORSDOF 3
ENDMDL
MODEL       44
REMARK 921   NORMALIZED FREE ENERGY PREDICTED BY IDOCK:   -3.84 KCAL/MOL
REMARK 922        TOTAL FREE ENERGY PREDICTED BY IDOCK:   -4.62 KCAL/MOL
REMARK 923 INTER-LIGAND FREE ENERGY PREDICTED BY IDOCK:   -4.42 KCAL/MOL
REMARK 924 INTRA-LIGAND FREE ENERGY PREDICTED BY IDOCK:   -0.20 KCAL/MOL
REMARK 927      BINDING AFFINITY PREDICTED BY RF-SCORE:    0.00 PKD
ROOT
HETATM    1  C   UNL     1     -14.266   7.458  71.492  1.00  0.00    -0.571 C  
HETATM    2  C   UNL     1     -13.350   8.609  71.801  1.00  0.00    -0.374 C  
HETATM    3  N   UNL     1     -13.551   9.701  70.989  1.00  0.00    -0.529 N  
HETATM    4  O   UNL     1     -12.503   8.563  72.687  1.00  0.00    -0.370 OA 
HETATM    5  H   UNL     1     -14.272   9.661  70.270  1.00  0.00     0.000 HD 
ENDROOT
BRANCH   3   6
HETATM    6  C   UNL     1     -12.763  10.907  71.129  1.00  0.00    -0.429 C  
BRANCH   6   7
HETATM    7  C   UNL     1     -11.542  10.895  70.217  1.00  0.00    -0.426 C  
BRANCH   7   8
HETATM    8  C   UNL     1     -11.971  10.977  68.760  1.00  0.00    -0.225 C  
HETATM    9  S   UNL     1     -11.431  12.497  68.001  1.00  0.00    -0.338 S  
HETATM   10  O   UNL     1      -9.995  12.502  67.860  1.00  0.00    -0.200 OA 
HETATM   11  O   UNL     1     -12.169  13.605  68.565  1.00  0.00    -0.342 OA 
HETATM   12  O   UNL     1     -12.080  12.244  66.545  1.00  0.00    -0.616 OA 
ENDBRANCH   7   8
ENDBRANCH   6   7
ENDBRANCH   3   6
TORSDOF 3
ENDMDL
MODEL       45
REMARK 921   NORMALIZED FREE ENERGY PREDICTED BY IDOCK:   -3.84 KCAL/MOL
REMARK 922        TOTAL FREE ENERGY PREDICTED BY IDOCK:   -4.62 KCAL/MOL
REMARK 923 INTER-LIGAND FREE ENERGY PREDICTED BY IDOCK:   -4.50 KCAL/MOL
REMARK 924 INTRA-LIGAND FREE ENERGY PREDICTED BY IDOCK:   -0.12 KCAL/MOL
REMARK 927      BINDING AFFINITY PREDICTED BY RF-SCORE:    0.00 PKD
ROOT
HETATM    1  C   UNL     1     -14.112   8.694  71.658  1.00  0.00    -0.468 C  
HETATM    2  C   UNL     1     -12.833   9.443  71.408  1.00  0.00    -0.345 C  
HETATM    3  N   UNL     1     -12.922  10.350  70.377  1.00  0.00    -0.517 N  
HETATM    4  O   UNL     1     -11.812   9.248  72.059  1.00  0.00    -0.363 OA 
HETATM    5  H   UNL     1     -13.806  10.451  69.879  1.00  0.00     0.000 HD 
ENDROOT
BRANCH   3   6
HETATM    6  C   UNL     1     -11.793  11.165  69.983  1.00  0.00    -0.361 C  
BRANCH   6   7
HETATM    7  C   UNL     1     -12.106  12.652  70.083  1.00  0.00    -0.368 C  
BRANCH   7   8
HETATM    8  C   UNL     1     -12.792  12.959  71.406  1.00  0.00    -0.283 C  
HETATM    9  S   UNL     1     -12.772  14.706  71.766  1.00  0.00    -0.355 S  
HETATM   10  O   UNL     1     -13.630  15.414  70.847  1.00  0.00    -0.444 OA 
HETATM   11  O   UNL     1     -11.419  15.121  72.058  1.00  0.00    -0.420 OA 
HETATM   12  O   UNL     1     -13.518  14.631  73.196  1.00  0.00    -0.581 OA 
ENDBRANCH   7   8
ENDBRANCH   6   7
ENDBRANCH   3   6
TORSDOF 3
ENDMDL
MODEL       46
REMARK 921   NORMALIZED FREE ENERGY PREDICTED BY IDOCK:   -3.83 KCAL/MOL
REMARK 922        TOTAL FREE ENERGY PREDICTED BY IDOCK:   -4.61 KCAL/MOL
REMARK 923 INTER-LIGAND FREE ENERGY PREDICTED BY IDOCK:   -4.16 KCAL/MOL
REMARK 924 INTRA-LIGAND FREE ENERGY PREDICTED BY IDOCK:   -0.45 KCAL/MOL
REMARK 927      BINDING AFFINITY PREDICTED BY RF-SCORE:    0.00 PKD
ROOT
HETATM    1  C   UNL     1      -9.549  16.766  66.385  1.00  0.00    -0.303 C  
HETATM    2  C   UNL     1     -10.310  15.940  67.385  1.00  0.00    -0.288 C  
HETATM    3  N   UNL     1     -10.124  14.585  67.230  1.00  0.00    -0.246 N  
HETATM    4  O   UNL     1     -11.032  16.436  68.244  1.00  0.00    -0.336 OA 
HETATM    5  H   UNL     1      -9.512  14.249  66.488  1.00  0.00     0.000 HD 
ENDROOT
BRANCH   3   6
HETATM    6  C   UNL     1     -10.777  13.626  68.095  1.00  0.00    -0.248 C  
BRANCH   6   7
HETATM    7  C   UNL     1     -11.884  12.871  67.371  1.00  0.00    -0.418 C  
BRANCH   7   8
HETATM    8  C   UNL     1     -11.299  12.020  66.254  1.00  0.00    -0.357 C  
HETATM    9  S   UNL     1     -11.843  12.577  64.650  1.00  0.00    -0.397 S  
HETATM   10  O   UNL     1     -11.260  13.860  64.343  1.00  0.00    -0.373 OA 
HETATM   11  O   UNL     1     -13.253  12.297  64.496  1.00  0.00    -0.799 OA 
HETATM   12  O   UNL     1     -11.083  11.455  63.772  1.00  0.00    -0.392 OA 
ENDBRANCH   7   8
ENDBRANCH   6   7
ENDBRANCH   3   6
TORSDOF 3
ENDMDL
MODEL       47
REMARK 921   NORMALIZED FREE ENERGY PREDICTED BY IDOCK:   -3.81 KCAL/MOL
REMARK 922        TOTAL FREE ENERGY PREDICTED BY IDOCK:   -4.58 KCAL/MOL
REMARK 923 INTER-LIGAND FREE ENERGY PREDICTED BY IDOCK:   -4.17 KCAL/MOL
REMARK 924 INTRA-LIGAND FREE ENERGY PREDICTED BY IDOCK:   -0.41 KCAL/MOL
REMARK 927      BINDING AFFINITY PREDICTED BY RF-SCORE:    0.00 PKD
ROOT
HETATM    1  C   UNL     1      -8.189  10.566  66.530  1.00  0.00    -0.133 C  
HETATM    2  C   UNL     1      -9.205  11.231  67.416  1.00  0.00    -0.162 C  
HETATM    3  N   UNL     1      -9.470  12.535  67.062  1.00  0.00    -0.210 N  
HETATM    4  O   UNL     1      -9.732  10.661  68.365  1.00  0.00    -0.155 OA 
HETATM    5  H   UNL     1      -8.986  12.941  66.262  1.00  0.00     0.000 HD 
ENDROOT
BRANCH   3   6
HETATM    6  C   UNL     1     -10.417  13.343  67.799  1.00  0.00    -0.243 C  
BRANCH   6   7
HETATM    7  C   UNL     1     -11.847  13.109  67.327  1.00  0.00    -0.420 C  
BRANCH   7   8
HETATM    8  C   UNL     1     -12.201  14.081  66.212  1.00  0.00    -0.462 C  
HETATM    9  S   UNL     1     -12.207  13.279  64.620  1.00  0.00    -0.408 S  
HETATM   10  O   UNL     1     -13.310  12.354  64.530  1.00  0.00    -0.800 OA 
HETATM   11  O   UNL     1     -10.853  12.926  64.254  1.00  0.00    -0.350 OA 
HETATM   12  O   UNL     1     -12.567  14.580  63.734  1.00  0.00    -0.825 OA 
ENDBRANCH   7   8
ENDBRANCH   6   7
ENDBRANCH   3   6
TORSDOF 3
ENDMDL
MODEL       48
REMARK 921   NORMALIZED FREE ENERGY PREDICTED BY IDOCK:   -3.80 KCAL/MOL
REMARK 922        TOTAL FREE ENERGY PREDICTED BY IDOCK:   -4.58 KCAL/MOL
REMARK 923 INTER-LIGAND FREE ENERGY PREDICTED BY IDOCK:   -4.37 KCAL/MOL
REMARK 924 INTRA-LIGAND FREE ENERGY PREDICTED BY IDOCK:   -0.21 KCAL/MOL
REMARK 927      BINDING AFFINITY PREDICTED BY RF-SCORE:    0.00 PKD
ROOT
HETATM    1  C   UNL     1      -9.869  10.760  68.536  1.00  0.00    -0.182 C  
HETATM    2  C   UNL     1     -11.030  11.686  68.303  1.00  0.00    -0.226 C  
HETATM    3  N   UNL     1     -10.689  13.018  68.362  1.00  0.00    -0.249 N  
HETATM    4  O   UNL     1     -12.169  11.282  68.093  1.00  0.00    -0.622 OA 
HETATM    5  H   UNL     1      -9.720  13.275  68.547  1.00  0.00     0.000 HD 
ENDROOT
BRANCH   3   6
HETATM    6  C   UNL     1     -11.671  14.062  68.168  1.00  0.00    -0.352 C  
BRANCH   6   7
HETATM    7  C   UNL     1     -11.646  14.606  66.745  1.00  0.00    -0.370 C  
BRANCH   7   8
HETATM    8  C   UNL     1     -10.251  15.104  66.395  1.00  0.00    -0.281 C  
HETATM    9  S   UNL     1     -10.263  16.833  65.959  1.00  0.00    -0.317 S  
HETATM   10  O   UNL     1     -10.553  17.639  67.119  1.00  0.00    -0.339 OA 
HETATM   11  O   UNL     1     -10.940  17.005  64.693  1.00  0.00    -0.968 OA 
HETATM   12  O   UNL     1      -8.689  16.974  65.628  1.00  0.00    -0.468 OA 
ENDBRANCH   7   8
ENDBRANCH   6   7
ENDBRANCH   3   6
TORSDOF 3
ENDMDL
MODEL       49
REMARK 921   NORMALIZED FREE ENERGY PREDICTED BY IDOCK:   -3.79 KCAL/MOL
REMARK 922        TOTAL FREE ENERGY PREDICTED BY IDOCK:   -4.57 KCAL/MOL
REMARK 923 INTER-LIGAND FREE ENERGY PREDICTED BY IDOCK:   -4.49 KCAL/MOL
REMARK 924 INTRA-LIGAND FREE ENERGY PREDICTED BY IDOCK:   -0.08 KCAL/MOL
REMARK 927      BINDING AFFINITY PREDICTED BY RF-SCORE:    0.00 PKD
ROOT
HETATM    1  C   UNL     1     -12.418  11.980  63.365  1.00  0.00    -0.625 C  
HETATM    2  C   UNL     1     -12.398  13.239  64.187  1.00  0.00    -0.341 C  
HETATM    3  N   UNL     1     -12.178  13.015  65.526  1.00  0.00    -0.447 N  
HETATM    4  O   UNL     1     -12.574  14.351  63.700  1.00  0.00    -0.817 OA 
HETATM    5  H   UNL     1     -12.046  12.060  65.855  1.00  0.00     0.000 HD 
ENDROOT
BRANCH   3   6
HETATM    6  C   UNL     1     -12.128  14.103  66.480  1.00  0.00    -0.454 C  
BRANCH   6   7
HETATM    7  C   UNL     1     -11.847  13.605  67.892  1.00  0.00    -0.402 C  
BRANCH   7   8
HETATM    8  C   UNL     1     -10.490  14.103  68.367  1.00  0.00    -0.254 C  
HETATM    9  S   UNL     1     -10.623  15.675  69.197  1.00  0.00    -0.256 S  
HETATM   10  O   UNL     1     -11.308  15.518  70.457  1.00  0.00    -0.288 OA 
HETATM   11  O   UNL     1     -10.968  16.699  68.237  1.00  0.00    -0.350 OA 
HETATM   12  O   UNL     1      -9.050  15.882  69.501  1.00  0.00    -0.256 OA 
ENDBRANCH   7   8
ENDBRANCH   6   7
ENDBRANCH   3   6
TORSDOF 3
ENDMDL
MODEL       50
REMARK 921   NORMALIZED FREE ENERGY PREDICTED BY IDOCK:   -3.77 KCAL/MOL
REMARK 922        TOTAL FREE ENERGY PREDICTED BY IDOCK:   -4.54 KCAL/MOL
REMARK 923 INTER-LIGAND FREE ENERGY PREDICTED BY IDOCK:   -4.39 KCAL/MOL
REMARK 924 INTRA-LIGAND FREE ENERGY PREDICTED BY IDOCK:   -0.14 KCAL/MOL
REMARK 927      BINDING AFFINITY PREDICTED BY RF-SCORE:    0.00 PKD
ROOT
HETATM    1  C   UNL     1      -7.449   7.285  64.082  1.00  0.00    -0.099 C  
HETATM    2  C   UNL     1      -7.745   8.748  63.901  1.00  0.00    -0.132 C  
HETATM    3  N   UNL     1      -8.857   8.990  63.127  1.00  0.00    -0.426 N  
HETATM    4  O   UNL     1      -7.048   9.631  64.391  1.00  0.00    -0.107 OA 
HETATM    5  H   UNL     1      -9.382   8.202  62.750  1.00  0.00     0.000 HD 
ENDROOT
BRANCH   3   6
HETATM    6  C   UNL     1      -9.300  10.337  62.836  1.00  0.00    -0.311 C  
BRANCH   6   7
HETATM    7  C   UNL     1     -10.263  10.857  63.895  1.00  0.00    -0.418 C  
BRANCH   7   8
HETATM    8  C   UNL     1     -10.731  12.260  63.540  1.00  0.00    -0.451 C  
HETATM    9  S   UNL     1     -12.438  12.516  63.988  1.00  0.00    -0.412 S  
HETATM   10  O   UNL     1     -12.580  12.541  65.423  1.00  0.00    -0.656 OA 
HETATM   11  O   UNL     1     -13.285  11.720  63.127  1.00  0.00    -0.538 OA 
HETATM   12  O   UNL     1     -12.570  14.030  63.442  1.00  0.00    -0.845 OA 
ENDBRANCH   7   8
ENDBRANCH   6   7
ENDBRANCH   3   6
TORSDOF 3
ENDMDL
MODEL       51
REMARK 921   NORMALIZED FREE ENERGY PREDICTED BY IDOCK:   -3.76 KCAL/MOL
REMARK 922        TOTAL FREE ENERGY PREDICTED BY IDOCK:   -4.53 KCAL/MOL
REMARK 923 INTER-LIGAND FREE ENERGY PREDICTED BY IDOCK:   -4.11 KCAL/MOL
REMARK 924 INTRA-LIGAND FREE ENERGY PREDICTED BY IDOCK:   -0.42 KCAL/MOL
REMARK 927      BINDING AFFINITY PREDICTED BY RF-SCORE:    0.00 PKD
ROOT
HETATM    1  C   UNL     1      -8.388  16.284  66.535  1.00  0.00    -0.343 C  
HETATM    2  C   UNL     1      -9.692  16.173  65.794  1.00  0.00    -0.290 C  
HETATM    3  N   UNL     1     -10.024  14.880  65.462  1.00  0.00    -0.359 N  
HETATM    4  O   UNL     1     -10.377  17.149  65.509  1.00  0.00    -0.599 OA 
HETATM    5  H   UNL     1      -9.399  14.121  65.730  1.00  0.00     0.000 HD 
ENDROOT
BRANCH   3   6
HETATM    6  C   UNL     1     -11.241  14.570  64.742  1.00  0.00    -0.390 C  
BRANCH   6   7
HETATM    7  C   UNL     1     -12.150  13.644  65.539  1.00  0.00    -0.440 C  
BRANCH   7   8
HETATM    8  C   UNL     1     -11.593  12.228  65.538  1.00  0.00    -0.371 C  
HETATM    9  S   UNL     1     -10.976  11.764  67.145  1.00  0.00    -0.293 S  
HETATM   10  O   UNL     1     -12.067  11.622  68.077  1.00  0.00    -0.597 OA 
HETATM   11  O   UNL     1      -9.783  12.525  67.441  1.00  0.00    -0.190 OA 
HETATM   12  O   UNL     1     -10.457  10.287  66.749  1.00  0.00    -0.234 OA 
ENDBRANCH   7   8
ENDBRANCH   6   7
ENDBRANCH   3   6
TORSDOF 3
ENDMDL
MODEL       52
REMARK 921   NORMALIZED FREE ENERGY PREDICTED BY IDOCK:   -3.76 KCAL/MOL
REMARK 922        TOTAL FREE ENERGY PREDICTED BY IDOCK:   -4.53 KCAL/MOL
REMARK 923 INTER-LIGAND FREE ENERGY PREDICTED BY IDOCK:   -4.18 KCAL/MOL
REMARK 924 INTRA-LIGAND FREE ENERGY PREDICTED BY IDOCK:   -0.34 KCAL/MOL
REMARK 927      BINDING AFFINITY PREDICTED BY RF-SCORE:    0.00 PKD
ROOT
HETATM    1  C   UNL     1     -11.795  11.293  70.195  1.00  0.00    -0.449 C  
HETATM    2  C   UNL     1     -12.829  10.750  71.142  1.00  0.00    -0.414 C  
HETATM    3  N   UNL     1     -13.136   9.428  70.919  1.00  0.00    -0.555 N  
HETATM    4  O   UNL     1     -13.349  11.433  72.018  1.00  0.00    -0.467 OA 
HETATM    5  H   UNL     1     -12.663   8.928  70.167  1.00  0.00     0.000 HD 
ENDROOT
BRANCH   3   6
HETATM    6  C   UNL     1     -14.112   8.728  71.726  1.00  0.00    -0.401 C  
BRANCH   6   7
HETATM    7  C   UNL     1     -13.841   7.230  71.770  1.00  0.00    -0.420 C  
BRANCH   7   8
HETATM    8  C   UNL     1     -12.509   6.915  71.107  1.00  0.00    -0.349 C  
HETATM    9  S   UNL     1     -11.210   6.704  72.311  1.00  0.00    -0.279 S  
HETATM   10  O   UNL     1     -11.425   5.496  73.071  1.00  0.00    -0.291 OA 
HETATM   11  O   UNL     1     -10.914   7.978  72.927  1.00  0.00    -0.378 OA 
HETATM   12  O   UNL     1     -10.005   6.437  71.271  1.00  0.00    -0.181 OA 
ENDBRANCH   7   8
ENDBRANCH   6   7
ENDBRANCH   3   6
TORSDOF 3
ENDMDL
MODEL       53
REMARK 921   NORMALIZED FREE ENERGY PREDICTED BY IDOCK:   -3.76 KCAL/MOL
REMARK 922        TOTAL FREE ENERGY PREDICTED BY IDOCK:   -4.52 KCAL/MOL
REMARK 923 INTER-LIGAND FREE ENERGY PREDICTED BY IDOCK:   -4.33 KCAL/MOL
REMARK 924 INTRA-LIGAND FREE ENERGY PREDICTED BY IDOCK:   -0.19 KCAL/MOL
REMARK 927      BINDING AFFINITY PREDICTED BY RF-SCORE:    0.00 PKD
ROOT
HETATM    1  C   UNL     1      -6.308  16.794  67.147  1.00  0.00    -0.223 C  
HETATM    2  C   UNL     1      -7.791  17.012  67.255  1.00  0.00    -0.174 C  
HETATM    3  N   UNL     1      -8.497  16.520  66.181  1.00  0.00    -0.319 N  
HETATM    4  O   UNL     1      -8.310  17.583  68.209  1.00  0.00    -0.247 OA 
HETATM    5  H   UNL     1      -7.993  16.061  65.423  1.00  0.00     0.000 HD 
ENDROOT
BRANCH   3   6
HETATM    6  C   UNL     1      -9.937  16.638  66.101  1.00  0.00    -0.337 C  
BRANCH   6   7
HETATM    7  C   UNL     1     -10.634  15.342  66.498  1.00  0.00    -0.306 C  
BRANCH   7   8
HETATM    8  C   UNL     1     -10.688  14.388  65.315  1.00  0.00    -0.375 C  
HETATM    9  S   UNL     1     -12.284  14.417  64.521  1.00  0.00    -0.421 S  
HETATM   10  O   UNL     1     -12.489  15.681  63.856  1.00  0.00    -0.693 OA 
HETATM   11  O   UNL     1     -13.268  13.821  65.397  1.00  0.00    -0.722 OA 
HETATM   12  O   UNL     1     -11.976  13.300  63.396  1.00  0.00    -0.519 OA 
ENDBRANCH   7   8
ENDBRANCH   6   7
ENDBRANCH   3   6
TORSDOF 3
ENDMDL
MODEL       54
REMARK 921   NORMALIZED FREE ENERGY PREDICTED BY IDOCK:   -3.73 KCAL/MOL
REMARK 922        TOTAL FREE ENERGY PREDICTED BY IDOCK:   -4.49 KCAL/MOL
REMARK 923 INTER-LIGAND FREE ENERGY PREDICTED BY IDOCK:   -4.20 KCAL/MOL
REMARK 924 INTRA-LIGAND FREE ENERGY PREDICTED BY IDOCK:   -0.30 KCAL/MOL
REMARK 927      BINDING AFFINITY PREDICTED BY RF-SCORE:    0.00 PKD
ROOT
HETATM    1  C   UNL     1     -13.101  15.356  70.900  1.00  0.00    -0.528 C  
HETATM    2  C   UNL     1     -12.564  14.116  70.241  1.00  0.00    -0.306 C  
HETATM    3  N   UNL     1     -12.483  14.215  68.872  1.00  0.00    -0.490 N  
HETATM    4  O   UNL     1     -12.242  13.116  70.874  1.00  0.00    -0.358 OA 
HETATM    5  H   UNL     1     -12.774  15.080  68.417  1.00  0.00     0.000 HD 
ENDROOT
BRANCH   3   6
HETATM    6  C   UNL     1     -11.993  13.122  68.059  1.00  0.00    -0.304 C  
BRANCH   6   7
HETATM    7  C   UNL     1     -10.712  13.494  67.324  1.00  0.00    -0.272 C  
BRANCH   7   8
HETATM    8  C   UNL     1     -11.033  14.319  66.087  1.00  0.00    -0.313 C  
HETATM    9  S   UNL     1     -10.270  15.929  66.155  1.00  0.00    -0.344 S  
HETATM   10  O   UNL     1      -8.837  15.807  66.033  1.00  0.00    -0.327 OA 
HETATM   11  O   UNL     1     -10.907  16.720  67.184  1.00  0.00    -0.236 OA 
HETATM   12  O   UNL     1     -10.849  16.492  64.757  1.00  0.00    -0.720 OA 
ENDBRANCH   7   8
ENDBRANCH   6   7
ENDBRANCH   3   6
TORSDOF 3
ENDMDL
MODEL       55
REMARK 921   NORMALIZED FREE ENERGY PREDICTED BY IDOCK:   -3.72 KCAL/MOL
REMARK 922        TOTAL FREE ENERGY PREDICTED BY IDOCK:   -4.48 KCAL/MOL
REMARK 923 INTER-LIGAND FREE ENERGY PREDICTED BY IDOCK:   -4.31 KCAL/MOL
REMARK 924 INTRA-LIGAND FREE ENERGY PREDICTED BY IDOCK:   -0.17 KCAL/MOL
REMARK 927      BINDING AFFINITY PREDICTED BY RF-SCORE:    0.00 PKD
ROOT
HETATM    1  C   UNL     1     -10.286  19.042  66.205  1.00  0.00    -0.537 C  
HETATM    2  C   UNL     1     -10.367  18.426  67.574  1.00  0.00    -0.393 C  
HETATM    3  N   UNL     1     -10.497  17.057  67.552  1.00  0.00    -0.333 N  
HETATM    4  O   UNL     1     -10.332  19.092  68.603  1.00  0.00    -0.373 OA 
HETATM    5  H   UNL     1     -10.524  16.575  66.654  1.00  0.00     0.000 HD 
ENDROOT
BRANCH   3   6
HETATM    6  C   UNL     1     -10.594  16.284  68.771  1.00  0.00    -0.298 C  
BRANCH   6   7
HETATM    7  C   UNL     1     -12.031  15.871  69.066  1.00  0.00    -0.243 C  
BRANCH   7   8
HETATM    8  C   UNL     1     -12.061  14.795  70.141  1.00  0.00    -0.327 C  
HETATM    9  S   UNL     1     -12.915  15.352  71.604  1.00  0.00    -0.469 S  
HETATM   10  O   UNL     1     -14.324  15.501  71.333  1.00  0.00    -0.531 OA 
HETATM   11  O   UNL     1     -12.128  16.371  72.261  1.00  0.00    -0.501 OA 
HETATM   12  O   UNL     1     -12.709  14.014  72.485  1.00  0.00    -0.302 OA 
ENDBRANCH   7   8
ENDBRANCH   6   7
ENDBRANCH   3   6
TORSDOF 3
ENDMDL
MODEL       56
REMARK 921   NORMALIZED FREE ENERGY PREDICTED BY IDOCK:   -3.70 KCAL/MOL
REMARK 922        TOTAL FREE ENERGY PREDICTED BY IDOCK:   -4.46 KCAL/MOL
REMARK 923 INTER-LIGAND FREE ENERGY PREDICTED BY IDOCK:   -4.34 KCAL/MOL
REMARK 924 INTRA-LIGAND FREE ENERGY PREDICTED BY IDOCK:   -0.12 KCAL/MOL
REMARK 927      BINDING AFFINITY PREDICTED BY RF-SCORE:    0.00 PKD
ROOT
HETATM    1  C   UNL     1     -13.156  11.559  71.719  1.00  0.00    -0.503 C  
HETATM    2  C   UNL     1     -13.408  13.033  71.873  1.00  0.00    -0.446 C  
HETATM    3  N   UNL     1     -12.712  13.805  70.971  1.00  0.00    -0.346 N  
HETATM    4  O   UNL     1     -14.156  13.493  72.730  1.00  0.00    -0.719 OA 
HETATM    5  H   UNL     1     -12.105  13.348  70.291  1.00  0.00     0.000 HD 
ENDROOT
BRANCH   3   6
HETATM    6  C   UNL     1     -12.820  15.248  70.963  1.00  0.00    -0.440 C  
BRANCH   6   7
HETATM    7  C   UNL     1     -11.555  15.907  70.429  1.00  0.00    -0.387 C  
BRANCH   7   8
HETATM    8  C   UNL     1     -11.578  15.937  68.908  1.00  0.00    -0.388 C  
HETATM    9  S   UNL     1     -10.296  16.990  68.253  1.00  0.00    -0.367 S  
HETATM   10  O   UNL     1      -8.999  16.406  68.492  1.00  0.00    -0.206 OA 
HETATM   11  O   UNL     1     -10.605  18.370  68.558  1.00  0.00    -0.256 OA 
HETATM   12  O   UNL     1     -10.653  16.804  66.690  1.00  0.00    -0.286 OA 
ENDBRANCH   7   8
ENDBRANCH   6   7
ENDBRANCH   3   6
TORSDOF 3
ENDMDL
MODEL       57
REMARK 921   NORMALIZED FREE ENERGY PREDICTED BY IDOCK:   -3.69 KCAL/MOL
REMARK 922        TOTAL FREE ENERGY PREDICTED BY IDOCK:   -4.45 KCAL/MOL
REMARK 923 INTER-LIGAND FREE ENERGY PREDICTED BY IDOCK:   -4.05 KCAL/MOL
REMARK 924 INTRA-LIGAND FREE ENERGY PREDICTED BY IDOCK:   -0.39 KCAL/MOL
REMARK 927      BINDING AFFINITY PREDICTED BY RF-SCORE:    0.00 PKD
ROOT
HETATM    1  C   UNL     1     -13.284  12.173  71.958  1.00  0.00    -0.496 C  
HETATM    2  C   UNL     1     -13.379  13.662  71.776  1.00  0.00    -0.388 C  
HETATM    3  N   UNL     1     -12.286  14.207  71.144  1.00  0.00    -0.355 N  
HETATM    4  O   UNL     1     -14.339  14.317  72.167  1.00  0.00    -0.511 OA 
HETATM    5  H   UNL     1     -11.523  13.596  70.853  1.00  0.00     0.000 HD 
ENDROOT
BRANCH   3   6
HETATM    6  C   UNL     1     -12.191  15.627  70.882  1.00  0.00    -0.419 C  
BRANCH   6   7
HETATM    7  C   UNL     1     -10.982  15.963  70.017  1.00  0.00    -0.361 C  
BRANCH   7   8
HETATM    8  C   UNL     1     -11.377  16.002  68.549  1.00  0.00    -0.382 C  
HETATM    9  S   UNL     1     -10.881  14.516  67.697  1.00  0.00    -0.279 S  
HETATM   10  O   UNL     1     -11.662  13.393  68.155  1.00  0.00    -0.320 OA 
HETATM   11  O   UNL     1      -9.440  14.481  67.590  1.00  0.00    -0.203 OA 
HETATM   12  O   UNL     1     -11.411  14.933  66.229  1.00  0.00    -0.337 OA 
ENDBRANCH   7   8
ENDBRANCH   6   7
ENDBRANCH   3   6
TORSDOF 3
ENDMDL
MODEL       58
REMARK 921   NORMALIZED FREE ENERGY PREDICTED BY IDOCK:   -3.68 KCAL/MOL
REMARK 922        TOTAL FREE ENERGY PREDICTED BY IDOCK:   -4.44 KCAL/MOL
REMARK 923 INTER-LIGAND FREE ENERGY PREDICTED BY IDOCK:   -4.23 KCAL/MOL
REMARK 924 INTRA-LIGAND FREE ENERGY PREDICTED BY IDOCK:   -0.21 KCAL/MOL
REMARK 927      BINDING AFFINITY PREDICTED BY RF-SCORE:    0.00 PKD
ROOT
HETATM    1  C   UNL     1      -9.866   8.121  67.381  1.00  0.00    -0.242 C  
HETATM    2  C   UNL     1      -9.087   8.938  66.387  1.00  0.00    -0.174 C  
HETATM    3  N   UNL     1      -9.839   9.910  65.768  1.00  0.00    -0.272 N  
HETATM    4  O   UNL     1      -7.900   8.740  66.152  1.00  0.00    -0.099 OA 
HETATM    5  H   UNL     1     -10.823  10.009  66.014  1.00  0.00     0.000 HD 
ENDROOT
BRANCH   3   6
HETATM    6  C   UNL     1      -9.267  10.796  64.777  1.00  0.00    -0.214 C  
BRANCH   6   7
HETATM    7  C   UNL     1     -10.154  10.914  63.544  1.00  0.00    -0.406 C  
BRANCH   7   8
HETATM    8  C   UNL     1     -10.684  12.333  63.409  1.00  0.00    -0.391 C  
HETATM    9  S   UNL     1     -12.365  12.463  63.991  1.00  0.00    -0.477 S  
HETATM   10  O   UNL     1     -12.412  12.294  65.423  1.00  0.00    -0.596 OA 
HETATM   11  O   UNL     1     -13.244  11.757  63.086  1.00  0.00    -0.538 OA 
HETATM   12  O   UNL     1     -12.577  14.030  63.662  1.00  0.00    -0.818 OA 
ENDBRANCH   7   8
ENDBRANCH   6   7
ENDBRANCH   3   6
TORSDOF 3
ENDMDL
MODEL       59
REMARK 921   NORMALIZED FREE ENERGY PREDICTED BY IDOCK:   -3.67 KCAL/MOL
REMARK 922        TOTAL FREE ENERGY PREDICTED BY IDOCK:   -4.42 KCAL/MOL
REMARK 923 INTER-LIGAND FREE ENERGY PREDICTED BY IDOCK:   -4.31 KCAL/MOL
REMARK 924 INTRA-LIGAND FREE ENERGY PREDICTED BY IDOCK:   -0.12 KCAL/MOL
REMARK 927      BINDING AFFINITY PREDICTED BY RF-SCORE:    0.00 PKD
ROOT
HETATM    1  C   UNL     1     -10.675   6.712  68.169  1.00  0.00    -0.320 C  
HETATM    2  C   UNL     1     -10.235   8.138  68.349  1.00  0.00    -0.209 C  
HETATM    3  N   UNL     1     -10.967   9.036  67.606  1.00  0.00    -0.479 N  
HETATM    4  O   UNL     1      -9.305   8.457  69.082  1.00  0.00    -0.150 OA 
HETATM    5  H   UNL     1     -11.723   8.692  67.015  1.00  0.00     0.000 HD 
ENDROOT
BRANCH   3   6
HETATM    6  C   UNL     1     -10.691  10.456  67.643  1.00  0.00    -0.286 C  
BRANCH   6   7
HETATM    7  C   UNL     1     -10.828  11.095  66.268  1.00  0.00    -0.266 C  
BRANCH   7   8
HETATM    8  C   UNL     1     -11.701  12.338  66.347  1.00  0.00    -0.365 C  
HETATM    9  S   UNL     1     -12.235  12.870  64.731  1.00  0.00    -0.462 S  
HETATM   10  O   UNL     1     -13.168  11.921  64.176  1.00  0.00    -0.645 OA 
HETATM   11  O   UNL     1     -11.100  13.381  63.994  1.00  0.00    -0.365 OA 
HETATM   12  O   UNL     1     -13.062  14.173  65.205  1.00  0.00    -0.763 OA 
ENDBRANCH   7   8
ENDBRANCH   6   7
ENDBRANCH   3   6
TORSDOF 3
ENDMDL
MODEL       60
REMARK 921   NORMALIZED FREE ENERGY PREDICTED BY IDOCK:   -3.64 KCAL/MOL
REMARK 922        TOTAL FREE ENERGY PREDICTED BY IDOCK:   -4.38 KCAL/MOL
REMARK 923 INTER-LIGAND FREE ENERGY PREDICTED BY IDOCK:   -4.05 KCAL/MOL
REMARK 924 INTRA-LIGAND FREE ENERGY PREDICTED BY IDOCK:   -0.33 KCAL/MOL
REMARK 927      BINDING AFFINITY PREDICTED BY RF-SCORE:    0.00 PKD
ROOT
HETATM    1  C   UNL     1     -10.343  16.835  65.796  1.00  0.00    -0.322 C  
HETATM    2  C   UNL     1     -11.256  16.017  64.925  1.00  0.00    -0.312 C  
HETATM    3  N   UNL     1     -11.544  14.777  65.446  1.00  0.00    -0.338 N  
HETATM    4  O   UNL     1     -11.688  16.424  63.852  1.00  0.00    -1.085 OA 
HETATM    5  H   UNL     1     -11.141  14.509  66.344  1.00  0.00     0.000 HD 
ENDROOT
BRANCH   3   6
HETATM    6  C   UNL     1     -12.404  13.843  64.752  1.00  0.00    -0.400 C  
BRANCH   6   7
HETATM    7  C   UNL     1     -11.931  12.405  64.922  1.00  0.00    -0.458 C  
BRANCH   7   8
HETATM    8  C   UNL     1     -11.656  12.109  66.389  1.00  0.00    -0.364 C  
HETATM    9  S   UNL     1      -9.957  11.635  66.655  1.00  0.00    -0.208 S  
HETATM   10  O   UNL     1      -9.084  12.763  66.439  1.00  0.00    -0.192 OA 
HETATM   11  O   UNL     1      -9.723  10.335  66.067  1.00  0.00    -0.193 OA 
HETATM   12  O   UNL     1     -10.062  11.376  68.245  1.00  0.00    -0.182 OA 
ENDBRANCH   7   8
ENDBRANCH   6   7
ENDBRANCH   3   6
TORSDOF 3
ENDMDL
MODEL       61
REMARK 921   NORMALIZED FREE ENERGY PREDICTED BY IDOCK:   -3.62 KCAL/MOL
REMARK 922        TOTAL FREE ENERGY PREDICTED BY IDOCK:   -4.36 KCAL/MOL
REMARK 923 INTER-LIGAND FREE ENERGY PREDICTED BY IDOCK:   -3.90 KCAL/MOL
REMARK 924 INTRA-LIGAND FREE ENERGY PREDICTED BY IDOCK:   -0.45 KCAL/MOL
REMARK 927      BINDING AFFINITY PREDICTED BY RF-SCORE:    0.00 PKD
ROOT
HETATM    1  C   UNL     1     -12.214  10.531  70.948  1.00  0.00    -0.490 C  
HETATM    2  C   UNL     1     -11.137  10.375  69.910  1.00  0.00    -0.305 C  
HETATM    3  N   UNL     1     -11.591  10.532  68.621  1.00  0.00    -0.491 N  
HETATM    4  O   UNL     1      -9.972  10.120  70.198  1.00  0.00    -0.229 OA 
HETATM    5  H   UNL     1     -12.577  10.738  68.463  1.00  0.00     0.000 HD 
ENDROOT
BRANCH   3   6
HETATM    6  C   UNL     1     -10.704  10.414  67.484  1.00  0.00    -0.287 C  
BRANCH   6   7
HETATM    7  C   UNL     1     -11.102  11.357  66.356  1.00  0.00    -0.301 C  
BRANCH   7   8
HETATM    8  C   UNL     1     -10.488  12.732  66.575  1.00  0.00    -0.263 C  
HETATM    9  S   UNL     1     -11.702  13.909  67.141  1.00  0.00    -0.411 S  
HETATM   10  O   UNL     1     -12.124  13.585  68.482  1.00  0.00    -0.359 OA 
HETATM   11  O   UNL     1     -12.633  14.193  66.071  1.00  0.00    -0.478 OA 
HETATM   12  O   UNL     1     -10.726  15.193  67.215  1.00  0.00    -0.291 OA 
ENDBRANCH   7   8
ENDBRANCH   6   7
ENDBRANCH   3   6
TORSDOF 3
ENDMDL
MODEL       62
REMARK 921   NORMALIZED FREE ENERGY PREDICTED BY IDOCK:   -3.62 KCAL/MOL
REMARK 922        TOTAL FREE ENERGY PREDICTED BY IDOCK:   -4.36 KCAL/MOL
REMARK 923 INTER-LIGAND FREE ENERGY PREDICTED BY IDOCK:   -4.20 KCAL/MOL
REMARK 924 INTRA-LIGAND FREE ENERGY PREDICTED BY IDOCK:   -0.16 KCAL/MOL
REMARK 927      BINDING AFFINITY PREDICTED BY RF-SCORE:    0.00 PKD
ROOT
HETATM    1  C   UNL     1     -12.417  12.207  63.648  1.00  0.00    -0.658 C  
HETATM    2  C   UNL     1     -11.495  12.770  64.695  1.00  0.00    -0.324 C  
HETATM    3  N   UNL     1     -12.025  12.738  65.964  1.00  0.00    -0.430 N  
HETATM    4  O   UNL     1     -10.386  13.220  64.429  1.00  0.00    -0.413 OA 
HETATM    5  H   UNL     1     -12.958  12.352  66.104  1.00  0.00     0.000 HD 
ENDROOT
BRANCH   3   6
HETATM    6  C   UNL     1     -11.290  13.239  67.106  1.00  0.00    -0.317 C  
BRANCH   6   7
HETATM    7  C   UNL     1     -12.036  14.367  67.808  1.00  0.00    -0.368 C  
BRANCH   7   8
HETATM    8  C   UNL     1     -11.292  14.788  69.066  1.00  0.00    -0.275 C  
HETATM    9  S   UNL     1     -12.208  14.376  70.539  1.00  0.00    -0.363 S  
HETATM   10  O   UNL     1     -12.249  12.945  70.718  1.00  0.00    -0.367 OA 
HETATM   11  O   UNL     1     -13.384  15.213  70.625  1.00  0.00    -0.351 OA 
HETATM   12  O   UNL     1     -11.165  14.988  71.610  1.00  0.00    -0.333 OA 
ENDBRANCH   7   8
ENDBRANCH   6   7
ENDBRANCH   3   6
TORSDOF 3
ENDMDL
MODEL       63
REMARK 921   NORMALIZED FREE ENERGY PREDICTED BY IDOCK:   -3.59 KCAL/MOL
REMARK 922        TOTAL FREE ENERGY PREDICTED BY IDOCK:   -4.32 KCAL/MOL
REMARK 923 INTER-LIGAND FREE ENERGY PREDICTED BY IDOCK:   -4.21 KCAL/MOL
REMARK 924 INTRA-LIGAND FREE ENERGY PREDICTED BY IDOCK:   -0.11 KCAL/MOL
REMARK 927      BINDING AFFINITY PREDICTED BY RF-SCORE:    0.00 PKD
ROOT
HETATM    1  C   UNL     1     -10.210  10.407  69.559  1.00  0.00    -0.258 C  
HETATM    2  C   UNL     1      -9.449  11.198  68.531  1.00  0.00    -0.193 C  
HETATM    3  N   UNL     1     -10.147  11.391  67.361  1.00  0.00    -0.182 N  
HETATM    4  O   UNL     1      -8.313  11.617  68.725  1.00  0.00    -0.128 OA 
HETATM    5  H   UNL     1     -11.087  11.006  67.274  1.00  0.00     0.000 HD 
ENDROOT
BRANCH   3   6
HETATM    6  C   UNL     1      -9.580  12.126  66.251  1.00  0.00    -0.237 C  
BRANCH   6   7
HETATM    7  C   UNL     1     -10.603  12.364  65.148  1.00  0.00    -0.324 C  
BRANCH   7   8
HETATM    8  C   UNL     1     -10.641  13.837  64.771  1.00  0.00    -0.428 C  
HETATM    9  S   UNL     1     -12.276  14.346  64.275  1.00  0.00    -0.323 S  
HETATM   10  O   UNL     1     -13.168  14.336  65.409  1.00  0.00    -0.688 OA 
HETATM   11  O   UNL     1     -12.607  13.732  63.008  1.00  0.00    -0.721 OA 
HETATM   12  O   UNL     1     -11.918  15.882  63.928  1.00  0.00    -0.730 OA 
ENDBRANCH   7   8
ENDBRANCH   6   7
ENDBRANCH   3   6
TORSDOF 3
ENDMDL
MODEL       64
REMARK 921   NORMALIZED FREE ENERGY PREDICTED BY IDOCK:   -3.57 KCAL/MOL
REMARK 922        TOTAL FREE ENERGY PREDICTED BY IDOCK:   -4.31 KCAL/MOL
REMARK 923 INTER-LIGAND FREE ENERGY PREDICTED BY IDOCK:   -3.87 KCAL/MOL
REMARK 924 INTRA-LIGAND FREE ENERGY PREDICTED BY IDOCK:   -0.44 KCAL/MOL
REMARK 927      BINDING AFFINITY PREDICTED BY RF-SCORE:    0.00 PKD
ROOT
HETATM    1  C   UNL     1      -9.645  11.285  68.512  1.00  0.00    -0.199 C  
HETATM    2  C   UNL     1     -11.108  11.151  68.834  1.00  0.00    -0.237 C  
HETATM    3  N   UNL     1     -11.399  11.369  70.161  1.00  0.00    -0.499 N  
HETATM    4  O   UNL     1     -11.949  10.865  67.988  1.00  0.00    -0.586 OA 
HETATM    5  H   UNL     1     -10.643  11.598  70.805  1.00  0.00     0.000 HD 
ENDROOT
BRANCH   3   6
HETATM    6  C   UNL     1     -12.753  11.281  70.665  1.00  0.00    -0.227 C  
BRANCH   6   7
HETATM    7  C   UNL     1     -12.825  10.472  71.953  1.00  0.00    -0.509 C  
BRANCH   7   8
HETATM    8  C   UNL     1     -13.127   9.013  71.644  1.00  0.00    -0.365 C  
HETATM    9  S   UNL     1     -11.656   8.008  71.722  1.00  0.00    -0.305 S  
HETATM   10  O   UNL     1     -11.195   7.904  73.085  1.00  0.00    -0.382 OA 
HETATM   11  O   UNL     1     -10.784   8.345  70.620  1.00  0.00    -0.211 OA 
HETATM   12  O   UNL     1     -12.343   6.605  71.314  1.00  0.00    -0.352 OA 
ENDBRANCH   7   8
ENDBRANCH   6   7
ENDBRANCH   3   6
TORSDOF 3
ENDMDL
MODEL       65
REMARK 921   NORMALIZED FREE ENERGY PREDICTED BY IDOCK:   -3.56 KCAL/MOL
REMARK 922        TOTAL FREE ENERGY PREDICTED BY IDOCK:   -4.29 KCAL/MOL
REMARK 923 INTER-LIGAND FREE ENERGY PREDICTED BY IDOCK:   -3.82 KCAL/MOL
REMARK 924 INTRA-LIGAND FREE ENERGY PREDICTED BY IDOCK:   -0.47 KCAL/MOL
REMARK 927      BINDING AFFINITY PREDICTED BY RF-SCORE:    0.00 PKD
ROOT
HETATM    1  C   UNL     1      -9.663  10.193  65.016  1.00  0.00    -0.384 C  
HETATM    2  C   UNL     1     -10.615  11.136  64.334  1.00  0.00    -0.343 C  
HETATM    3  N   UNL     1     -11.516  11.721  65.193  1.00  0.00    -0.237 N  
HETATM    4  O   UNL     1     -10.587  11.347  63.126  1.00  0.00    -0.319 OA 
HETATM    5  H   UNL     1     -11.479  11.491  66.185  1.00  0.00     0.000 HD 
ENDROOT
BRANCH   3   6
HETATM    6  C   UNL     1     -12.516  12.656  64.722  1.00  0.00    -0.484 C  
BRANCH   6   7
HETATM    7  C   UNL     1     -12.577  13.904  65.593  1.00  0.00    -0.553 C  
BRANCH   7   8
HETATM    8  C   UNL     1     -11.443  14.854  65.235  1.00  0.00    -0.336 C  
HETATM    9  S   UNL     1     -10.171  14.857  66.485  1.00  0.00    -0.285 S  
HETATM   10  O   UNL     1      -9.473  13.594  66.490  1.00  0.00    -0.269 OA 
HETATM   11  O   UNL     1     -10.679  15.480  67.687  1.00  0.00    -0.287 OA 
HETATM   12  O   UNL     1      -9.211  15.960  65.800  1.00  0.00    -0.318 OA 
ENDBRANCH   7   8
ENDBRANCH   6   7
ENDBRANCH   3   6
TORSDOF 3
ENDMDL
MODEL       66
REMARK 921   NORMALIZED FREE ENERGY PREDICTED BY IDOCK:   -3.55 KCAL/MOL
REMARK 922        TOTAL FREE ENERGY PREDICTED BY IDOCK:   -4.28 KCAL/MOL
REMARK 923 INTER-LIGAND FREE ENERGY PREDICTED BY IDOCK:   -4.19 KCAL/MOL
REMARK 924 INTRA-LIGAND FREE ENERGY PREDICTED BY IDOCK:   -0.10 KCAL/MOL
REMARK 927      BINDING AFFINITY PREDICTED BY RF-SCORE:    0.00 PKD
ROOT
HETATM    1  C   UNL     1     -12.156   6.775  71.308  1.00  0.00    -0.421 C  
HETATM    2  C   UNL     1     -11.956   8.247  71.539  1.00  0.00    -0.296 C  
HETATM    3  N   UNL     1     -12.797   9.039  70.791  1.00  0.00    -0.484 N  
HETATM    4  O   UNL     1     -11.113   8.688  72.314  1.00  0.00    -0.354 OA 
HETATM    5  H   UNL     1     -13.468   8.597  70.164  1.00  0.00     0.000 HD 
ENDROOT
BRANCH   3   6
HETATM    6  C   UNL     1     -12.752  10.483  70.873  1.00  0.00    -0.402 C  
BRANCH   6   7
HETATM    7  C   UNL     1     -11.640  11.064  70.009  1.00  0.00    -0.427 C  
BRANCH   7   8
HETATM    8  C   UNL     1     -12.032  12.444  69.503  1.00  0.00    -0.261 C  
HETATM    9  S   UNL     1     -11.423  12.735  67.852  1.00  0.00    -0.338 S  
HETATM   10  O   UNL     1     -12.120  11.895  66.908  1.00  0.00    -0.599 OA 
HETATM   11  O   UNL     1      -9.983  12.855  67.884  1.00  0.00    -0.219 OA 
HETATM   12  O   UNL     1     -11.977  14.243  67.689  1.00  0.00    -0.383 OA 
ENDBRANCH   7   8
ENDBRANCH   6   7
ENDBRANCH   3   6
TORSDOF 3
ENDMDL
MODEL       67
REMARK 921   NORMALIZED FREE ENERGY PREDICTED BY IDOCK:   -3.55 KCAL/MOL
REMARK 922        TOTAL FREE ENERGY PREDICTED BY IDOCK:   -4.28 KCAL/MOL
REMARK 923 INTER-LIGAND FREE ENERGY PREDICTED BY IDOCK:   -4.17 KCAL/MOL
REMARK 924 INTRA-LIGAND FREE ENERGY PREDICTED BY IDOCK:   -0.11 KCAL/MOL
REMARK 927      BINDING AFFINITY PREDICTED BY RF-SCORE:    0.00 PKD
ROOT
HETATM    1  C   UNL     1     -12.979  15.108  70.833  1.00  0.00    -0.488 C  
HETATM    2  C   UNL     1     -13.386  13.939  71.687  1.00  0.00    -0.362 C  
HETATM    3  N   UNL     1     -12.825  12.747  71.287  1.00  0.00    -0.327 N  
HETATM    4  O   UNL     1     -14.153  14.047  72.638  1.00  0.00    -0.651 OA 
HETATM    5  H   UNL     1     -12.200  12.737  70.482  1.00  0.00     0.000 HD 
ENDROOT
BRANCH   3   6
HETATM    6  C   UNL     1     -13.100  11.508  71.982  1.00  0.00    -0.324 C  
BRANCH   6   7
HETATM    7  C   UNL     1     -12.199  10.378  71.501  1.00  0.00    -0.418 C  
BRANCH   7   8
HETATM    8  C   UNL     1     -12.870   9.033  71.734  1.00  0.00    -0.374 C  
HETATM    9  S   UNL     1     -11.688   7.697  71.708  1.00  0.00    -0.296 S  
HETATM   10  O   UNL     1     -10.826   7.771  72.863  1.00  0.00    -0.339 OA 
HETATM   11  O   UNL     1     -11.188   7.523  70.363  1.00  0.00    -0.266 OA 
HETATM   12  O   UNL     1     -12.736   6.490  71.937  1.00  0.00    -0.325 OA 
ENDBRANCH   7   8
ENDBRANCH   6   7
ENDBRANCH   3   6
TORSDOF 3
ENDMDL
MODEL       68
REMARK 921   NORMALIZED FREE ENERGY PREDICTED BY IDOCK:   -3.54 KCAL/MOL
REMARK 922        TOTAL FREE ENERGY PREDICTED BY IDOCK:   -4.27 KCAL/MOL
REMARK 923 INTER-LIGAND FREE ENERGY PREDICTED BY IDOCK:   -4.12 KCAL/MOL
REMARK 924 INTRA-LIGAND FREE ENERGY PREDICTED BY IDOCK:   -0.15 KCAL/MOL
REMARK 927      BINDING AFFINITY PREDICTED BY RF-SCORE:    0.00 PKD
ROOT
HETATM    1  C   UNL     1     -12.695  11.932  63.377  1.00  0.00    -0.496 C  
HETATM    2  C   UNL     1     -11.663  12.932  63.818  1.00  0.00    -0.492 C  
HETATM    3  N   UNL     1     -12.201  14.048  64.416  1.00  0.00    -0.565 N  
HETATM    4  O   UNL     1     -10.460  12.762  63.645  1.00  0.00    -0.382 OA 
HETATM    5  H   UNL     1     -13.213  14.118  64.518  1.00  0.00     0.000 HD 
ENDROOT
BRANCH   3   6
HETATM    6  C   UNL     1     -11.366  15.124  64.904  1.00  0.00    -0.399 C  
BRANCH   6   7
HETATM    7  C   UNL     1     -11.101  15.001  66.399  1.00  0.00    -0.329 C  
BRANCH   7   8
HETATM    8  C   UNL     1     -10.637  16.335  66.964  1.00  0.00    -0.284 C  
HETATM    9  S   UNL     1     -10.369  16.244  68.725  1.00  0.00    -0.280 S  
HETATM   10  O   UNL     1      -9.223  15.416  69.014  1.00  0.00    -0.202 OA 
HETATM   11  O   UNL     1     -11.640  16.090  69.397  1.00  0.00    -0.343 OA 
HETATM   12  O   UNL     1      -9.947  17.786  68.950  1.00  0.00    -0.351 OA 
ENDBRANCH   7   8
ENDBRANCH   6   7
ENDBRANCH   3   6
TORSDOF 3
ENDMDL
MODEL       69
REMARK 921   NORMALIZED FREE ENERGY PREDICTED BY IDOCK:   -3.50 KCAL/MOL
REMARK 922        TOTAL FREE ENERGY PREDICTED BY IDOCK:   -4.22 KCAL/MOL
REMARK 923 INTER-LIGAND FREE ENERGY PREDICTED BY IDOCK:   -4.07 KCAL/MOL
REMARK 924 INTRA-LIGAND FREE ENERGY PREDICTED BY IDOCK:   -0.14 KCAL/MOL
REMARK 927      BINDING AFFINITY PREDICTED BY RF-SCORE:    0.00 PKD
ROOT
HETATM    1  C   UNL     1     -11.476   5.782  72.700  1.00  0.00    -0.337 C  
HETATM    2  C   UNL     1     -11.958   6.843  71.749  1.00  0.00    -0.333 C  
HETATM    3  N   UNL     1     -12.175   8.061  72.351  1.00  0.00    -0.503 N  
HETATM    4  O   UNL     1     -12.145   6.628  70.556  1.00  0.00    -0.390 OA 
HETATM    5  H   UNL     1     -12.001   8.159  73.350  1.00  0.00     0.000 HD 
ENDROOT
BRANCH   3   6
HETATM    6  C   UNL     1     -12.644   9.205  71.600  1.00  0.00    -0.360 C  
BRANCH   6   7
HETATM    7  C   UNL     1     -11.491   9.998  70.997  1.00  0.00    -0.463 C  
BRANCH   7   8
HETATM    8  C   UNL     1     -11.961  11.386  70.590  1.00  0.00    -0.314 C  
HETATM    9  S   UNL     1     -11.413  11.808  68.946  1.00  0.00    -0.326 S  
HETATM   10  O   UNL     1     -12.096  10.996  67.969  1.00  0.00    -0.615 OA 
HETATM   11  O   UNL     1      -9.980  11.996  68.950  1.00  0.00    -0.117 OA 
HETATM   12  O   UNL     1     -12.042  13.295  68.894  1.00  0.00    -0.316 OA 
ENDBRANCH   7   8
ENDBRANCH   6   7
ENDBRANCH   3   6
TORSDOF 3
ENDMDL
MODEL       70
REMARK 921   NORMALIZED FREE ENERGY PREDICTED BY IDOCK:   -3.48 KCAL/MOL
REMARK 922        TOTAL FREE ENERGY PREDICTED BY IDOCK:   -4.20 KCAL/MOL
REMARK 923 INTER-LIGAND FREE ENERGY PREDICTED BY IDOCK:   -4.09 KCAL/MOL
REMARK 924 INTRA-LIGAND FREE ENERGY PREDICTED BY IDOCK:   -0.12 KCAL/MOL
REMARK 927      BINDING AFFINITY PREDICTED BY RF-SCORE:    0.00 PKD
ROOT
HETATM    1  C   UNL     1      -9.799  20.149  66.947  1.00  0.00    -0.593 C  
HETATM    2  C   UNL     1     -10.125  19.128  68.002  1.00  0.00    -0.397 C  
HETATM    3  N   UNL     1     -10.298  17.859  67.502  1.00  0.00    -0.363 N  
HETATM    4  O   UNL     1     -10.234  19.415  69.190  1.00  0.00    -0.355 OA 
HETATM    5  H   UNL     1     -10.196  17.701  66.500  1.00  0.00     0.000 HD 
ENDROOT
BRANCH   3   6
HETATM    6  C   UNL     1     -10.620  16.741  68.363  1.00  0.00    -0.354 C  
BRANCH   6   7
HETATM    7  C   UNL     1     -11.482  15.707  67.649  1.00  0.00    -0.167 C  
BRANCH   7   8
HETATM    8  C   UNL     1     -10.612  14.784  66.809  1.00  0.00    -0.302 C  
HETATM    9  S   UNL     1     -11.595  13.611  65.892  1.00  0.00    -0.342 S  
HETATM   10  O   UNL     1     -12.344  14.287  64.861  1.00  0.00    -0.421 OA 
HETATM   11  O   UNL     1     -12.193  12.665  66.807  1.00  0.00    -0.506 OA 
HETATM   12  O   UNL     1     -10.373  12.821  65.192  1.00  0.00    -0.287 OA 
ENDBRANCH   7   8
ENDBRANCH   6   7
ENDBRANCH   3   6
TORSDOF 3
ENDMDL
MODEL       71
REMARK 921   NORMALIZED FREE ENERGY PREDICTED BY IDOCK:   -3.48 KCAL/MOL
REMARK 922        TOTAL FREE ENERGY PREDICTED BY IDOCK:   -4.19 KCAL/MOL
REMARK 923 INTER-LIGAND FREE ENERGY PREDICTED BY IDOCK:   -3.81 KCAL/MOL
REMARK 924 INTRA-LIGAND FREE ENERGY PREDICTED BY IDOCK:   -0.38 KCAL/MOL
REMARK 927      BINDING AFFINITY PREDICTED BY RF-SCORE:    0.00 PKD
ROOT
HETATM    1  C   UNL     1     -14.054  14.473  72.104  1.00  0.00    -0.616 C  
HETATM    2  C   UNL     1     -13.355  13.229  71.630  1.00  0.00    -0.322 C  
HETATM    3  N   UNL     1     -12.556  13.435  70.530  1.00  0.00    -0.255 N  
HETATM    4  O   UNL     1     -13.501  12.139  72.174  1.00  0.00    -0.494 OA 
HETATM    5  H   UNL     1     -12.491  14.371  70.131  1.00  0.00     0.000 HD 
ENDROOT
BRANCH   3   6
HETATM    6  C   UNL     1     -11.804  12.357  69.925  1.00  0.00    -0.305 C  
BRANCH   6   7
HETATM    7  C   UNL     1     -11.423  12.672  68.484  1.00  0.00    -0.349 C  
BRANCH   7   8
HETATM    8  C   UNL     1     -10.351  13.751  68.445  1.00  0.00    -0.247 C  
HETATM    9  S   UNL     1     -11.000  15.298  67.840  1.00  0.00    -0.316 S  
HETATM   10  O   UNL     1     -11.917  15.864  68.799  1.00  0.00    -0.368 OA 
HETATM   11  O   UNL     1     -11.311  15.172  66.434  1.00  0.00    -0.320 OA 
HETATM   12  O   UNL     1      -9.622  16.138  67.903  1.00  0.00    -0.220 OA 
ENDBRANCH   7   8
ENDBRANCH   6   7
ENDBRANCH   3   6
TORSDOF 3
ENDMDL
MODEL       72
REMARK 921   NORMALIZED FREE ENERGY PREDICTED BY IDOCK:   -3.48 KCAL/MOL
REMARK 922        TOTAL FREE ENERGY PREDICTED BY IDOCK:   -4.19 KCAL/MOL
REMARK 923 INTER-LIGAND FREE ENERGY PREDICTED BY IDOCK:   -4.02 KCAL/MOL
REMARK 924 INTRA-LIGAND FREE ENERGY PREDICTED BY IDOCK:   -0.18 KCAL/MOL
REMARK 927      BINDING AFFINITY PREDICTED BY RF-SCORE:    0.00 PKD
ROOT
HETATM    1  C   UNL     1     -10.656  19.687  66.256  1.00  0.00    -0.585 C  
HETATM    2  C   UNL     1     -10.369  18.668  67.325  1.00  0.00    -0.400 C  
HETATM    3  N   UNL     1     -10.465  17.369  66.883  1.00  0.00    -0.310 N  
HETATM    4  O   UNL     1     -10.087  18.978  68.477  1.00  0.00    -0.378 OA 
HETATM    5  H   UNL     1     -10.710  17.192  65.909  1.00  0.00     0.000 HD 
ENDROOT
BRANCH   3   6
HETATM    6  C   UNL     1     -10.228  16.247  67.766  1.00  0.00    -0.270 C  
BRANCH   6   7
HETATM    7  C   UNL     1     -11.530  15.594  68.213  1.00  0.00    -0.353 C  
BRANCH   7   8
HETATM    8  C   UNL     1     -11.839  14.384  67.343  1.00  0.00    -0.400 C  
HETATM    9  S   UNL     1     -11.360  12.863  68.141  1.00  0.00    -0.313 S  
HETATM   10  O   UNL     1     -12.212  12.604  69.275  1.00  0.00    -0.197 OA 
HETATM   11  O   UNL     1      -9.917  12.789  68.209  1.00  0.00    -0.223 OA 
HETATM   12  O   UNL     1     -11.787  11.861  66.950  1.00  0.00    -0.590 OA 
ENDBRANCH   7   8
ENDBRANCH   6   7
ENDBRANCH   3   6
TORSDOF 3
ENDMDL
MODEL       73
REMARK 921   NORMALIZED FREE ENERGY PREDICTED BY IDOCK:   -3.46 KCAL/MOL
REMARK 922        TOTAL FREE ENERGY PREDICTED BY IDOCK:   -4.18 KCAL/MOL
REMARK 923 INTER-LIGAND FREE ENERGY PREDICTED BY IDOCK:   -3.95 KCAL/MOL
REMARK 924 INTRA-LIGAND FREE ENERGY PREDICTED BY IDOCK:   -0.23 KCAL/MOL
REMARK 927      BINDING AFFINITY PREDICTED BY RF-SCORE:    0.00 PKD
ROOT
HETATM    1  C   UNL     1      -8.183  10.171  64.441  1.00  0.00    -0.165 C  
HETATM    2  C   UNL     1      -9.332  10.938  63.848  1.00  0.00    -0.240 C  
HETATM    3  N   UNL     1      -9.770  11.971  64.644  1.00  0.00    -0.447 N  
HETATM    4  O   UNL     1      -9.830  10.653  62.763  1.00  0.00    -0.303 OA 
HETATM    5  H   UNL     1      -9.308  12.141  65.536  1.00  0.00     0.000 HD 
ENDROOT
BRANCH   3   6
HETATM    6  C   UNL     1     -10.871  12.822  64.246  1.00  0.00    -0.390 C  
BRANCH   6   7
HETATM    7  C   UNL     1     -12.173  12.419  64.927  1.00  0.00    -0.485 C  
BRANCH   7   8
HETATM    8  C   UNL     1     -12.394  13.255  66.178  1.00  0.00    -0.358 C  
HETATM    9  S   UNL     1     -11.531  12.576  67.583  1.00  0.00    -0.354 S  
HETATM   10  O   UNL     1     -10.106  12.721  67.411  1.00  0.00    -0.216 OA 
HETATM   11  O   UNL     1     -12.153  11.330  67.974  1.00  0.00    -0.638 OA 
HETATM   12  O   UNL     1     -12.021  13.662  68.672  1.00  0.00    -0.350 OA 
ENDBRANCH   7   8
ENDBRANCH   6   7
ENDBRANCH   3   6
TORSDOF 3
ENDMDL
MODEL       74
REMARK 921   NORMALIZED FREE ENERGY PREDICTED BY IDOCK:   -3.46 KCAL/MOL
REMARK 922        TOTAL FREE ENERGY PREDICTED BY IDOCK:   -4.17 KCAL/MOL
REMARK 923 INTER-LIGAND FREE ENERGY PREDICTED BY IDOCK:   -4.05 KCAL/MOL
REMARK 924 INTRA-LIGAND FREE ENERGY PREDICTED BY IDOCK:   -0.12 KCAL/MOL
REMARK 927      BINDING AFFINITY PREDICTED BY RF-SCORE:    0.00 PKD
ROOT
HETATM    1  C   UNL     1      -7.638  16.680  68.055  1.00  0.00    -0.171 C  
HETATM    2  C   UNL     1      -9.118  16.900  68.201  1.00  0.00    -0.231 C  
HETATM    3  N   UNL     1      -9.737  15.958  68.989  1.00  0.00    -0.228 N  
HETATM    4  O   UNL     1      -9.707  17.828  67.656  1.00  0.00    -0.271 OA 
HETATM    5  H   UNL     1      -9.179  15.212  69.403  1.00  0.00     0.000 HD 
ENDROOT
BRANCH   3   6
HETATM    6  C   UNL     1     -11.161  15.999  69.245  1.00  0.00    -0.331 C  
BRANCH   6   7
HETATM    7  C   UNL     1     -11.474  15.845  70.727  1.00  0.00    -0.437 C  
BRANCH   7   8
HETATM    8  C   UNL     1     -12.118  14.492  70.993  1.00  0.00    -0.344 C  
HETATM    9  S   UNL     1     -13.226  14.557  72.389  1.00  0.00    -0.458 S  
HETATM   10  O   UNL     1     -14.388  15.349  72.069  1.00  0.00    -0.533 OA 
HETATM   11  O   UNL     1     -12.461  14.737  73.603  1.00  0.00    -0.468 OA 
HETATM   12  O   UNL     1     -13.660  13.001  72.381  1.00  0.00    -0.578 OA 
ENDBRANCH   7   8
ENDBRANCH   6   7
ENDBRANCH   3   6
TORSDOF 3
ENDMDL
MODEL       75
REMARK 921   NORMALIZED FREE ENERGY PREDICTED BY IDOCK:   -3.44 KCAL/MOL
REMARK 922        TOTAL FREE ENERGY PREDICTED BY IDOCK:   -4.15 KCAL/MOL
REMARK 923 INTER-LIGAND FREE ENERGY PREDICTED BY IDOCK:   -4.01 KCAL/MOL
REMARK 924 INTRA-LIGAND FREE ENERGY PREDICTED BY IDOCK:   -0.14 KCAL/MOL
REMARK 927      BINDING AFFINITY PREDICTED BY RF-SCORE:    0.00 PKD
ROOT
HETATM    1  C   UNL     1     -11.191  12.392  63.461  1.00  0.00    -0.540 C  
HETATM    2  C   UNL     1     -11.940  12.552  64.755  1.00  0.00    -0.409 C  
HETATM    3  N   UNL     1     -11.131  12.494  65.867  1.00  0.00    -0.288 N  
HETATM    4  O   UNL     1     -13.155  12.708  64.803  1.00  0.00    -0.852 OA 
HETATM    5  H   UNL     1     -10.128  12.357  65.745  1.00  0.00     0.000 HD 
ENDROOT
BRANCH   3   6
HETATM    6  C   UNL     1     -11.668  12.624  67.204  1.00  0.00    -0.371 C  
BRANCH   6   7
HETATM    7  C   UNL     1     -11.078  11.590  68.154  1.00  0.00    -0.303 C  
BRANCH   7   8
HETATM    8  C   UNL     1     -12.188  10.808  68.840  1.00  0.00     0.105 C  
HETATM    9  S   UNL     1     -12.054  10.900  70.616  1.00  0.00    -0.387 S  
HETATM   10  O   UNL     1     -12.346  12.237  71.070  1.00  0.00    -0.351 OA 
HETATM   11  O   UNL     1     -10.891  10.158  71.049  1.00  0.00    -0.240 OA 
HETATM   12  O   UNL     1     -13.319   9.960  70.967  1.00  0.00    -0.374 OA 
ENDBRANCH   7   8
ENDBRANCH   6   7
ENDBRANCH   3   6
TORSDOF 3
ENDMDL
MODEL       76
REMARK 921   NORMALIZED FREE ENERGY PREDICTED BY IDOCK:   -3.44 KCAL/MOL
REMARK 922        TOTAL FREE ENERGY PREDICTED BY IDOCK:   -4.15 KCAL/MOL
REMARK 923 INTER-LIGAND FREE ENERGY PREDICTED BY IDOCK:   -4.01 KCAL/MOL
REMARK 924 INTRA-LIGAND FREE ENERGY PREDICTED BY IDOCK:   -0.14 KCAL/MOL
REMARK 927      BINDING AFFINITY PREDICTED BY RF-SCORE:    0.00 PKD
ROOT
HETATM    1  C   UNL     1     -10.715  10.563  69.999  1.00  0.00    -0.282 C  
HETATM    2  C   UNL     1     -11.485  11.644  69.291  1.00  0.00    -0.300 C  
HETATM    3  N   UNL     1     -11.199  12.909  69.748  1.00  0.00    -0.489 N  
HETATM    4  O   UNL     1     -12.294  11.406  68.400  1.00  0.00    -0.505 OA 
HETATM    5  H   UNL     1     -10.517  13.025  70.497  1.00  0.00     0.000 HD 
ENDROOT
BRANCH   3   6
HETATM    6  C   UNL     1     -11.842  14.081  69.193  1.00  0.00    -0.350 C  
BRANCH   6   7
HETATM    7  C   UNL     1     -10.827  15.090  68.672  1.00  0.00    -0.249 C  
BRANCH   7   8
HETATM    8  C   UNL     1     -11.142  15.459  67.230  1.00  0.00    -0.302 C  
HETATM    9  S   UNL     1     -10.020  16.699  66.610  1.00  0.00    -0.296 S  
HETATM   10  O   UNL     1      -8.696  16.145  66.463  1.00  0.00    -0.240 OA 
HETATM   11  O   UNL     1     -10.277  17.956  67.276  1.00  0.00    -0.329 OA 
HETATM   12  O   UNL     1     -10.669  16.849  65.140  1.00  0.00    -0.663 OA 
ENDBRANCH   7   8
ENDBRANCH   6   7
ENDBRANCH   3   6
TORSDOF 3
ENDMDL
MODEL       77
REMARK 921   NORMALIZED FREE ENERGY PREDICTED BY IDOCK:   -3.44 KCAL/MOL
REMARK 922        TOTAL FREE ENERGY PREDICTED BY IDOCK:   -4.15 KCAL/MOL
REMARK 923 INTER-LIGAND FREE ENERGY PREDICTED BY IDOCK:   -3.94 KCAL/MOL
REMARK 924 INTRA-LIGAND FREE ENERGY PREDICTED BY IDOCK:   -0.21 KCAL/MOL
REMARK 927      BINDING AFFINITY PREDICTED BY RF-SCORE:    0.00 PKD
ROOT
HETATM    1  C   UNL     1     -12.230  12.873  65.666  1.00  0.00    -0.519 C  
HETATM    2  C   UNL     1     -11.582  14.223  65.524  1.00  0.00    -0.338 C  
HETATM    3  N   UNL     1     -10.558  14.436  66.418  1.00  0.00    -0.292 N  
HETATM    4  O   UNL     1     -11.948  15.050  64.696  1.00  0.00    -0.414 OA 
HETATM    5  H   UNL     1     -10.316  13.700  67.081  1.00  0.00     0.000 HD 
ENDROOT
BRANCH   3   6
HETATM    6  C   UNL     1      -9.815  15.677  66.440  1.00  0.00    -0.274 C  
BRANCH   6   7
HETATM    7  C   UNL     1     -10.387  16.660  67.454  1.00  0.00    -0.292 C  
BRANCH   7   8
HETATM    8  C   UNL     1     -10.516  18.043  66.833  1.00  0.00    -0.341 C  
HETATM    9  S   UNL     1      -9.508  19.242  67.687  1.00  0.00    -0.326 S  
HETATM   10  O   UNL     1      -8.110  18.974  67.456  1.00  0.00    -0.263 OA 
HETATM   11  O   UNL     1     -10.057  19.482  69.003  1.00  0.00    -0.442 OA 
HETATM   12  O   UNL     1      -9.927  20.529  66.805  1.00  0.00    -0.433 OA 
ENDBRANCH   7   8
ENDBRANCH   6   7
ENDBRANCH   3   6
TORSDOF 3
ENDMDL
MODEL       78
REMARK 921   NORMALIZED FREE ENERGY PREDICTED BY IDOCK:   -3.44 KCAL/MOL
REMARK 922        TOTAL FREE ENERGY PREDICTED BY IDOCK:   -4.15 KCAL/MOL
REMARK 923 INTER-LIGAND FREE ENERGY PREDICTED BY IDOCK:   -3.94 KCAL/MOL
REMARK 924 INTRA-LIGAND FREE ENERGY PREDICTED BY IDOCK:   -0.20 KCAL/MOL
REMARK 927      BINDING AFFINITY PREDICTED BY RF-SCORE:    0.00 PKD
ROOT
HETATM    1  C   UNL     1     -14.273  14.886  71.768  1.00  0.00    -0.635 C  
HETATM    2  C   UNL     1     -12.888  14.852  71.182  1.00  0.00    -0.359 C  
HETATM    3  N   UNL     1     -12.866  15.039  69.819  1.00  0.00    -0.600 N  
HETATM    4  O   UNL     1     -11.885  14.664  71.862  1.00  0.00    -0.324 OA 
HETATM    5  H   UNL     1     -13.744  15.183  69.322  1.00  0.00     0.000 HD 
ENDROOT
BRANCH   3   6
HETATM    6  C   UNL     1     -11.626  15.035  69.072  1.00  0.00    -0.319 C  
BRANCH   6   7
HETATM    7  C   UNL     1     -11.591  13.916  68.039  1.00  0.00    -0.368 C  
BRANCH   7   8
HETATM    8  C   UNL     1     -10.349  13.058  68.231  1.00  0.00    -0.252 C  
HETATM    9  S   UNL     1     -10.772  11.362  68.582  1.00  0.00    -0.217 S  
HETATM   10  O   UNL     1     -11.350  10.740  67.416  1.00  0.00    -0.416 OA 
HETATM   11  O   UNL     1     -11.368  11.276  69.896  1.00  0.00    -0.277 OA 
HETATM   12  O   UNL     1      -9.266  10.805  68.755  1.00  0.00    -0.175 OA 
ENDBRANCH   7   8
ENDBRANCH   6   7
ENDBRANCH   3   6
TORSDOF 3
ENDMDL
MODEL       79
REMARK 921   NORMALIZED FREE ENERGY PREDICTED BY IDOCK:   -3.39 KCAL/MOL
REMARK 922        TOTAL FREE ENERGY PREDICTED BY IDOCK:   -4.10 KCAL/MOL
REMARK 923 INTER-LIGAND FREE ENERGY PREDICTED BY IDOCK:   -3.65 KCAL/MOL
REMARK 924 INTRA-LIGAND FREE ENERGY PREDICTED BY IDOCK:   -0.45 KCAL/MOL
REMARK 927      BINDING AFFINITY PREDICTED BY RF-SCORE:    0.00 PKD
ROOT
HETATM    1  C   UNL     1     -13.050  10.860  71.617  1.00  0.00    -0.538 C  
HETATM    2  C   UNL     1     -13.445   9.442  71.920  1.00  0.00    -0.426 C  
HETATM    3  N   UNL     1     -12.740   8.510  71.193  1.00  0.00    -0.483 N  
HETATM    4  O   UNL     1     -14.319   9.155  72.731  1.00  0.00    -0.563 OA 
HETATM    5  H   UNL     1     -12.030   8.827  70.533  1.00  0.00     0.000 HD 
ENDROOT
BRANCH   3   6
HETATM    6  C   UNL     1     -12.980   7.091  71.342  1.00  0.00    -0.340 C  
BRANCH   6   7
HETATM    7  C   UNL     1     -11.750   6.360  71.865  1.00  0.00    -0.378 C  
BRANCH   7   8
HETATM    8  C   UNL     1     -10.556   6.620  70.958  1.00  0.00    -0.226 C  
HETATM    9  S   UNL     1      -9.271   7.519  71.806  1.00  0.00    -0.141 S  
HETATM   10  O   UNL     1      -8.664   6.688  72.817  1.00  0.00    -0.123 OA 
HETATM   11  O   UNL     1      -9.718   8.870  72.062  1.00  0.00    -0.316 OA 
HETATM   12  O   UNL     1      -8.245   7.633  70.565  1.00  0.00    -0.117 OA 
ENDBRANCH   7   8
ENDBRANCH   6   7
ENDBRANCH   3   6
TORSDOF 3
ENDMDL
MODEL       80
REMARK 921   NORMALIZED FREE ENERGY PREDICTED BY IDOCK:   -3.38 KCAL/MOL
REMARK 922        TOTAL FREE ENERGY PREDICTED BY IDOCK:   -4.08 KCAL/MOL
REMARK 923 INTER-LIGAND FREE ENERGY PREDICTED BY IDOCK:   -3.97 KCAL/MOL
REMARK 924 INTRA-LIGAND FREE ENERGY PREDICTED BY IDOCK:   -0.11 KCAL/MOL
REMARK 927      BINDING AFFINITY PREDICTED BY RF-SCORE:    0.00 PKD
ROOT
HETATM    1  C   UNL     1      -9.817   8.930  71.521  1.00  0.00    -0.384 C  
HETATM    2  C   UNL     1     -11.109   9.617  71.174  1.00  0.00    -0.374 C  
HETATM    3  N   UNL     1     -10.941  10.740  70.397  1.00  0.00    -0.445 N  
HETATM    4  O   UNL     1     -12.200   9.211  71.561  1.00  0.00    -0.309 OA 
HETATM    5  H   UNL     1     -10.000  11.016  70.120  1.00  0.00     0.000 HD 
ENDROOT
BRANCH   3   6
HETATM    6  C   UNL     1     -12.067  11.539  69.964  1.00  0.00    -0.331 C  
BRANCH   6   7
HETATM    7  C   UNL     1     -11.871  12.074  68.551  1.00  0.00    -0.369 C  
BRANCH   7   8
HETATM    8  C   UNL     1     -11.663  13.580  68.581  1.00  0.00    -0.354 C  
HETATM    9  S   UNL     1     -11.324  14.229  66.955  1.00  0.00    -0.356 S  
HETATM   10  O   UNL     1     -12.501  14.136  66.126  1.00  0.00    -0.466 OA 
HETATM   11  O   UNL     1     -10.020  13.782  66.521  1.00  0.00    -0.272 OA 
HETATM   12  O   UNL     1     -11.130  15.773  67.384  1.00  0.00    -0.311 OA 
ENDBRANCH   7   8
ENDBRANCH   6   7
ENDBRANCH   3   6
TORSDOF 3
ENDMDL
MODEL       81
REMARK 921   NORMALIZED FREE ENERGY PREDICTED BY IDOCK:   -3.33 KCAL/MOL
REMARK 922        TOTAL FREE ENERGY PREDICTED BY IDOCK:   -4.03 KCAL/MOL
REMARK 923 INTER-LIGAND FREE ENERGY PREDICTED BY IDOCK:   -3.85 KCAL/MOL
REMARK 924 INTRA-LIGAND FREE ENERGY PREDICTED BY IDOCK:   -0.17 KCAL/MOL
REMARK 927      BINDING AFFINITY PREDICTED BY RF-SCORE:    0.00 PKD
ROOT
HETATM    1  C   UNL     1      -7.694  10.373  66.544  1.00  0.00    -0.121 C  
HETATM    2  C   UNL     1      -8.495   9.977  65.335  1.00  0.00    -0.151 C  
HETATM    3  N   UNL     1      -9.066  11.045  64.682  1.00  0.00    -0.321 N  
HETATM    4  O   UNL     1      -8.629   8.810  64.981  1.00  0.00    -0.175 OA 
HETATM    5  H   UNL     1      -8.913  11.986  65.042  1.00  0.00     0.000 HD 
ENDROOT
BRANCH   3   6
HETATM    6  C   UNL     1      -9.878  10.865  63.498  1.00  0.00    -0.359 C  
BRANCH   6   7
HETATM    7  C   UNL     1     -10.880  11.999  63.322  1.00  0.00    -0.400 C  
BRANCH   7   8
HETATM    8  C   UNL     1     -11.493  12.376  64.662  1.00  0.00    -0.331 C  
HETATM    9  S   UNL     1     -11.806  14.128  64.771  1.00  0.00    -0.440 S  
HETATM   10  O   UNL     1     -12.871  14.502  63.874  1.00  0.00    -0.685 OA 
HETATM   11  O   UNL     1     -10.548  14.838  64.838  1.00  0.00    -0.414 OA 
HETATM   12  O   UNL     1     -12.388  14.141  66.278  1.00  0.00    -0.456 OA 
ENDBRANCH   7   8
ENDBRANCH   6   7
ENDBRANCH   3   6
TORSDOF 3
ENDMDL
MODEL       82
REMARK 921   NORMALIZED FREE ENERGY PREDICTED BY IDOCK:   -3.31 KCAL/MOL
REMARK 922        TOTAL FREE ENERGY PREDICTED BY IDOCK:   -3.99 KCAL/MOL
REMARK 923 INTER-LIGAND FREE ENERGY PREDICTED BY IDOCK:   -3.66 KCAL/MOL
REMARK 924 INTRA-LIGAND FREE ENERGY PREDICTED BY IDOCK:   -0.33 KCAL/MOL
REMARK 927      BINDING AFFINITY PREDICTED BY RF-SCORE:    0.00 PKD
ROOT
HETATM    1  C   UNL     1     -11.904  15.082  69.437  1.00  0.00    -0.358 C  
HETATM    2  C   UNL     1     -12.364  13.938  70.297  1.00  0.00    -0.345 C  
HETATM    3  N   UNL     1     -11.766  12.740  69.981  1.00  0.00    -0.513 N  
HETATM    4  O   UNL     1     -13.201  14.071  71.184  1.00  0.00    -0.322 OA 
HETATM    5  H   UNL     1     -11.083  12.709  69.226  1.00  0.00     0.000 HD 
ENDROOT
BRANCH   3   6
HETATM    6  C   UNL     1     -12.083  11.522  70.696  1.00  0.00    -0.353 C  
BRANCH   6   7
HETATM    7  C   UNL     1     -11.377  10.313  70.095  1.00  0.00    -0.388 C  
BRANCH   7   8
HETATM    8  C   UNL     1     -10.322  10.762  69.095  1.00  0.00    -0.217 C  
HETATM    9  S   UNL     1     -10.889  10.576  67.414  1.00  0.00    -0.276 S  
HETATM   10  O   UNL     1     -11.943  11.522  67.136  1.00  0.00    -0.581 OA 
HETATM   11  O   UNL     1     -10.989   9.170  67.093  1.00  0.00    -0.127 OA 
HETATM   12  O   UNL     1      -9.544  11.090  66.684  1.00  0.00    -0.183 OA 
ENDBRANCH   7   8
ENDBRANCH   6   7
ENDBRANCH   3   6
TORSDOF 3
ENDMDL
MODEL       83
REMARK 921   NORMALIZED FREE ENERGY PREDICTED BY IDOCK:   -3.29 KCAL/MOL
REMARK 922        TOTAL FREE ENERGY PREDICTED BY IDOCK:   -3.98 KCAL/MOL
REMARK 923 INTER-LIGAND FREE ENERGY PREDICTED BY IDOCK:   -4.64 KCAL/MOL
REMARK 924 INTRA-LIGAND FREE ENERGY PREDICTED BY IDOCK:    0.66 KCAL/MOL
REMARK 927      BINDING AFFINITY PREDICTED BY RF-SCORE:    0.00 PKD
ROOT
HETATM    1  C   UNL     1     -10.354  10.268  68.523  1.00  0.00    -0.200 C  
HETATM    2  C   UNL     1     -11.341  11.373  68.777  1.00  0.00    -0.271 C  
HETATM    3  N   UNL     1     -11.264  11.894  70.048  1.00  0.00    -0.485 N  
HETATM    4  O   UNL     1     -12.141  11.756  67.929  1.00  0.00    -0.592 OA 
HETATM    5  H   UNL     1     -10.575  11.518  70.699  1.00  0.00     0.000 HD 
ENDROOT
BRANCH   3   6
HETATM    6  C   UNL     1     -12.136  12.964  70.484  1.00  0.00    -0.282 C  
BRANCH   6   7
HETATM    7  C   UNL     1     -13.123  12.493  71.543  1.00  0.00    -0.373 C  
BRANCH   7   8
HETATM    8  C   UNL     1     -13.412  13.613  72.532  1.00  0.00    -0.570 C  
HETATM    9  S   UNL     1     -12.791  15.179  71.948  1.00  0.00    -0.382 S  
HETATM   10  O   UNL     1     -13.553  15.624  70.807  1.00  0.00    -0.524 OA 
HETATM   11  O   UNL     1     -11.345  15.162  71.971  1.00  0.00    -0.418 OA 
HETATM   12  O   UNL     1     -13.231  16.064  73.225  1.00  0.00    -0.544 OA 
ENDBRANCH   7   8
ENDBRANCH   6   7
ENDBRANCH   3   6
TORSDOF 3
ENDMDL
MODEL       84
REMARK 921   NORMALIZED FREE ENERGY PREDICTED BY IDOCK:   -3.29 KCAL/MOL
REMARK 922        TOTAL FREE ENERGY PREDICTED BY IDOCK:   -3.98 KCAL/MOL
REMARK 923 INTER-LIGAND FREE ENERGY PREDICTED BY IDOCK:   -3.54 KCAL/MOL
REMARK 924 INTRA-LIGAND FREE ENERGY PREDICTED BY IDOCK:   -0.44 KCAL/MOL
REMARK 927      BINDING AFFINITY PREDICTED BY RF-SCORE:    0.00 PKD
ROOT
HETATM    1  C   UNL     1     -11.743   8.339  71.816  1.00  0.00    -0.357 C  
HETATM    2  C   UNL     1     -10.722   8.037  70.754  1.00  0.00    -0.223 C  
HETATM    3  N   UNL     1     -11.175   8.275  69.477  1.00  0.00    -0.439 N  
HETATM    4  O   UNL     1      -9.602   7.610  71.013  1.00  0.00    -0.163 OA 
HETATM    5  H   UNL     1     -12.122   8.625  69.342  1.00  0.00     0.000 HD 
ENDROOT
BRANCH   3   6
HETATM    6  C   UNL     1     -10.338   8.040  68.319  1.00  0.00    -0.197 C  
BRANCH   6   7
HETATM    7  C   UNL     1     -10.495   9.138  67.276  1.00  0.00    -0.335 C  
BRANCH   7   8
HETATM    8  C   UNL     1     -10.097  10.484  67.862  1.00  0.00    -0.176 C  
HETATM    9  S   UNL     1     -11.503  11.569  68.028  1.00  0.00    -0.307 S  
HETATM   10  O   UNL     1     -12.392  11.081  69.054  1.00  0.00    -0.481 OA 
HETATM   11  O   UNL     1     -11.960  11.968  66.716  1.00  0.00    -0.616 OA 
HETATM   12  O   UNL     1     -10.709  12.847  68.615  1.00  0.00    -0.246 OA 
ENDBRANCH   7   8
ENDBRANCH   6   7
ENDBRANCH   3   6
TORSDOF 3
ENDMDL
MODEL       85
REMARK 921   NORMALIZED FREE ENERGY PREDICTED BY IDOCK:   -3.28 KCAL/MOL
REMARK 922        TOTAL FREE ENERGY PREDICTED BY IDOCK:   -3.96 KCAL/MOL
REMARK 923 INTER-LIGAND FREE ENERGY PREDICTED BY IDOCK:   -3.55 KCAL/MOL
REMARK 924 INTRA-LIGAND FREE ENERGY PREDICTED BY IDOCK:   -0.41 KCAL/MOL
REMARK 927      BINDING AFFINITY PREDICTED BY RF-SCORE:    0.00 PKD
ROOT
HETATM    1  C   UNL     1     -13.950   8.861  72.235  1.00  0.00    -0.531 C  
HETATM    2  C   UNL     1     -12.892   9.750  71.643  1.00  0.00    -0.421 C  
HETATM    3  N   UNL     1     -11.812   9.059  71.144  1.00  0.00    -0.291 N  
HETATM    4  O   UNL     1     -12.989  10.972  71.622  1.00  0.00    -0.441 OA 
HETATM    5  H   UNL     1     -11.802   8.041  71.203  1.00  0.00     0.000 HD 
ENDROOT
BRANCH   3   6
HETATM    6  C   UNL     1     -10.689   9.741  70.537  1.00  0.00    -0.317 C  
BRANCH   6   7
HETATM    7  C   UNL     1     -10.502   9.337  69.080  1.00  0.00    -0.233 C  
BRANCH   7   8
HETATM    8  C   UNL     1      -9.652   8.079  68.986  1.00  0.00    -0.156 C  
HETATM    9  S   UNL     1     -10.636   6.651  68.567  1.00  0.00    -0.252 S  
HETATM   10  O   UNL     1     -11.113   6.755  67.210  1.00  0.00    -0.358 OA 
HETATM   11  O   UNL     1     -11.496   6.317  69.680  1.00  0.00    -0.432 OA 
HETATM   12  O   UNL     1      -9.445   5.562  68.601  1.00  0.00    -0.121 OA 
ENDBRANCH   7   8
ENDBRANCH   6   7
ENDBRANCH   3   6
TORSDOF 3
ENDMDL
MODEL       86
REMARK 921   NORMALIZED FREE ENERGY PREDICTED BY IDOCK:   -3.28 KCAL/MOL
REMARK 922        TOTAL FREE ENERGY PREDICTED BY IDOCK:   -3.96 KCAL/MOL
REMARK 923 INTER-LIGAND FREE ENERGY PREDICTED BY IDOCK:   -3.83 KCAL/MOL
REMARK 924 INTRA-LIGAND FREE ENERGY PREDICTED BY IDOCK:   -0.13 KCAL/MOL
REMARK 927      BINDING AFFINITY PREDICTED BY RF-SCORE:    0.00 PKD
ROOT
HETATM    1  C   UNL     1     -10.911  15.890  65.085  1.00  0.00    -0.438 C  
HETATM    2  C   UNL     1     -11.632  14.777  64.377  1.00  0.00    -0.295 C  
HETATM    3  N   UNL     1     -10.898  13.616  64.291  1.00  0.00    -0.568 N  
HETATM    4  O   UNL     1     -12.761  14.906  63.915  1.00  0.00    -0.789 OA 
HETATM    5  H   UNL     1      -9.962  13.588  64.695  1.00  0.00     0.000 HD 
ENDROOT
BRANCH   3   6
HETATM    6  C   UNL     1     -11.420  12.434  63.641  1.00  0.00    -0.489 C  
BRANCH   6   7
HETATM    7  C   UNL     1     -10.361  11.348  63.504  1.00  0.00    -0.476 C  
BRANCH   7   8
HETATM    8  C   UNL     1     -10.391  10.425  64.713  1.00  0.00    -0.151 C  
HETATM    9  S   UNL     1      -8.757   9.860  65.148  1.00  0.00    -0.181 S  
HETATM   10  O   UNL     1      -7.971  10.953  65.665  1.00  0.00    -0.133 OA 
HETATM   11  O   UNL     1      -8.273   8.956  64.128  1.00  0.00    -0.153 OA 
HETATM   12  O   UNL     1      -9.186   8.919  66.388  1.00  0.00    -0.161 OA 
ENDBRANCH   7   8
ENDBRANCH   6   7
ENDBRANCH   3   6
TORSDOF 3
ENDMDL
MODEL       87
REMARK 921   NORMALIZED FREE ENERGY PREDICTED BY IDOCK:   -3.24 KCAL/MOL
REMARK 922        TOTAL FREE ENERGY PREDICTED BY IDOCK:   -3.92 KCAL/MOL
REMARK 923 INTER-LIGAND FREE ENERGY PREDICTED BY IDOCK:   -3.75 KCAL/MOL
REMARK 924 INTRA-LIGAND FREE ENERGY PREDICTED BY IDOCK:   -0.17 KCAL/MOL
REMARK 927      BINDING AFFINITY PREDICTED BY RF-SCORE:    0.00 PKD
ROOT
HETATM    1  C   UNL     1     -12.017  11.524  69.196  1.00  0.00    -0.386 C  
HETATM    2  C   UNL     1     -11.734  12.982  69.430  1.00  0.00    -0.326 C  
HETATM    3  N   UNL     1     -10.588  13.424  68.810  1.00  0.00    -0.326 N  
HETATM    4  O   UNL     1     -12.457  13.695  70.118  1.00  0.00    -0.308 OA 
HETATM    5  H   UNL     1     -10.036  12.768  68.259  1.00  0.00     0.000 HD 
ENDROOT
BRANCH   3   6
HETATM    6  C   UNL     1     -10.147  14.798  68.922  1.00  0.00    -0.237 C  
BRANCH   6   7
HETATM    7  C   UNL     1     -10.585  15.632  67.724  1.00  0.00    -0.281 C  
BRANCH   7   8
HETATM    8  C   UNL     1      -9.390  15.950  66.837  1.00  0.00    -0.225 C  
HETATM    9  S   UNL     1      -9.213  17.706  66.582  1.00  0.00    -0.273 S  
HETATM   10  O   UNL     1      -8.816  18.352  67.809  1.00  0.00    -0.271 OA 
HETATM   11  O   UNL     1     -10.300  18.184  65.757  1.00  0.00    -0.586 OA 
HETATM   12  O   UNL     1      -7.927  17.644  65.606  1.00  0.00    -0.529 OA 
ENDBRANCH   7   8
ENDBRANCH   6   7
ENDBRANCH   3   6
TORSDOF 3
ENDMDL
MODEL       88
REMARK 921   NORMALIZED FREE ENERGY PREDICTED BY IDOCK:   -3.23 KCAL/MOL
REMARK 922        TOTAL FREE ENERGY PREDICTED BY IDOCK:   -3.91 KCAL/MOL
REMARK 923 INTER-LIGAND FREE ENERGY PREDICTED BY IDOCK:   -4.37 KCAL/MOL
REMARK 924 INTRA-LIGAND FREE ENERGY PREDICTED BY IDOCK:    0.46 KCAL/MOL
REMARK 927      BINDING AFFINITY PREDICTED BY RF-SCORE:    0.00 PKD
ROOT
HETATM    1  C   UNL     1      -9.306  10.296  65.326  1.00  0.00    -0.267 C  
HETATM    2  C   UNL     1     -10.492  11.168  65.018  1.00  0.00    -0.293 C  
HETATM    3  N   UNL     1     -10.855  11.988  66.061  1.00  0.00    -0.278 N  
HETATM    4  O   UNL     1     -11.077  11.134  63.940  1.00  0.00    -0.335 OA 
HETATM    5  H   UNL     1     -10.321  11.954  66.929  1.00  0.00     0.000 HD 
ENDROOT
BRANCH   3   6
HETATM    6  C   UNL     1     -11.975  12.897  65.957  1.00  0.00    -0.446 C  
BRANCH   6   7
HETATM    7  C   UNL     1     -11.963  13.939  67.069  1.00  0.00    -0.459 C  
BRANCH   7   8
HETATM    8  C   UNL     1     -11.763  15.330  66.486  1.00  0.00     0.077 C  
HETATM    9  S   UNL     1     -11.400  15.265  64.741  1.00  0.00    -0.336 S  
HETATM   10  O   UNL     1     -12.563  14.831  64.006  1.00  0.00    -0.822 OA 
HETATM   11  O   UNL     1     -10.086  14.695  64.544  1.00  0.00    -0.154 OA 
HETATM   12  O   UNL     1     -11.220  16.853  64.508  1.00  0.00    -1.057 OA 
ENDBRANCH   7   8
ENDBRANCH   6   7
ENDBRANCH   3   6
TORSDOF 3
ENDMDL
MODEL       89
REMARK 921   NORMALIZED FREE ENERGY PREDICTED BY IDOCK:   -3.19 KCAL/MOL
REMARK 922        TOTAL FREE ENERGY PREDICTED BY IDOCK:   -3.86 KCAL/MOL
REMARK 923 INTER-LIGAND FREE ENERGY PREDICTED BY IDOCK:   -3.44 KCAL/MOL
REMARK 924 INTRA-LIGAND FREE ENERGY PREDICTED BY IDOCK:   -0.42 KCAL/MOL
REMARK 927      BINDING AFFINITY PREDICTED BY RF-SCORE:    0.00 PKD
ROOT
HETATM    1  C   UNL     1     -12.933   9.982  71.816  1.00  0.00    -0.560 C  
HETATM    2  C   UNL     1     -11.877   8.927  71.635  1.00  0.00    -0.345 C  
HETATM    3  N   UNL     1     -12.299   7.851  70.890  1.00  0.00    -0.503 N  
HETATM    4  O   UNL     1     -10.754   9.024  72.120  1.00  0.00    -0.332 OA 
HETATM    5  H   UNL     1     -13.251   7.842  70.525  1.00  0.00     0.000 HD 
ENDROOT
BRANCH   3   6
HETATM    6  C   UNL     1     -11.426   6.732  70.610  1.00  0.00    -0.351 C  
BRANCH   6   7
HETATM    7  C   UNL     1     -10.975   6.716  69.155  1.00  0.00    -0.338 C  
BRANCH   7   8
HETATM    8  C   UNL     1      -9.787   7.646  68.961  1.00  0.00    -0.168 C  
HETATM    9  S   UNL     1     -10.181   8.993  67.861  1.00  0.00    -0.232 S  
HETATM   10  O   UNL     1     -11.124   9.888  68.486  1.00  0.00    -0.207 OA 
HETATM   11  O   UNL     1     -10.351   8.484  66.518  1.00  0.00    -0.283 OA 
HETATM   12  O   UNL     1      -8.730   9.702  67.873  1.00  0.00    -0.119 OA 
ENDBRANCH   7   8
ENDBRANCH   6   7
ENDBRANCH   3   6
TORSDOF 3
ENDMDL
MODEL       90
REMARK 921   NORMALIZED FREE ENERGY PREDICTED BY IDOCK:   -3.18 KCAL/MOL
REMARK 922        TOTAL FREE ENERGY PREDICTED BY IDOCK:   -3.85 KCAL/MOL
REMARK 923 INTER-LIGAND FREE ENERGY PREDICTED BY IDOCK:   -3.68 KCAL/MOL
REMARK 924 INTRA-LIGAND FREE ENERGY PREDICTED BY IDOCK:   -0.16 KCAL/MOL
REMARK 927      BINDING AFFINITY PREDICTED BY RF-SCORE:    0.00 PKD
ROOT
HETATM    1  C   UNL     1      -9.884  19.371  67.957  1.00  0.00    -0.465 C  
HETATM    2  C   UNL     1     -10.384  18.909  66.616  1.00  0.00    -0.417 C  
HETATM    3  N   UNL     1     -10.383  17.541  66.472  1.00  0.00    -0.339 N  
HETATM    4  O   UNL     1     -10.746  19.688  65.740  1.00  0.00    -0.516 OA 
HETATM    5  H   UNL     1     -10.062  16.960  67.246  1.00  0.00     0.000 HD 
ENDROOT
BRANCH   3   6
HETATM    6  C   UNL     1     -10.826  16.906  65.250  1.00  0.00    -0.104 C  
BRANCH   6   7
HETATM    7  C   UNL     1     -10.529  15.412  65.249  1.00  0.00    -0.440 C  
BRANCH   7   8
HETATM    8  C   UNL     1     -11.457  14.689  66.214  1.00  0.00    -0.351 C  
HETATM    9  S   UNL     1     -10.582  13.469  67.176  1.00  0.00    -0.264 S  
HETATM   10  O   UNL     1      -9.682  14.114  68.101  1.00  0.00    -0.212 OA 
HETATM   11  O   UNL     1     -10.178  12.378  66.317  1.00  0.00    -0.230 OA 
HETATM   12  O   UNL     1     -11.849  12.915  68.010  1.00  0.00    -0.346 OA 
ENDBRANCH   7   8
ENDBRANCH   6   7
ENDBRANCH   3   6
TORSDOF 3
ENDMDL
MODEL       91
REMARK 921   NORMALIZED FREE ENERGY PREDICTED BY IDOCK:   -3.17 KCAL/MOL
REMARK 922        TOTAL FREE ENERGY PREDICTED BY IDOCK:   -3.83 KCAL/MOL
REMARK 923 INTER-LIGAND FREE ENERGY PREDICTED BY IDOCK:   -3.34 KCAL/MOL
REMARK 924 INTRA-LIGAND FREE ENERGY PREDICTED BY IDOCK:   -0.50 KCAL/MOL
REMARK 927      BINDING AFFINITY PREDICTED BY RF-SCORE:    0.00 PKD
ROOT
HETATM    1  C   UNL     1     -13.599   9.695  71.996  1.00  0.00    -0.467 C  
HETATM    2  C   UNL     1     -12.444  10.087  71.116  1.00  0.00    -0.379 C  
HETATM    3  N   UNL     1     -11.810   9.014  70.534  1.00  0.00    -0.462 N  
HETATM    4  O   UNL     1     -12.104  11.254  70.949  1.00  0.00    -0.348 OA 
HETATM    5  H   UNL     1     -12.149   8.072  70.726  1.00  0.00     0.000 HD 
ENDROOT
BRANCH   3   6
HETATM    6  C   UNL     1     -10.673   9.188  69.657  1.00  0.00    -0.225 C  
BRANCH   6   7
HETATM    7  C   UNL     1      -9.512   8.282  70.047  1.00  0.00    -0.167 C  
BRANCH   7   8
HETATM    8  C   UNL     1      -8.817   8.819  71.289  1.00  0.00    -0.226 C  
HETATM    9  S   UNL     1      -9.107   7.775  72.706  1.00  0.00    -0.211 S  
HETATM   10  O   UNL     1      -8.428   6.513  72.542  1.00  0.00    -0.121 OA 
HETATM   11  O   UNL     1     -10.493   7.876  73.103  1.00  0.00    -0.345 OA 
HETATM   12  O   UNL     1      -8.285   8.654  73.782  1.00  0.00    -0.388 OA 
ENDBRANCH   7   8
ENDBRANCH   6   7
ENDBRANCH   3   6
TORSDOF 3
ENDMDL
MODEL       92
REMARK 921   NORMALIZED FREE ENERGY PREDICTED BY IDOCK:   -3.17 KCAL/MOL
REMARK 922        TOTAL FREE ENERGY PREDICTED BY IDOCK:   -3.83 KCAL/MOL
REMARK 923 INTER-LIGAND FREE ENERGY PREDICTED BY IDOCK:   -3.63 KCAL/MOL
REMARK 924 INTRA-LIGAND FREE ENERGY PREDICTED BY IDOCK:   -0.20 KCAL/MOL
REMARK 927      BINDING AFFINITY PREDICTED BY RF-SCORE:    0.00 PKD
ROOT
HETATM    1  C   UNL     1     -13.470   9.491  72.130  1.00  0.00    -0.535 C  
HETATM    2  C   UNL     1     -12.548  10.369  71.331  1.00  0.00    -0.434 C  
HETATM    3  N   UNL     1     -11.459   9.699  70.822  1.00  0.00    -0.302 N  
HETATM    4  O   UNL     1     -12.751  11.567  71.166  1.00  0.00    -0.393 OA 
HETATM    5  H   UNL     1     -11.356   8.703  71.008  1.00  0.00     0.000 HD 
ENDROOT
BRANCH   3   6
HETATM    6  C   UNL     1     -10.455  10.376  70.029  1.00  0.00    -0.182 C  
BRANCH   6   7
HETATM    7  C   UNL     1     -10.522   9.967  68.563  1.00  0.00    -0.232 C  
BRANCH   7   8
HETATM    8  C   UNL     1     -11.606  10.756  67.844  1.00  0.00    -0.128 C  
HETATM    9  S   UNL     1     -10.930  11.747  66.525  1.00  0.00    -0.304 S  
HETATM   10  O   UNL     1     -10.460  10.901  65.455  1.00  0.00    -0.261 OA 
HETATM   11  O   UNL     1     -10.139  12.819  67.085  1.00  0.00    -0.230 OA 
HETATM   12  O   UNL     1     -12.313  12.434  66.052  1.00  0.00    -0.627 OA 
ENDBRANCH   7   8
ENDBRANCH   6   7
ENDBRANCH   3   6
TORSDOF 3
ENDMDL
MODEL       93
REMARK 921   NORMALIZED FREE ENERGY PREDICTED BY IDOCK:   -3.16 KCAL/MOL
REMARK 922        TOTAL FREE ENERGY PREDICTED BY IDOCK:   -3.82 KCAL/MOL
REMARK 923 INTER-LIGAND FREE ENERGY PREDICTED BY IDOCK:   -3.64 KCAL/MOL
REMARK 924 INTRA-LIGAND FREE ENERGY PREDICTED BY IDOCK:   -0.18 KCAL/MOL
REMARK 927      BINDING AFFINITY PREDICTED BY RF-SCORE:    0.00 PKD
ROOT
HETATM    1  C   UNL     1      -8.958   9.217  69.980  1.00  0.00    -0.201 C  
HETATM    2  C   UNL     1      -9.959  10.242  69.527  1.00  0.00    -0.228 C  
HETATM    3  N   UNL     1      -9.384  11.413  69.089  1.00  0.00    -0.409 N  
HETATM    4  O   UNL     1     -11.170  10.047  69.559  1.00  0.00    -0.234 OA 
HETATM    5  H   UNL     1      -8.369  11.502  69.098  1.00  0.00     0.000 HD 
ENDROOT
BRANCH   3   6
HETATM    6  C   UNL     1     -10.185  12.522  68.616  1.00  0.00    -0.154 C  
BRANCH   6   7
HETATM    7  C   UNL     1     -10.148  12.639  67.098  1.00  0.00    -0.224 C  
BRANCH   7   8
HETATM    8  C   UNL     1     -11.562  12.678  66.537  1.00  0.00    -0.381 C  
HETATM    9  S   UNL     1     -11.558  12.778  64.756  1.00  0.00    -0.345 S  
HETATM   10  O   UNL     1     -11.077  11.542  64.188  1.00  0.00    -0.356 OA 
HETATM   11  O   UNL     1     -11.067  14.075  64.348  1.00  0.00    -0.365 OA 
HETATM   12  O   UNL     1     -13.158  12.838  64.549  1.00  0.00    -0.743 OA 
ENDBRANCH   7   8
ENDBRANCH   6   7
ENDBRANCH   3   6
TORSDOF 3
ENDMDL
MODEL       94
REMARK 921   NORMALIZED FREE ENERGY PREDICTED BY IDOCK:   -3.16 KCAL/MOL
REMARK 922        TOTAL FREE ENERGY PREDICTED BY IDOCK:   -3.82 KCAL/MOL
REMARK 923 INTER-LIGAND FREE ENERGY PREDICTED BY IDOCK:   -3.64 KCAL/MOL
REMARK 924 INTRA-LIGAND FREE ENERGY PREDICTED BY IDOCK:   -0.18 KCAL/MOL
REMARK 927      BINDING AFFINITY PREDICTED BY RF-SCORE:    0.00 PKD
ROOT
HETATM    1  C   UNL     1     -11.207  11.849  65.991  1.00  0.00    -0.377 C  
HETATM    2  C   UNL     1     -10.644  13.233  65.824  1.00  0.00    -0.284 C  
HETATM    3  N   UNL     1     -10.346  13.851  67.017  1.00  0.00    -0.265 N  
HETATM    4  O   UNL     1     -10.481  13.755  64.726  1.00  0.00    -0.400 OA 
HETATM    5  H   UNL     1     -10.515  13.353  67.890  1.00  0.00     0.000 HD 
ENDROOT
BRANCH   3   6
HETATM    6  C   UNL     1      -9.797  15.189  67.062  1.00  0.00    -0.230 C  
BRANCH   6   7
HETATM    7  C   UNL     1     -10.843  16.215  67.480  1.00  0.00    -0.284 C  
BRANCH   7   8
HETATM    8  C   UNL     1     -10.235  17.229  68.437  1.00  0.00    -0.358 C  
HETATM    9  S   UNL     1      -9.864  18.768  67.615  1.00  0.00    -0.339 S  
HETATM   10  O   UNL     1     -11.084  19.444  67.246  1.00  0.00    -0.458 OA 
HETATM   11  O   UNL     1      -8.766  18.569  66.695  1.00  0.00    -0.271 OA 
HETATM   12  O   UNL     1      -9.228  19.533  68.886  1.00  0.00    -0.377 OA 
ENDBRANCH   7   8
ENDBRANCH   6   7
ENDBRANCH   3   6
TORSDOF 3
ENDMDL
MODEL       95
REMARK 921   NORMALIZED FREE ENERGY PREDICTED BY IDOCK:   -3.15 KCAL/MOL
REMARK 922        TOTAL FREE ENERGY PREDICTED BY IDOCK:   -3.81 KCAL/MOL
REMARK 923 INTER-LIGAND FREE ENERGY PREDICTED BY IDOCK:   -3.68 KCAL/MOL
REMARK 924 INTRA-LIGAND FREE ENERGY PREDICTED BY IDOCK:   -0.13 KCAL/MOL
REMARK 927      BINDING AFFINITY PREDICTED BY RF-SCORE:    0.00 PKD
ROOT
HETATM    1  C   UNL     1     -10.960  13.201  68.586  1.00  0.00    -0.296 C  
HETATM    2  C   UNL     1     -11.810  12.014  68.946  1.00  0.00    -0.299 C  
HETATM    3  N   UNL     1     -11.839  11.751  70.296  1.00  0.00    -0.455 N  
HETATM    4  O   UNL     1     -12.405  11.347  68.107  1.00  0.00    -0.502 OA 
HETATM    5  H   UNL     1     -11.312  12.350  70.931  1.00  0.00     0.000 HD 
ENDROOT
BRANCH   3   6
HETATM    6  C   UNL     1     -12.600  10.646  70.838  1.00  0.00    -0.407 C  
BRANCH   6   7
HETATM    7  C   UNL     1     -11.794   9.353  70.842  1.00  0.00    -0.365 C  
BRANCH   7   8
HETATM    8  C   UNL     1     -11.449   8.950  72.268  1.00  0.00    -0.237 C  
HETATM    9  S   UNL     1     -10.855   7.271  72.350  1.00  0.00    -0.274 S  
HETATM   10  O   UNL     1      -9.562   7.167  71.720  1.00  0.00    -0.153 OA 
HETATM   11  O   UNL     1     -11.943   6.362  72.066  1.00  0.00    -0.329 OA 
HETATM   12  O   UNL     1     -10.644   7.204  73.949  1.00  0.00    -0.362 OA 
ENDBRANCH   7   8
ENDBRANCH   6   7
ENDBRANCH   3   6
TORSDOF 3
ENDMDL
MODEL       96
REMARK 921   NORMALIZED FREE ENERGY PREDICTED BY IDOCK:   -3.14 KCAL/MOL
REMARK 922        TOTAL FREE ENERGY PREDICTED BY IDOCK:   -3.80 KCAL/MOL
REMARK 923 INTER-LIGAND FREE ENERGY PREDICTED BY IDOCK:   -3.38 KCAL/MOL
REMARK 924 INTRA-LIGAND FREE ENERGY PREDICTED BY IDOCK:   -0.42 KCAL/MOL
REMARK 927      BINDING AFFINITY PREDICTED BY RF-SCORE:    0.00 PKD
ROOT
HETATM    1  C   UNL     1      -8.668   9.053  67.758  1.00  0.00    -0.125 C  
HETATM    2  C   UNL     1      -9.843   8.115  67.755  1.00  0.00    -0.166 C  
HETATM    3  N   UNL     1      -9.901   7.307  68.867  1.00  0.00    -0.156 N  
HETATM    4  O   UNL     1     -10.657   8.075  66.839  1.00  0.00    -0.338 OA 
HETATM    5  H   UNL     1      -9.182   7.395  69.584  1.00  0.00     0.000 HD 
ENDROOT
BRANCH   3   6
HETATM    6  C   UNL     1     -10.958   6.334  69.044  1.00  0.00    -0.372 C  
BRANCH   6   7
HETATM    7  C   UNL     1     -11.199   6.023  70.516  1.00  0.00    -0.363 C  
BRANCH   7   8
HETATM    8  C   UNL     1     -12.269   6.944  71.082  1.00  0.00    -0.379 C  
HETATM    9  S   UNL     1     -11.560   8.229  72.095  1.00  0.00    -0.390 S  
HETATM   10  O   UNL     1     -10.813   9.154  71.278  1.00  0.00    -0.275 OA 
HETATM   11  O   UNL     1     -11.031   7.647  73.309  1.00  0.00    -0.400 OA 
HETATM   12  O   UNL     1     -12.944   8.940  72.526  1.00  0.00    -0.418 OA 
ENDBRANCH   7   8
ENDBRANCH   6   7
ENDBRANCH   3   6
TORSDOF 3
ENDMDL
MODEL       97
REMARK 921   NORMALIZED FREE ENERGY PREDICTED BY IDOCK:   -3.13 KCAL/MOL
REMARK 922        TOTAL FREE ENERGY PREDICTED BY IDOCK:   -3.79 KCAL/MOL
REMARK 923 INTER-LIGAND FREE ENERGY PREDICTED BY IDOCK:   -3.43 KCAL/MOL
REMARK 924 INTRA-LIGAND FREE ENERGY PREDICTED BY IDOCK:   -0.36 KCAL/MOL
REMARK 927      BINDING AFFINITY PREDICTED BY RF-SCORE:    0.00 PKD
ROOT
HETATM    1  C   UNL     1     -12.211  14.109  66.676  1.00  0.00    -0.450 C  
HETATM    2  C   UNL     1     -12.012  13.006  65.674  1.00  0.00    -0.429 C  
HETATM    3  N   UNL     1     -10.878  12.260  65.898  1.00  0.00    -0.262 N  
HETATM    4  O   UNL     1     -12.788  12.806  64.746  1.00  0.00    -0.707 OA 
HETATM    5  H   UNL     1     -10.279  12.492  66.690  1.00  0.00     0.000 HD 
ENDROOT
BRANCH   3   6
HETATM    6  C   UNL     1     -10.514  11.155  65.038  1.00  0.00    -0.293 C  
BRANCH   6   7
HETATM    7  C   UNL     1      -9.948   9.984  65.831  1.00  0.00    -0.339 C  
BRANCH   7   8
HETATM    8  C   UNL     1     -10.547   9.953  67.229  1.00  0.00    -0.252 C  
HETATM    9  S   UNL     1      -9.339  10.375  68.470  1.00  0.00    -0.167 S  
HETATM   10  O   UNL     1      -8.978  11.768  68.363  1.00  0.00    -0.178 OA 
HETATM   11  O   UNL     1      -8.361   9.315  68.570  1.00  0.00    -0.116 OA 
HETATM   12  O   UNL     1     -10.296  10.200  69.759  1.00  0.00    -0.235 OA 
ENDBRANCH   7   8
ENDBRANCH   6   7
ENDBRANCH   3   6
TORSDOF 3
ENDMDL
MODEL       98
REMARK 921   NORMALIZED FREE ENERGY PREDICTED BY IDOCK:   -3.13 KCAL/MOL
REMARK 922        TOTAL FREE ENERGY PREDICTED BY IDOCK:   -3.78 KCAL/MOL
REMARK 923 INTER-LIGAND FREE ENERGY PREDICTED BY IDOCK:   -3.64 KCAL/MOL
REMARK 924 INTRA-LIGAND FREE ENERGY PREDICTED BY IDOCK:   -0.15 KCAL/MOL
REMARK 927      BINDING AFFINITY PREDICTED BY RF-SCORE:    0.00 PKD
ROOT
HETATM    1  C   UNL     1      -8.795   9.061  70.144  1.00  0.00    -0.196 C  
HETATM    2  C   UNL     1     -10.107   9.738  69.857  1.00  0.00    -0.251 C  
HETATM    3  N   UNL     1      -9.969  11.038  69.428  1.00  0.00    -0.429 N  
HETATM    4  O   UNL     1     -11.188   9.179  70.006  1.00  0.00    -0.231 OA 
HETATM    5  H   UNL     1      -9.035  11.434  69.335  1.00  0.00     0.000 HD 
ENDROOT
BRANCH   3   6
HETATM    6  C   UNL     1     -11.118  11.856  69.105  1.00  0.00    -0.228 C  
BRANCH   6   7
HETATM    7  C   UNL     1     -11.467  11.783  67.624  1.00  0.00    -0.370 C  
BRANCH   7   8
HETATM    8  C   UNL     1     -11.128  13.097  66.936  1.00  0.00    -0.282 C  
HETATM    9  S   UNL     1     -11.782  13.157  65.279  1.00  0.00    -0.366 S  
HETATM   10  O   UNL     1     -13.222  13.236  65.313  1.00  0.00    -0.625 OA 
HETATM   11  O   UNL     1     -11.065  12.219  64.444  1.00  0.00    -0.298 OA 
HETATM   12  O   UNL     1     -11.207  14.613  64.882  1.00  0.00    -0.360 OA 
ENDBRANCH   7   8
ENDBRANCH   6   7
ENDBRANCH   3   6
TORSDOF 3
ENDMDL
MODEL       99
REMARK 921   NORMALIZED FREE ENERGY PREDICTED BY IDOCK:   -3.13 KCAL/MOL
REMARK 922        TOTAL FREE ENERGY PREDICTED BY IDOCK:   -3.78 KCAL/MOL
REMARK 923 INTER-LIGAND FREE ENERGY PREDICTED BY IDOCK:   -3.60 KCAL/MOL
REMARK 924 INTRA-LIGAND FREE ENERGY PREDICTED BY IDOCK:   -0.18 KCAL/MOL
REMARK 927      BINDING AFFINITY PREDICTED BY RF-SCORE:    0.00 PKD
ROOT
HETATM    1  C   UNL     1     -12.445  12.118  63.599  1.00  0.00    -0.658 C  
HETATM    2  C   UNL     1     -12.447  12.871  64.900  1.00  0.00    -0.478 C  
HETATM    3  N   UNL     1     -11.599  12.338  65.843  1.00  0.00    -0.385 N  
HETATM    4  O   UNL     1     -13.149  13.858  65.094  1.00  0.00    -0.773 OA 
HETATM    5  H   UNL     1     -11.051  11.511  65.608  1.00  0.00     0.000 HD 
ENDROOT
BRANCH   3   6
HETATM    6  C   UNL     1     -11.466  12.921  67.160  1.00  0.00    -0.336 C  
BRANCH   6   7
HETATM    7  C   UNL     1     -10.253  13.838  67.253  1.00  0.00    -0.253 C  
BRANCH   7   8
HETATM    8  C   UNL     1      -8.986  13.076  66.895  1.00  0.00    -0.209 C  
HETATM    9  S   UNL     1      -7.548  13.794  67.668  1.00  0.00    -0.185 S  
HETATM   10  O   UNL     1      -7.592  13.588  69.095  1.00  0.00     0.016 OA 
HETATM   11  O   UNL     1      -7.271  15.080  67.067  1.00  0.00    -0.161 OA 
HETATM   12  O   UNL     1      -6.453  12.784  67.046  1.00  0.00    -0.180 OA 
ENDBRANCH   7   8
ENDBRANCH   6   7
ENDBRANCH   3   6
TORSDOF 3
ENDMDL
MODEL      100
REMARK 921   NORMALIZED FREE ENERGY PREDICTED BY IDOCK:   -3.13 KCAL/MOL
REMARK 922        TOTAL FREE ENERGY PREDICTED BY IDOCK:   -3.78 KCAL/MOL
REMARK 923 INTER-LIGAND FREE ENERGY PREDICTED BY IDOCK:   -3.40 KCAL/MOL
REMARK 924 INTRA-LIGAND FREE ENERGY PREDICTED BY IDOCK:   -0.38 KCAL/MOL
REMARK 927      BINDING AFFINITY PREDICTED BY RF-SCORE:    0.00 PKD
ROOT
HETATM    1  C   UNL     1     -12.339  12.238  63.737  1.00  0.00    -0.637 C  
HETATM    2  C   UNL     1     -12.114  13.410  64.652  1.00  0.00    -0.410 C  
HETATM    3  N   UNL     1     -11.158  13.178  65.614  1.00  0.00    -0.275 N  
HETATM    4  O   UNL     1     -12.737  14.462  64.547  1.00  0.00    -0.663 OA 
HETATM    5  H   UNL     1     -10.688  12.275  65.640  1.00  0.00     0.000 HD 
ENDROOT
BRANCH   3   6
HETATM    6  C   UNL     1     -10.804  14.186  66.590  1.00  0.00    -0.299 C  
BRANCH   6   7
HETATM    7  C   UNL     1     -10.317  13.565  67.893  1.00  0.00    -0.249 C  
BRANCH   7   8
HETATM    8  C   UNL     1      -9.135  12.644  67.629  1.00  0.00    -0.192 C  
HETATM    9  S   UNL     1      -9.541  10.941  67.970  1.00  0.00    -0.167 S  
HETATM   10  O   UNL     1     -10.487  10.450  66.998  1.00  0.00    -0.231 OA 
HETATM   11  O   UNL     1      -9.712  10.763  69.394  1.00  0.00    -0.173 OA 
HETATM   12  O   UNL     1      -8.094  10.311  67.628  1.00  0.00    -0.106 OA 
ENDBRANCH   7   8
ENDBRANCH   6   7
ENDBRANCH   3   6
TORSDOF 3
ENDMDL
MODEL      101
REMARK 921   NORMALIZED FREE ENERGY PREDICTED BY IDOCK:   -3.12 KCAL/MOL
REMARK 922        TOTAL FREE ENERGY PREDICTED BY IDOCK:   -3.78 KCAL/MOL
REMARK 923 INTER-LIGAND FREE ENERGY PREDICTED BY IDOCK:   -3.58 KCAL/MOL
REMARK 924 INTRA-LIGAND FREE ENERGY PREDICTED BY IDOCK:   -0.20 KCAL/MOL
REMARK 927      BINDING AFFINITY PREDICTED BY RF-SCORE:    0.00 PKD
ROOT
HETATM    1  C   UNL     1     -14.193   7.830  71.608  1.00  0.00    -0.572 C  
HETATM    2  C   UNL     1     -13.106   8.868  71.592  1.00  0.00    -0.357 C  
HETATM    3  N   UNL     1     -13.376   9.931  70.761  1.00  0.00    -0.605 N  
HETATM    4  O   UNL     1     -12.077   8.761  72.251  1.00  0.00    -0.366 OA 
HETATM    5  H   UNL     1     -14.252   9.945  70.241  1.00  0.00     0.000 HD 
ENDROOT
BRANCH   3   6
HETATM    6  C   UNL     1     -12.447  11.030  70.608  1.00  0.00    -0.373 C  
BRANCH   6   7
HETATM    7  C   UNL     1     -11.848  11.074  69.208  1.00  0.00    -0.411 C  
BRANCH   7   8
HETATM    8  C   UNL     1     -10.591  10.219  69.144  1.00  0.00    -0.230 C  
HETATM    9  S   UNL     1      -9.579  10.644  67.738  1.00  0.00    -0.159 S  
HETATM   10  O   UNL     1      -9.005  11.955  67.915  1.00  0.00    -0.165 OA 
HETATM   11  O   UNL     1     -10.248  10.235  66.524  1.00  0.00    -0.220 OA 
HETATM   12  O   UNL     1      -8.418   9.548  67.981  1.00  0.00    -0.118 OA 
ENDBRANCH   7   8
ENDBRANCH   6   7
ENDBRANCH   3   6
TORSDOF 3
ENDMDL
MODEL      102
REMARK 921   NORMALIZED FREE ENERGY PREDICTED BY IDOCK:   -3.11 KCAL/MOL
REMARK 922        TOTAL FREE ENERGY PREDICTED BY IDOCK:   -3.76 KCAL/MOL
REMARK 923 INTER-LIGAND FREE ENERGY PREDICTED BY IDOCK:   -3.40 KCAL/MOL
REMARK 924 INTRA-LIGAND FREE ENERGY PREDICTED BY IDOCK:   -0.36 KCAL/MOL
REMARK 927      BINDING AFFINITY PREDICTED BY RF-SCORE:    0.00 PKD
ROOT
HETATM    1  C   UNL     1      -6.758  16.898  66.912  1.00  0.00    -0.252 C  
HETATM    2  C   UNL     1      -8.105  16.840  66.248  1.00  0.00    -0.330 C  
HETATM    3  N   UNL     1      -8.597  15.561  66.117  1.00  0.00    -0.401 N  
HETATM    4  O   UNL     1      -8.695  17.841  65.855  1.00  0.00    -0.514 OA 
HETATM    5  H   UNL     1      -8.044  14.778  66.465  1.00  0.00     0.000 HD 
ENDROOT
BRANCH   3   6
HETATM    6  C   UNL     1      -9.879  15.300  65.500  1.00  0.00    -0.326 C  
BRANCH   6   7
HETATM    7  C   UNL     1     -11.030  15.502  66.478  1.00  0.00    -0.243 C  
BRANCH   7   8
HETATM    8  C   UNL     1     -11.495  14.163  67.029  1.00  0.00    -0.352 C  
HETATM    9  S   UNL     1     -10.793  13.835  68.635  1.00  0.00    -0.267 S  
HETATM   10  O   UNL     1     -11.347  14.737  69.616  1.00  0.00    -0.259 OA 
HETATM   11  O   UNL     1      -9.373  13.596  68.500  1.00  0.00    -0.194 OA 
HETATM   12  O   UNL     1     -11.455  12.380  68.858  1.00  0.00    -0.262 OA 
ENDBRANCH   7   8
ENDBRANCH   6   7
ENDBRANCH   3   6
TORSDOF 3
ENDMDL
MODEL      103
REMARK 921   NORMALIZED FREE ENERGY PREDICTED BY IDOCK:   -3.10 KCAL/MOL
REMARK 922        TOTAL FREE ENERGY PREDICTED BY IDOCK:   -3.76 KCAL/MOL
REMARK 923 INTER-LIGAND FREE ENERGY PREDICTED BY IDOCK:   -3.59 KCAL/MOL
REMARK 924 INTRA-LIGAND FREE ENERGY PREDICTED BY IDOCK:   -0.17 KCAL/MOL
REMARK 927      BINDING AFFINITY PREDICTED BY RF-SCORE:    0.00 PKD
ROOT
HETATM    1  C   UNL     1      -8.839   8.248  65.743  1.00  0.00    -0.194 C  
HETATM    2  C   UNL     1      -9.914   8.734  66.675  1.00  0.00    -0.285 C  
HETATM    3  N   UNL     1      -9.868  10.090  66.904  1.00  0.00    -0.188 N  
HETATM    4  O   UNL     1     -10.740   7.983  67.183  1.00  0.00    -0.322 OA 
HETATM    5  H   UNL     1      -9.147  10.647  66.448  1.00  0.00     0.000 HD 
ENDROOT
BRANCH   3   6
HETATM    6  C   UNL     1     -10.818  10.745  67.777  1.00  0.00    -0.269 C  
BRANCH   6   7
HETATM    7  C   UNL     1     -11.774  11.642  67.001  1.00  0.00    -0.176 C  
BRANCH   7   8
HETATM    8  C   UNL     1     -10.995  12.652  66.173  1.00  0.00    -0.282 C  
HETATM    9  S   UNL     1     -11.905  14.172  65.964  1.00  0.00    -0.412 S  
HETATM   10  O   UNL     1     -12.002  14.872  67.222  1.00  0.00    -0.316 OA 
HETATM   11  O   UNL     1     -13.044  13.936  65.106  1.00  0.00    -0.773 OA 
HETATM   12  O   UNL     1     -10.822  14.937  65.043  1.00  0.00    -0.371 OA 
ENDBRANCH   7   8
ENDBRANCH   6   7
ENDBRANCH   3   6
TORSDOF 3
ENDMDL
MODEL      104
REMARK 921   NORMALIZED FREE ENERGY PREDICTED BY IDOCK:   -3.10 KCAL/MOL
REMARK 922        TOTAL FREE ENERGY PREDICTED BY IDOCK:   -3.75 KCAL/MOL
REMARK 923 INTER-LIGAND FREE ENERGY PREDICTED BY IDOCK:   -3.39 KCAL/MOL
REMARK 924 INTRA-LIGAND FREE ENERGY PREDICTED BY IDOCK:   -0.36 KCAL/MOL
REMARK 927      BINDING AFFINITY PREDICTED BY RF-SCORE:    0.00 PKD
ROOT
HETATM    1  C   UNL     1      -9.763  10.210  65.875  1.00  0.00    -0.292 C  
HETATM    2  C   UNL     1     -10.885  11.091  66.349  1.00  0.00    -0.191 C  
HETATM    3  N   UNL     1     -11.215  12.085  65.457  1.00  0.00    -0.322 N  
HETATM    4  O   UNL     1     -11.438  10.935  67.433  1.00  0.00    -0.479 OA 
HETATM    5  H   UNL     1     -10.704  12.153  64.577  1.00  0.00     0.000 HD 
ENDROOT
BRANCH   3   6
HETATM    6  C   UNL     1     -12.269  13.037  65.736  1.00  0.00    -0.453 C  
BRANCH   6   7
HETATM    7  C   UNL     1     -11.711  14.387  66.169  1.00  0.00    -0.384 C  
BRANCH   7   8
HETATM    8  C   UNL     1     -11.860  14.561  67.673  1.00  0.00    -0.364 C  
HETATM    9  S   UNL     1     -10.279  14.796  68.465  1.00  0.00    -0.238 S  
HETATM   10  O   UNL     1      -9.723  16.076  68.100  1.00  0.00    -0.214 OA 
HETATM   11  O   UNL     1      -9.524  13.565  68.407  1.00  0.00    -0.211 OA 
HETATM   12  O   UNL     1     -10.821  14.897  69.983  1.00  0.00    -0.239 OA 
ENDBRANCH   7   8
ENDBRANCH   6   7
ENDBRANCH   3   6
TORSDOF 3
ENDMDL
MODEL      105
REMARK 921   NORMALIZED FREE ENERGY PREDICTED BY IDOCK:   -3.09 KCAL/MOL
REMARK 922        TOTAL FREE ENERGY PREDICTED BY IDOCK:   -3.74 KCAL/MOL
REMARK 923 INTER-LIGAND FREE ENERGY PREDICTED BY IDOCK:   -3.30 KCAL/MOL
REMARK 924 INTRA-LIGAND FREE ENERGY PREDICTED BY IDOCK:   -0.44 KCAL/MOL
REMARK 927      BINDING AFFINITY PREDICTED BY RF-SCORE:    0.00 PKD
ROOT
HETATM    1  C   UNL     1      -6.251  16.031  67.386  1.00  0.00    -0.191 C  
HETATM    2  C   UNL     1      -7.730  15.764  67.384  1.00  0.00    -0.183 C  
HETATM    3  N   UNL     1      -8.370  16.233  66.259  1.00  0.00    -0.324 N  
HETATM    4  O   UNL     1      -8.302  15.193  68.306  1.00  0.00    -0.142 OA 
HETATM    5  H   UNL     1      -7.825  16.704  65.537  1.00  0.00     0.000 HD 
ENDROOT
BRANCH   3   6
HETATM    6  C   UNL     1      -9.796  16.075  66.076  1.00  0.00    -0.337 C  
BRANCH   6   7
HETATM    7  C   UNL     1     -10.524  17.413  66.120  1.00  0.00    -0.284 C  
BRANCH   7   8
HETATM    8  C   UNL     1     -10.563  17.946  67.544  1.00  0.00    -0.376 C  
HETATM    9  S   UNL     1      -9.558  19.409  67.724  1.00  0.00    -0.352 S  
HETATM   10  O   UNL     1     -10.149  20.512  67.007  1.00  0.00    -0.429 OA 
HETATM   11  O   UNL     1      -8.162  19.051  67.605  1.00  0.00    -0.268 OA 
HETATM   12  O   UNL     1      -9.810  19.640  69.302  1.00  0.00    -0.416 OA 
ENDBRANCH   7   8
ENDBRANCH   6   7
ENDBRANCH   3   6
TORSDOF 3
ENDMDL
MODEL      106
REMARK 921   NORMALIZED FREE ENERGY PREDICTED BY IDOCK:   -3.09 KCAL/MOL
REMARK 922        TOTAL FREE ENERGY PREDICTED BY IDOCK:   -3.74 KCAL/MOL
REMARK 923 INTER-LIGAND FREE ENERGY PREDICTED BY IDOCK:   -3.26 KCAL/MOL
REMARK 924 INTRA-LIGAND FREE ENERGY PREDICTED BY IDOCK:   -0.48 KCAL/MOL
REMARK 927      BINDING AFFINITY PREDICTED BY RF-SCORE:    0.00 PKD
ROOT
HETATM    1  C   UNL     1     -13.801   8.232  71.543  1.00  0.00    -0.382 C  
HETATM    2  C   UNL     1     -12.816   7.107  71.385  1.00  0.00    -0.384 C  
HETATM    3  N   UNL     1     -12.073   7.188  70.230  1.00  0.00    -0.588 N  
HETATM    4  O   UNL     1     -12.702   6.205  72.208  1.00  0.00    -0.140 OA 
HETATM    5  H   UNL     1     -12.229   7.967  69.592  1.00  0.00     0.000 HD 
ENDROOT
BRANCH   3   6
HETATM    6  C   UNL     1     -11.074   6.194  69.899  1.00  0.00    -0.410 C  
BRANCH   6   7
HETATM    7  C   UNL     1      -9.661   6.717  70.120  1.00  0.00    -0.165 C  
BRANCH   7   8
HETATM    8  C   UNL     1      -9.441   7.997  69.327  1.00  0.00    -0.155 C  
HETATM    9  S   UNL     1      -9.208   9.402  70.401  1.00  0.00    -0.253 S  
HETATM   10  O   UNL     1      -7.948   9.296  71.095  1.00  0.00    -0.292 OA 
HETATM   11  O   UNL     1     -10.452   9.707  71.072  1.00  0.00    -0.304 OA 
HETATM   12  O   UNL     1      -9.055  10.521  69.247  1.00  0.00    -0.189 OA 
ENDBRANCH   7   8
ENDBRANCH   6   7
ENDBRANCH   3   6
TORSDOF 3
ENDMDL
MODEL      107
REMARK 921   NORMALIZED FREE ENERGY PREDICTED BY IDOCK:   -3.08 KCAL/MOL
REMARK 922        TOTAL FREE ENERGY PREDICTED BY IDOCK:   -3.73 KCAL/MOL
REMARK 923 INTER-LIGAND FREE ENERGY PREDICTED BY IDOCK:   -3.65 KCAL/MOL
REMARK 924 INTRA-LIGAND FREE ENERGY PREDICTED BY IDOCK:   -0.08 KCAL/MOL
REMARK 927      BINDING AFFINITY PREDICTED BY RF-SCORE:    0.00 PKD
ROOT
HETATM    1  C   UNL     1     -10.882   7.922  73.040  1.00  0.00    -0.408 C  
HETATM    2  C   UNL     1     -11.137   8.416  71.643  1.00  0.00    -0.278 C  
HETATM    3  N   UNL     1     -10.135   9.225  71.157  1.00  0.00    -0.307 N  
HETATM    4  O   UNL     1     -12.148   8.128  71.011  1.00  0.00    -0.286 OA 
HETATM    5  H   UNL     1      -9.326   9.423  71.745  1.00  0.00     0.000 HD 
ENDROOT
BRANCH   3   6
HETATM    6  C   UNL     1     -10.201   9.801  69.831  1.00  0.00    -0.254 C  
BRANCH   6   7
HETATM    7  C   UNL     1     -11.204  10.945  69.761  1.00  0.00    -0.351 C  
BRANCH   7   8
HETATM    8  C   UNL     1     -11.778  11.059  68.357  1.00  0.00    -0.259 C  
HETATM    9  S   UNL     1     -11.361  12.619  67.602  1.00  0.00    -0.331 S  
HETATM   10  O   UNL     1      -9.948  12.676  67.319  1.00  0.00    -0.209 OA 
HETATM   11  O   UNL     1     -12.073  13.684  68.273  1.00  0.00    -0.357 OA 
HETATM   12  O   UNL     1     -12.145  12.390  66.208  1.00  0.00    -0.612 OA 
ENDBRANCH   7   8
ENDBRANCH   6   7
ENDBRANCH   3   6
TORSDOF 3
ENDMDL
MODEL      108
REMARK 921   NORMALIZED FREE ENERGY PREDICTED BY IDOCK:   -3.07 KCAL/MOL
REMARK 922        TOTAL FREE ENERGY PREDICTED BY IDOCK:   -3.71 KCAL/MOL
REMARK 923 INTER-LIGAND FREE ENERGY PREDICTED BY IDOCK:   -3.34 KCAL/MOL
REMARK 924 INTRA-LIGAND FREE ENERGY PREDICTED BY IDOCK:   -0.37 KCAL/MOL
REMARK 927      BINDING AFFINITY PREDICTED BY RF-SCORE:    0.00 PKD
ROOT
HETATM    1  C   UNL     1      -6.613  14.505  69.666  1.00  0.00    -0.153 C  
HETATM    2  C   UNL     1      -7.782  15.431  69.476  1.00  0.00    -0.210 C  
HETATM    3  N   UNL     1      -8.986  14.776  69.361  1.00  0.00    -0.416 N  
HETATM    4  O   UNL     1      -7.660  16.651  69.421  1.00  0.00    -0.201 OA 
HETATM    5  H   UNL     1      -9.006  13.759  69.412  1.00  0.00     0.000 HD 
ENDROOT
BRANCH   3   6
HETATM    6  C   UNL     1     -10.227  15.497  69.169  1.00  0.00    -0.240 C  
BRANCH   6   7
HETATM    7  C   UNL     1     -11.410  14.760  69.783  1.00  0.00    -0.319 C  
BRANCH   7   8
HETATM    8  C   UNL     1     -12.006  13.786  68.776  1.00  0.00    -0.365 C  
HETATM    9  S   UNL     1     -11.454  12.117  69.072  1.00  0.00    -0.319 S  
HETATM   10  O   UNL     1     -12.020  11.614  70.300  1.00  0.00    -0.338 OA 
HETATM   11  O   UNL     1     -10.048  12.011  68.753  1.00  0.00    -0.190 OA 
HETATM   12  O   UNL     1     -12.229  11.421  67.838  1.00  0.00    -0.592 OA 
ENDBRANCH   7   8
ENDBRANCH   6   7
ENDBRANCH   3   6
TORSDOF 3
ENDMDL
MODEL      109
REMARK 921   NORMALIZED FREE ENERGY PREDICTED BY IDOCK:   -3.06 KCAL/MOL
REMARK 922        TOTAL FREE ENERGY PREDICTED BY IDOCK:   -3.71 KCAL/MOL
REMARK 923 INTER-LIGAND FREE ENERGY PREDICTED BY IDOCK:   -3.57 KCAL/MOL
REMARK 924 INTRA-LIGAND FREE ENERGY PREDICTED BY IDOCK:   -0.14 KCAL/MOL
REMARK 927      BINDING AFFINITY PREDICTED BY RF-SCORE:    0.00 PKD
ROOT
HETATM    1  C   UNL     1     -12.298  12.941  65.191  1.00  0.00    -0.547 C  
HETATM    2  C   UNL     1     -11.943  12.892  66.652  1.00  0.00    -0.366 C  
HETATM    3  N   UNL     1     -11.983  14.122  67.267  1.00  0.00    -0.442 N  
HETATM    4  O   UNL     1     -11.637  11.851  67.225  1.00  0.00    -0.428 OA 
HETATM    5  H   UNL     1     -12.242  14.943  66.720  1.00  0.00     0.000 HD 
ENDROOT
BRANCH   3   6
HETATM    6  C   UNL     1     -11.669  14.280  68.670  1.00  0.00    -0.345 C  
BRANCH   6   7
HETATM    7  C   UNL     1     -11.364  15.730  69.022  1.00  0.00    -0.354 C  
BRANCH   7   8
HETATM    8  C   UNL     1      -9.985  15.840  69.656  1.00  0.00    -0.284 C  
HETATM    9  S   UNL     1      -8.713  16.059  68.425  1.00  0.00    -0.194 S  
HETATM   10  O   UNL     1      -8.831  17.359  67.810  1.00  0.00    -0.226 OA 
HETATM   11  O   UNL     1      -8.566  14.839  67.663  1.00  0.00    -0.157 OA 
HETATM   12  O   UNL     1      -7.453  16.092  69.434  1.00  0.00    -0.226 OA 
ENDBRANCH   7   8
ENDBRANCH   6   7
ENDBRANCH   3   6
TORSDOF 3
ENDMDL
MODEL      110
REMARK 921   NORMALIZED FREE ENERGY PREDICTED BY IDOCK:   -3.06 KCAL/MOL
REMARK 922        TOTAL FREE ENERGY PREDICTED BY IDOCK:   -3.70 KCAL/MOL
REMARK 923 INTER-LIGAND FREE ENERGY PREDICTED BY IDOCK:   -3.38 KCAL/MOL
REMARK 924 INTRA-LIGAND FREE ENERGY PREDICTED BY IDOCK:   -0.32 KCAL/MOL
REMARK 927      BINDING AFFINITY PREDICTED BY RF-SCORE:    0.00 PKD
ROOT
HETATM    1  C   UNL     1      -9.804  10.670  63.672  1.00  0.00    -0.392 C  
HETATM    2  C   UNL     1     -10.479  11.792  64.411  1.00  0.00    -0.311 C  
HETATM    3  N   UNL     1      -9.779  12.221  65.515  1.00  0.00    -0.373 N  
HETATM    4  O   UNL     1     -11.556  12.264  64.059  1.00  0.00    -0.354 OA 
HETATM    5  H   UNL     1      -8.893  11.774  65.745  1.00  0.00     0.000 HD 
ENDROOT
BRANCH   3   6
HETATM    6  C   UNL     1     -10.270  13.290  66.357  1.00  0.00    -0.292 C  
BRANCH   6   7
HETATM    7  C   UNL     1      -9.767  13.159  67.789  1.00  0.00    -0.218 C  
BRANCH   7   8
HETATM    8  C   UNL     1     -10.919  12.829  68.725  1.00  0.00    -0.250 C  
HETATM    9  S   UNL     1     -11.180  11.069  68.849  1.00  0.00    -0.292 S  
HETATM   10  O   UNL     1     -10.081  10.449  69.546  1.00  0.00    -0.229 OA 
HETATM   11  O   UNL     1     -11.697  10.570  67.594  1.00  0.00    -0.401 OA 
HETATM   12  O   UNL     1     -12.448  11.117  69.848  1.00  0.00    -0.270 OA 
ENDBRANCH   7   8
ENDBRANCH   6   7
ENDBRANCH   3   6
TORSDOF 3
ENDMDL
MODEL      111
REMARK 921   NORMALIZED FREE ENERGY PREDICTED BY IDOCK:   -3.04 KCAL/MOL
REMARK 922        TOTAL FREE ENERGY PREDICTED BY IDOCK:   -3.68 KCAL/MOL
REMARK 923 INTER-LIGAND FREE ENERGY PREDICTED BY IDOCK:   -3.54 KCAL/MOL
REMARK 924 INTRA-LIGAND FREE ENERGY PREDICTED BY IDOCK:   -0.14 KCAL/MOL
REMARK 927      BINDING AFFINITY PREDICTED BY RF-SCORE:    0.00 PKD
ROOT
HETATM    1  C   UNL     1      -6.770  11.610  68.535  1.00  0.00    -0.069 C  
HETATM    2  C   UNL     1      -7.424  12.954  68.373  1.00  0.00    -0.124 C  
HETATM    3  N   UNL     1      -8.198  13.053  67.240  1.00  0.00    -0.239 N  
HETATM    4  O   UNL     1      -7.266  13.869  69.174  1.00  0.00    -0.104 OA 
HETATM    5  H   UNL     1      -8.275  12.248  66.619  1.00  0.00     0.000 HD 
ENDROOT
BRANCH   3   6
HETATM    6  C   UNL     1      -8.905  14.271  66.908  1.00  0.00    -0.213 C  
BRANCH   6   7
HETATM    7  C   UNL     1     -10.408  14.042  66.803  1.00  0.00    -0.271 C  
BRANCH   7   8
HETATM    8  C   UNL     1     -11.030  15.050  65.848  1.00  0.00    -0.343 C  
HETATM    9  S   UNL     1     -12.223  14.281  64.769  1.00  0.00    -0.428 S  
HETATM   10  O   UNL     1     -13.384  13.870  65.520  1.00  0.00    -0.662 OA 
HETATM   11  O   UNL     1     -11.540  13.410  63.839  1.00  0.00    -0.392 OA 
HETATM   12  O   UNL     1     -12.612  15.598  63.920  1.00  0.00    -0.697 OA 
ENDBRANCH   7   8
ENDBRANCH   6   7
ENDBRANCH   3   6
TORSDOF 3
ENDMDL
MODEL      112
REMARK 921   NORMALIZED FREE ENERGY PREDICTED BY IDOCK:   -3.04 KCAL/MOL
REMARK 922        TOTAL FREE ENERGY PREDICTED BY IDOCK:   -3.68 KCAL/MOL
REMARK 923 INTER-LIGAND FREE ENERGY PREDICTED BY IDOCK:   -3.55 KCAL/MOL
REMARK 924 INTRA-LIGAND FREE ENERGY PREDICTED BY IDOCK:   -0.13 KCAL/MOL
REMARK 927      BINDING AFFINITY PREDICTED BY RF-SCORE:    0.00 PKD
ROOT
HETATM    1  C   UNL     1     -13.822   7.136  71.684  1.00  0.00    -0.418 C  
HETATM    2  C   UNL     1     -12.324   7.088  71.571  1.00  0.00    -0.379 C  
HETATM    3  N   UNL     1     -11.862   7.331  70.298  1.00  0.00    -0.537 N  
HETATM    4  O   UNL     1     -11.595   6.844  72.527  1.00  0.00    -0.261 OA 
HETATM    5  H   UNL     1     -12.533   7.520  69.554  1.00  0.00     0.000 HD 
ENDROOT
BRANCH   3   6
HETATM    6  C   UNL     1     -10.449   7.324  69.989  1.00  0.00    -0.224 C  
BRANCH   6   7
HETATM    7  C   UNL     1      -9.984   8.666  69.437  1.00  0.00    -0.197 C  
BRANCH   7   8
HETATM    8  C   UNL     1     -10.632   9.807  70.207  1.00  0.00    -0.292 C  
HETATM    9  S   UNL     1     -11.069  11.159  69.130  1.00  0.00    -0.270 S  
HETATM   10  O   UNL     1     -12.151  10.774  68.258  1.00  0.00    -0.496 OA 
HETATM   11  O   UNL     1      -9.865  11.802  68.652  1.00  0.00    -0.198 OA 
HETATM   12  O   UNL     1     -11.661  12.144  70.264  1.00  0.00    -0.279 OA 
ENDBRANCH   7   8
ENDBRANCH   6   7
ENDBRANCH   3   6
TORSDOF 3
ENDMDL
MODEL      113
REMARK 921   NORMALIZED FREE ENERGY PREDICTED BY IDOCK:   -3.04 KCAL/MOL
REMARK 922        TOTAL FREE ENERGY PREDICTED BY IDOCK:   -3.68 KCAL/MOL
REMARK 923 INTER-LIGAND FREE ENERGY PREDICTED BY IDOCK:   -3.26 KCAL/MOL
REMARK 924 INTRA-LIGAND FREE ENERGY PREDICTED BY IDOCK:   -0.42 KCAL/MOL
REMARK 927      BINDING AFFINITY PREDICTED BY RF-SCORE:    0.00 PKD
ROOT
HETATM    1  C   UNL     1      -9.020  19.948  67.541  1.00  0.00    -0.422 C  
HETATM    2  C   UNL     1      -8.996  18.836  66.529  1.00  0.00    -0.319 C  
HETATM    3  N   UNL     1     -10.138  18.069  66.531  1.00  0.00    -0.360 N  
HETATM    4  O   UNL     1      -8.040  18.635  65.787  1.00  0.00    -0.479 OA 
HETATM    5  H   UNL     1     -10.888  18.296  67.183  1.00  0.00     0.000 HD 
ENDROOT
BRANCH   3   6
HETATM    6  C   UNL     1     -10.301  16.948  65.631  1.00  0.00    -0.237 C  
BRANCH   6   7
HETATM    7  C   UNL     1     -10.634  15.664  66.380  1.00  0.00    -0.308 C  
BRANCH   7   8
HETATM    8  C   UNL     1      -9.638  15.438  67.507  1.00  0.00    -0.206 C  
HETATM    9  S   UNL     1     -10.395  15.662  69.106  1.00  0.00    -0.260 S  
HETATM   10  O   UNL     1     -11.339  14.601  69.364  1.00  0.00    -0.257 OA 
HETATM   11  O   UNL     1     -10.711  17.059  69.298  1.00  0.00    -0.323 OA 
HETATM   12  O   UNL     1      -9.077  15.391  69.999  1.00  0.00    -0.090 OA 
ENDBRANCH   7   8
ENDBRANCH   6   7
ENDBRANCH   3   6
TORSDOF 3
ENDMDL
MODEL      114
REMARK 921   NORMALIZED FREE ENERGY PREDICTED BY IDOCK:   -3.03 KCAL/MOL
REMARK 922        TOTAL FREE ENERGY PREDICTED BY IDOCK:   -3.66 KCAL/MOL
REMARK 923 INTER-LIGAND FREE ENERGY PREDICTED BY IDOCK:   -3.24 KCAL/MOL
REMARK 924 INTRA-LIGAND FREE ENERGY PREDICTED BY IDOCK:   -0.43 KCAL/MOL
REMARK 927      BINDING AFFINITY PREDICTED BY RF-SCORE:    0.00 PKD
ROOT
HETATM    1  C   UNL     1      -5.448  19.437  69.482  1.00  0.00    -0.226 C  
HETATM    2  C   UNL     1      -6.087  18.173  68.978  1.00  0.00    -0.227 C  
HETATM    3  N   UNL     1      -6.293  18.168  67.617  1.00  0.00    -0.173 N  
HETATM    4  O   UNL     1      -6.399  17.247  69.719  1.00  0.00    -0.235 OA 
HETATM    5  H   UNL     1      -6.011  18.979  67.069  1.00  0.00     0.000 HD 
ENDROOT
BRANCH   3   6
HETATM    6  C   UNL     1      -6.900  17.039  66.946  1.00  0.00    -0.212 C  
BRANCH   6   7
HETATM    7  C   UNL     1      -8.249  17.401  66.338  1.00  0.00    -0.306 C  
BRANCH   7   8
HETATM    8  C   UNL     1      -9.182  17.945  67.409  1.00  0.00    -0.253 C  
HETATM    9  S   UNL     1      -9.545  19.672  67.148  1.00  0.00    -0.373 S  
HETATM   10  O   UNL     1     -10.361  19.838  65.971  1.00  0.00    -0.471 OA 
HETATM   11  O   UNL     1      -8.356  20.456  67.399  1.00  0.00    -0.333 OA 
HETATM   12  O   UNL     1     -10.482  19.884  68.446  1.00  0.00    -0.430 OA 
ENDBRANCH   7   8
ENDBRANCH   6   7
ENDBRANCH   3   6
TORSDOF 3
ENDMDL
MODEL      115
REMARK 921   NORMALIZED FREE ENERGY PREDICTED BY IDOCK:   -3.02 KCAL/MOL
REMARK 922        TOTAL FREE ENERGY PREDICTED BY IDOCK:   -3.66 KCAL/MOL
REMARK 923 INTER-LIGAND FREE ENERGY PREDICTED BY IDOCK:   -3.34 KCAL/MOL
REMARK 924 INTRA-LIGAND FREE ENERGY PREDICTED BY IDOCK:   -0.33 KCAL/MOL
REMARK 927      BINDING AFFINITY PREDICTED BY RF-SCORE:    0.00 PKD
ROOT
HETATM    1  C   UNL     1      -7.533  11.911  67.266  1.00  0.00    -0.151 C  
HETATM    2  C   UNL     1      -8.913  11.758  66.691  1.00  0.00    -0.195 C  
HETATM    3  N   UNL     1      -9.367  12.888  66.050  1.00  0.00    -0.453 N  
HETATM    4  O   UNL     1      -9.566  10.725  66.799  1.00  0.00    -0.167 OA 
HETATM    5  H   UNL     1      -8.767  13.710  66.007  1.00  0.00     0.000 HD 
ENDROOT
BRANCH   3   6
HETATM    6  C   UNL     1     -10.676  12.937  65.435  1.00  0.00    -0.285 C  
BRANCH   6   7
HETATM    7  C   UNL     1     -11.789  12.985  66.474  1.00  0.00    -0.464 C  
BRANCH   7   8
HETATM    8  C   UNL     1     -12.010  14.415  66.945  1.00  0.00    -0.399 C  
HETATM    9  S   UNL     1     -11.497  14.635  68.638  1.00  0.00    -0.318 S  
HETATM   10  O   UNL     1     -10.062  14.538  68.741  1.00  0.00    -0.233 OA 
HETATM   11  O   UNL     1     -12.399  13.918  69.512  1.00  0.00    -0.333 OA 
HETATM   12  O   UNL     1     -11.908  16.191  68.778  1.00  0.00    -0.339 OA 
ENDBRANCH   7   8
ENDBRANCH   6   7
ENDBRANCH   3   6
TORSDOF 3
ENDMDL
MODEL      116
REMARK 921   NORMALIZED FREE ENERGY PREDICTED BY IDOCK:   -3.00 KCAL/MOL
REMARK 922        TOTAL FREE ENERGY PREDICTED BY IDOCK:   -3.64 KCAL/MOL
REMARK 923 INTER-LIGAND FREE ENERGY PREDICTED BY IDOCK:   -3.15 KCAL/MOL
REMARK 924 INTRA-LIGAND FREE ENERGY PREDICTED BY IDOCK:   -0.49 KCAL/MOL
REMARK 927      BINDING AFFINITY PREDICTED BY RF-SCORE:    0.00 PKD
ROOT
HETATM    1  C   UNL     1     -13.156   9.845  71.413  1.00  0.00    -0.500 C  
HETATM    2  C   UNL     1     -12.526  10.863  70.504  1.00  0.00    -0.351 C  
HETATM    3  N   UNL     1     -12.117  10.342  69.298  1.00  0.00    -0.517 N  
HETATM    4  O   UNL     1     -12.386  12.039  70.822  1.00  0.00    -0.375 OA 
HETATM    5  H   UNL     1     -12.264   9.351  69.109  1.00  0.00     0.000 HD 
ENDROOT
BRANCH   3   6
HETATM    6  C   UNL     1     -11.484  11.165  68.290  1.00  0.00    -0.303 C  
BRANCH   6   7
HETATM    7  C   UNL     1     -10.127  10.610  67.876  1.00  0.00    -0.194 C  
BRANCH   7   8
HETATM    8  C   UNL     1      -9.126  10.761  69.012  1.00  0.00    -0.143 C  
HETATM    9  S   UNL     1      -8.706   9.184  69.730  1.00  0.00    -0.166 S  
HETATM   10  O   UNL     1      -7.936   8.399  68.796  1.00  0.00    -0.115 OA 
HETATM   11  O   UNL     1      -9.850   8.659  70.443  1.00  0.00    -0.175 OA 
HETATM   12  O   UNL     1      -7.705   9.735  70.870  1.00  0.00    -0.312 OA 
ENDBRANCH   7   8
ENDBRANCH   6   7
ENDBRANCH   3   6
TORSDOF 3
ENDMDL
MODEL      117
REMARK 921   NORMALIZED FREE ENERGY PREDICTED BY IDOCK:   -3.00 KCAL/MOL
REMARK 922        TOTAL FREE ENERGY PREDICTED BY IDOCK:   -3.63 KCAL/MOL
REMARK 923 INTER-LIGAND FREE ENERGY PREDICTED BY IDOCK:   -3.41 KCAL/MOL
REMARK 924 INTRA-LIGAND FREE ENERGY PREDICTED BY IDOCK:   -0.22 KCAL/MOL
REMARK 927      BINDING AFFINITY PREDICTED BY RF-SCORE:    0.00 PKD
ROOT
HETATM    1  C   UNL     1     -14.221   7.616  71.478  1.00  0.00    -0.564 C  
HETATM    2  C   UNL     1     -12.766   7.249  71.584  1.00  0.00    -0.375 C  
HETATM    3  N   UNL     1     -12.165   7.717  72.729  1.00  0.00    -0.591 N  
HETATM    4  O   UNL     1     -12.181   6.603  70.720  1.00  0.00    -0.378 OA 
HETATM    5  H   UNL     1     -12.718   8.252  73.398  1.00  0.00     0.000 HD 
ENDROOT
BRANCH   3   6
HETATM    6  C   UNL     1     -10.767   7.469  73.008  1.00  0.00    -0.384 C  
BRANCH   6   7
HETATM    7  C   UNL     1      -9.867   8.520  72.370  1.00  0.00    -0.358 C  
BRANCH   7   8
HETATM    8  C   UNL     1      -8.905   7.866  71.390  1.00  0.00    -0.135 C  
HETATM    9  S   UNL     1      -8.586   8.916  69.984  1.00  0.00    -0.155 S  
HETATM   10  O   UNL     1      -7.818  10.069  70.386  1.00  0.00    -0.216 OA 
HETATM   11  O   UNL     1      -9.779   9.009  69.173  1.00  0.00    -0.162 OA 
HETATM   12  O   UNL     1      -7.604   7.908  69.192  1.00  0.00    -0.094 OA 
ENDBRANCH   7   8
ENDBRANCH   6   7
ENDBRANCH   3   6
TORSDOF 3
ENDMDL
MODEL      118
REMARK 921   NORMALIZED FREE ENERGY PREDICTED BY IDOCK:   -2.99 KCAL/MOL
REMARK 922        TOTAL FREE ENERGY PREDICTED BY IDOCK:   -3.62 KCAL/MOL
REMARK 923 INTER-LIGAND FREE ENERGY PREDICTED BY IDOCK:   -3.48 KCAL/MOL
REMARK 924 INTRA-LIGAND FREE ENERGY PREDICTED BY IDOCK:   -0.14 KCAL/MOL
REMARK 927      BINDING AFFINITY PREDICTED BY RF-SCORE:    0.00 PKD
ROOT
HETATM    1  C   UNL     1      -9.619  20.089  66.547  1.00  0.00    -0.539 C  
HETATM    2  C   UNL     1     -10.222  18.737  66.283  1.00  0.00    -0.424 C  
HETATM    3  N   UNL     1     -10.020  17.838  67.305  1.00  0.00    -0.311 N  
HETATM    4  O   UNL     1     -10.824  18.471  65.248  1.00  0.00    -0.606 OA 
HETATM    5  H   UNL     1      -9.504  18.134  68.133  1.00  0.00     0.000 HD 
ENDROOT
BRANCH   3   6
HETATM    6  C   UNL     1     -10.523  16.483  67.234  1.00  0.00    -0.304 C  
BRANCH   6   7
HETATM    7  C   UNL     1      -9.605  15.581  66.418  1.00  0.00    -0.317 C  
BRANCH   7   8
HETATM    8  C   UNL     1      -8.557  14.943  67.317  1.00  0.00    -0.213 C  
HETATM    9  S   UNL     1      -8.941  13.236  67.664  1.00  0.00    -0.212 S  
HETATM   10  O   UNL     1      -8.793  12.439  66.470  1.00  0.00    -0.191 OA 
HETATM   11  O   UNL     1     -10.108  13.169  68.515  1.00  0.00    -0.238 OA 
HETATM   12  O   UNL     1      -7.684  12.934  68.631  1.00  0.00    -0.127 OA 
ENDBRANCH   7   8
ENDBRANCH   6   7
ENDBRANCH   3   6
TORSDOF 3
ENDMDL
MODEL      119
REMARK 921   NORMALIZED FREE ENERGY PREDICTED BY IDOCK:   -2.98 KCAL/MOL
REMARK 922        TOTAL FREE ENERGY PREDICTED BY IDOCK:   -3.61 KCAL/MOL
REMARK 923 INTER-LIGAND FREE ENERGY PREDICTED BY IDOCK:   -3.18 KCAL/MOL
REMARK 924 INTRA-LIGAND FREE ENERGY PREDICTED BY IDOCK:   -0.43 KCAL/MOL
REMARK 927      BINDING AFFINITY PREDICTED BY RF-SCORE:    0.00 PKD
ROOT
HETATM    1  C   UNL     1      -7.779  13.245  68.675  1.00  0.00    -0.080 C  
HETATM    2  C   UNL     1      -8.361  14.516  69.230  1.00  0.00     0.082 C  
HETATM    3  N   UNL     1      -9.732  14.576  69.139  1.00  0.00    -0.394 N  
HETATM    4  O   UNL     1      -7.668  15.410  69.705  1.00  0.00    -0.217 OA 
HETATM    5  H   UNL     1     -10.238  13.794  68.725  1.00  0.00     0.000 HD 
ENDROOT
BRANCH   3   6
HETATM    6  C   UNL     1     -10.475  15.723  69.616  1.00  0.00    -0.289 C  
BRANCH   6   7
HETATM    7  C   UNL     1     -11.042  16.548  68.467  1.00  0.00    -0.335 C  
BRANCH   7   8
HETATM    8  C   UNL     1      -9.947  17.393  67.834  1.00  0.00    -0.301 C  
HETATM    9  S   UNL     1      -9.663  16.933  66.134  1.00  0.00    -0.245 S  
HETATM   10  O   UNL     1     -10.795  17.304  65.321  1.00  0.00    -0.576 OA 
HETATM   11  O   UNL     1      -9.057  15.621  66.086  1.00  0.00    -0.312 OA 
HETATM   12  O   UNL     1      -8.465  17.973  65.836  1.00  0.00    -0.509 OA 
ENDBRANCH   7   8
ENDBRANCH   6   7
ENDBRANCH   3   6
TORSDOF 3
ENDMDL
MODEL      120
REMARK 921   NORMALIZED FREE ENERGY PREDICTED BY IDOCK:   -2.97 KCAL/MOL
REMARK 922        TOTAL FREE ENERGY PREDICTED BY IDOCK:   -3.60 KCAL/MOL
REMARK 923 INTER-LIGAND FREE ENERGY PREDICTED BY IDOCK:   -3.49 KCAL/MOL
REMARK 924 INTRA-LIGAND FREE ENERGY PREDICTED BY IDOCK:   -0.11 KCAL/MOL
REMARK 927      BINDING AFFINITY PREDICTED BY RF-SCORE:    0.00 PKD
ROOT
HETATM    1  C   UNL     1     -12.259  13.037  64.470  1.00  0.00    -0.476 C  
HETATM    2  C   UNL     1     -11.196  12.298  65.234  1.00  0.00    -0.328 C  
HETATM    3  N   UNL     1     -11.554  12.012  66.532  1.00  0.00    -0.351 N  
HETATM    4  O   UNL     1     -10.115  11.995  64.742  1.00  0.00    -0.261 OA 
HETATM    5  H   UNL     1     -12.470  12.303  66.870  1.00  0.00     0.000 HD 
ENDROOT
BRANCH   3   6
HETATM    6  C   UNL     1     -10.661  11.309  67.428  1.00  0.00    -0.242 C  
BRANCH   6   7
HETATM    7  C   UNL     1     -11.414  10.661  68.583  1.00  0.00    -0.332 C  
BRANCH   7   8
HETATM    8  C   UNL     1     -10.446  10.260  69.685  1.00  0.00    -0.253 C  
HETATM    9  S   UNL     1     -11.211   9.163  70.864  1.00  0.00    -0.319 S  
HETATM   10  O   UNL     1     -11.472   7.881  70.257  1.00  0.00    -0.215 OA 
HETATM   11  O   UNL     1     -12.204   9.890  71.624  1.00  0.00    -0.382 OA 
HETATM   12  O   UNL     1      -9.944   9.005  71.853  1.00  0.00    -0.332 OA 
ENDBRANCH   7   8
ENDBRANCH   6   7
ENDBRANCH   3   6
TORSDOF 3
ENDMDL
MODEL      121
REMARK 921   NORMALIZED FREE ENERGY PREDICTED BY IDOCK:   -2.96 KCAL/MOL
REMARK 922        TOTAL FREE ENERGY PREDICTED BY IDOCK:   -3.59 KCAL/MOL
REMARK 923 INTER-LIGAND FREE ENERGY PREDICTED BY IDOCK:   -3.44 KCAL/MOL
REMARK 924 INTRA-LIGAND FREE ENERGY PREDICTED BY IDOCK:   -0.15 KCAL/MOL
REMARK 927      BINDING AFFINITY PREDICTED BY RF-SCORE:    0.00 PKD
ROOT
HETATM    1  C   UNL     1     -14.076  15.206  72.060  1.00  0.00    -0.659 C  
HETATM    2  C   UNL     1     -13.099  14.380  71.270  1.00  0.00    -0.351 C  
HETATM    3  N   UNL     1     -13.003  14.759  69.950  1.00  0.00    -0.561 N  
HETATM    4  O   UNL     1     -12.464  13.453  71.762  1.00  0.00    -0.186 OA 
HETATM    5  H   UNL     1     -13.569  15.537  69.614  1.00  0.00     0.000 HD 
ENDROOT
BRANCH   3   6
HETATM    6  C   UNL     1     -12.118  14.080  69.028  1.00  0.00    -0.323 C  
BRANCH   6   7
HETATM    7  C   UNL     1     -11.812  14.935  67.805  1.00  0.00    -0.277 C  
BRANCH   7   8
HETATM    8  C   UNL     1     -10.341  15.322  67.787  1.00  0.00    -0.244 C  
HETATM    9  S   UNL     1      -9.958  16.508  69.063  1.00  0.00    -0.277 S  
HETATM   10  O   UNL     1     -10.057  15.892  70.363  1.00  0.00    -0.038 OA 
HETATM   11  O   UNL     1     -10.577  17.775  68.743  1.00  0.00    -0.291 OA 
HETATM   12  O   UNL     1      -8.393  16.693  68.711  1.00  0.00    -0.235 OA 
ENDBRANCH   7   8
ENDBRANCH   6   7
ENDBRANCH   3   6
TORSDOF 3
ENDMDL
MODEL      122
REMARK 921   NORMALIZED FREE ENERGY PREDICTED BY IDOCK:   -2.96 KCAL/MOL
REMARK 922        TOTAL FREE ENERGY PREDICTED BY IDOCK:   -3.59 KCAL/MOL
REMARK 923 INTER-LIGAND FREE ENERGY PREDICTED BY IDOCK:   -3.20 KCAL/MOL
REMARK 924 INTRA-LIGAND FREE ENERGY PREDICTED BY IDOCK:   -0.38 KCAL/MOL
REMARK 927      BINDING AFFINITY PREDICTED BY RF-SCORE:    0.00 PKD
ROOT
HETATM    1  C   UNL     1      -9.108  16.340  66.129  1.00  0.00    -0.377 C  
HETATM    2  C   UNL     1      -8.316  15.231  66.762  1.00  0.00    -0.223 C  
HETATM    3  N   UNL     1      -8.792  13.976  66.460  1.00  0.00    -0.466 N  
HETATM    4  O   UNL     1      -7.347  15.437  67.485  1.00  0.00    -0.158 OA 
HETATM    5  H   UNL     1      -9.607  13.886  65.854  1.00  0.00     0.000 HD 
ENDROOT
BRANCH   3   6
HETATM    6  C   UNL     1      -8.163  12.780  66.979  1.00  0.00    -0.095 C  
BRANCH   6   7
HETATM    7  C   UNL     1      -9.187  11.700  67.307  1.00  0.00    -0.170 C  
BRANCH   7   8
HETATM    8  C   UNL     1      -9.817  11.966  68.666  1.00  0.00    -0.131 C  
HETATM    9  S   UNL     1     -11.560  12.316  68.524  1.00  0.00    -0.328 S  
HETATM   10  O   UNL     1     -12.276  11.130  68.123  1.00  0.00    -0.612 OA 
HETATM   11  O   UNL     1     -11.742  13.599  67.884  1.00  0.00    -0.319 OA 
HETATM   12  O   UNL     1     -11.848  12.572  70.092  1.00  0.00    -0.324 OA 
ENDBRANCH   7   8
ENDBRANCH   6   7
ENDBRANCH   3   6
TORSDOF 3
ENDMDL
MODEL      123
REMARK 921   NORMALIZED FREE ENERGY PREDICTED BY IDOCK:   -2.96 KCAL/MOL
REMARK 922        TOTAL FREE ENERGY PREDICTED BY IDOCK:   -3.58 KCAL/MOL
REMARK 923 INTER-LIGAND FREE ENERGY PREDICTED BY IDOCK:   -3.25 KCAL/MOL
REMARK 924 INTRA-LIGAND FREE ENERGY PREDICTED BY IDOCK:   -0.34 KCAL/MOL
REMARK 927      BINDING AFFINITY PREDICTED BY RF-SCORE:    0.00 PKD
ROOT
HETATM    1  C   UNL     1     -11.851  15.273  68.553  1.00  0.00    -0.305 C  
HETATM    2  C   UNL     1     -10.460  15.596  69.024  1.00  0.00    -0.229 C  
HETATM    3  N   UNL     1      -9.652  16.110  68.036  1.00  0.00    -0.219 N  
HETATM    4  O   UNL     1     -10.090  15.406  70.178  1.00  0.00    -0.281 OA 
HETATM    5  H   UNL     1     -10.032  16.235  67.098  1.00  0.00     0.000 HD 
ENDROOT
BRANCH   3   6
HETATM    6  C   UNL     1      -8.277  16.479  68.295  1.00  0.00    -0.185 C  
BRANCH   6   7
HETATM    7  C   UNL     1      -7.773  17.517  67.300  1.00  0.00    -0.221 C  
BRANCH   7   8
HETATM    8  C   UNL     1      -8.936  18.109  66.519  1.00  0.00    -0.275 C  
HETATM    9  S   UNL     1      -9.550  19.599  67.284  1.00  0.00    -0.369 S  
HETATM   10  O   UNL     1      -8.578  20.658  67.163  1.00  0.00    -0.312 OA 
HETATM   11  O   UNL     1     -10.200  19.266  68.532  1.00  0.00    -0.404 OA 
HETATM   12  O   UNL     1     -10.746  19.890  66.239  1.00  0.00    -0.448 OA 
ENDBRANCH   7   8
ENDBRANCH   6   7
ENDBRANCH   3   6
TORSDOF 3
ENDMDL
MODEL      124
REMARK 921   NORMALIZED FREE ENERGY PREDICTED BY IDOCK:   -2.95 KCAL/MOL
REMARK 922        TOTAL FREE ENERGY PREDICTED BY IDOCK:   -3.58 KCAL/MOL
REMARK 923 INTER-LIGAND FREE ENERGY PREDICTED BY IDOCK:   -3.43 KCAL/MOL
REMARK 924 INTRA-LIGAND FREE ENERGY PREDICTED BY IDOCK:   -0.14 KCAL/MOL
REMARK 927      BINDING AFFINITY PREDICTED BY RF-SCORE:    0.00 PKD
ROOT
HETATM    1  C   UNL     1     -11.948  14.241  65.290  1.00  0.00    -0.389 C  
HETATM    2  C   UNL     1     -11.750  13.108  64.321  1.00  0.00    -0.395 C  
HETATM    3  N   UNL     1     -10.868  12.152  64.770  1.00  0.00    -0.294 N  
HETATM    4  O   UNL     1     -12.316  13.059  63.234  1.00  0.00    -0.682 OA 
HETATM    5  H   UNL     1     -10.433  12.267  65.685  1.00  0.00     0.000 HD 
ENDROOT
BRANCH   3   6
HETATM    6  C   UNL     1     -10.544  10.986  63.977  1.00  0.00    -0.324 C  
BRANCH   6   7
HETATM    7  C   UNL     1      -9.711   9.981  64.762  1.00  0.00    -0.363 C  
BRANCH   7   8
HETATM    8  C   UNL     1     -10.045  10.062  66.244  1.00  0.00    -0.243 C  
HETATM    9  S   UNL     1      -9.522   8.597  67.116  1.00  0.00    -0.172 S  
HETATM   10  O   UNL     1      -8.082   8.535  67.168  1.00  0.00    -0.103 OA 
HETATM   11  O   UNL     1     -10.344   7.478  66.712  1.00  0.00    -0.288 OA 
HETATM   12  O   UNL     1     -10.061   9.022  68.577  1.00  0.00    -0.178 OA 
ENDBRANCH   7   8
ENDBRANCH   6   7
ENDBRANCH   3   6
TORSDOF 3
ENDMDL
MODEL      125
REMARK 921   NORMALIZED FREE ENERGY PREDICTED BY IDOCK:   -2.94 KCAL/MOL
REMARK 922        TOTAL FREE ENERGY PREDICTED BY IDOCK:   -3.57 KCAL/MOL
REMARK 923 INTER-LIGAND FREE ENERGY PREDICTED BY IDOCK:   -3.16 KCAL/MOL
REMARK 924 INTRA-LIGAND FREE ENERGY PREDICTED BY IDOCK:   -0.41 KCAL/MOL
REMARK 927      BINDING AFFINITY PREDICTED BY RF-SCORE:    0.00 PKD
ROOT
HETATM    1  C   UNL     1      -6.768  14.211  67.673  1.00  0.00    -0.188 C  
HETATM    2  C   UNL     1      -8.223  14.410  67.353  1.00  0.00    -0.199 C  
HETATM    3  N   UNL     1      -8.443  15.307  66.333  1.00  0.00    -0.418 N  
HETATM    4  O   UNL     1      -9.120  13.830  67.957  1.00  0.00    -0.177 OA 
HETATM    5  H   UNL     1      -7.644  15.753  65.883  1.00  0.00     0.000 HD 
ENDROOT
BRANCH   3   6
HETATM    6  C   UNL     1      -9.779  15.634  65.883  1.00  0.00    -0.353 C  
BRANCH   6   7
HETATM    7  C   UNL     1     -10.271  16.946  66.480  1.00  0.00    -0.320 C  
BRANCH   7   8
HETATM    8  C   UNL     1      -9.145  17.969  66.508  1.00  0.00    -0.269 C  
HETATM    9  S   UNL     1      -8.748  18.460  68.176  1.00  0.00    -0.308 S  
HETATM   10  O   UNL     1      -8.135  17.365  68.887  1.00  0.00    -0.260 OA 
HETATM   11  O   UNL     1      -9.837  19.240  68.720  1.00  0.00    -0.405 OA 
HETATM   12  O   UNL     1      -7.595  19.530  67.807  1.00  0.00    -0.259 OA 
ENDBRANCH   7   8
ENDBRANCH   6   7
ENDBRANCH   3   6
TORSDOF 3
ENDMDL
MODEL      126
REMARK 921   NORMALIZED FREE ENERGY PREDICTED BY IDOCK:   -2.92 KCAL/MOL
REMARK 922        TOTAL FREE ENERGY PREDICTED BY IDOCK:   -3.54 KCAL/MOL
REMARK 923 INTER-LIGAND FREE ENERGY PREDICTED BY IDOCK:   -3.38 KCAL/MOL
REMARK 924 INTRA-LIGAND FREE ENERGY PREDICTED BY IDOCK:   -0.16 KCAL/MOL
REMARK 927      BINDING AFFINITY PREDICTED BY RF-SCORE:    0.00 PKD
ROOT
HETATM    1  C   UNL     1     -13.149   9.867  71.448  1.00  0.00    -0.500 C  
HETATM    2  C   UNL     1     -12.509  10.910  70.574  1.00  0.00    -0.351 C  
HETATM    3  N   UNL     1     -12.087  10.423  69.359  1.00  0.00    -0.538 N  
HETATM    4  O   UNL     1     -12.371  12.077  70.927  1.00  0.00    -0.373 OA 
HETATM    5  H   UNL     1     -12.233   9.438  69.140  1.00  0.00     0.000 HD 
ENDROOT
BRANCH   3   6
HETATM    6  C   UNL     1     -11.443  11.274  68.382  1.00  0.00    -0.307 C  
BRANCH   6   7
HETATM    7  C   UNL     1     -10.082  10.730  67.967  1.00  0.00    -0.198 C  
BRANCH   7   8
HETATM    8  C   UNL     1     -10.173  10.068  66.600  1.00  0.00    -0.223 C  
HETATM    9  S   UNL     1      -9.291  10.999  65.360  1.00  0.00    -0.219 S  
HETATM   10  O   UNL     1      -7.870  10.927  65.600  1.00  0.00    -0.118 OA 
HETATM   11  O   UNL     1      -9.985  12.242  65.108  1.00  0.00    -0.261 OA 
HETATM   12  O   UNL     1      -9.639  10.048  64.102  1.00  0.00    -0.292 OA 
ENDBRANCH   7   8
ENDBRANCH   6   7
ENDBRANCH   3   6
TORSDOF 3
ENDMDL
MODEL      127
REMARK 921   NORMALIZED FREE ENERGY PREDICTED BY IDOCK:   -2.92 KCAL/MOL
REMARK 922        TOTAL FREE ENERGY PREDICTED BY IDOCK:   -3.54 KCAL/MOL
REMARK 923 INTER-LIGAND FREE ENERGY PREDICTED BY IDOCK:   -3.38 KCAL/MOL
REMARK 924 INTRA-LIGAND FREE ENERGY PREDICTED BY IDOCK:   -0.15 KCAL/MOL
REMARK 927      BINDING AFFINITY PREDICTED BY RF-SCORE:    0.00 PKD
ROOT
HETATM    1  C   UNL     1     -10.024  19.443  68.786  1.00  0.00    -0.522 C  
HETATM    2  C   UNL     1      -9.029  18.612  68.024  1.00  0.00    -0.302 C  
HETATM    3  N   UNL     1      -9.575  17.961  66.942  1.00  0.00    -0.289 N  
HETATM    4  O   UNL     1      -7.851  18.523  68.352  1.00  0.00    -0.291 OA 
HETATM    5  H   UNL     1     -10.566  18.081  66.737  1.00  0.00     0.000 HD 
ENDROOT
BRANCH   3   6
HETATM    6  C   UNL     1      -8.776  17.109  66.087  1.00  0.00    -0.188 C  
BRANCH   6   7
HETATM    7  C   UNL     1      -8.929  15.638  66.451  1.00  0.00    -0.362 C  
BRANCH   7   8
HETATM    8  C   UNL     1      -9.799  14.928  65.425  1.00  0.00    -0.268 C  
HETATM    9  S   UNL     1     -10.617  13.508  66.129  1.00  0.00    -0.294 S  
HETATM   10  O   UNL     1     -11.615  13.928  67.082  1.00  0.00    -0.325 OA 
HETATM   11  O   UNL     1      -9.639  12.482  66.414  1.00  0.00    -0.240 OA 
HETATM   12  O   UNL     1     -11.374  13.020  64.788  1.00  0.00    -0.300 OA 
ENDBRANCH   7   8
ENDBRANCH   6   7
ENDBRANCH   3   6
TORSDOF 3
ENDMDL
MODEL      128
REMARK 921   NORMALIZED FREE ENERGY PREDICTED BY IDOCK:   -2.91 KCAL/MOL
REMARK 922        TOTAL FREE ENERGY PREDICTED BY IDOCK:   -3.53 KCAL/MOL
REMARK 923 INTER-LIGAND FREE ENERGY PREDICTED BY IDOCK:   -3.10 KCAL/MOL
REMARK 924 INTRA-LIGAND FREE ENERGY PREDICTED BY IDOCK:   -0.43 KCAL/MOL
REMARK 927      BINDING AFFINITY PREDICTED BY RF-SCORE:    0.00 PKD
ROOT
HETATM    1  C   UNL     1      -9.839   4.465  69.566  1.00  0.00    -0.258 C  
HETATM    2  C   UNL     1     -10.782   5.616  69.783  1.00  0.00    -0.331 C  
HETATM    3  N   UNL     1     -11.021   5.885  71.111  1.00  0.00    -0.274 N  
HETATM    4  O   UNL     1     -11.292   6.240  68.858  1.00  0.00    -0.373 OA 
HETATM    5  H   UNL     1     -10.563   5.317  71.824  1.00  0.00     0.000 HD 
ENDROOT
BRANCH   3   6
HETATM    6  C   UNL     1     -11.905   6.954  71.523  1.00  0.00    -0.324 C  
BRANCH   6   7
HETATM    7  C   UNL     1     -11.236   7.889  72.523  1.00  0.00    -0.436 C  
BRANCH   7   8
HETATM    8  C   UNL     1     -10.434   7.088  73.539  1.00  0.00    -0.375 C  
HETATM    9  S   UNL     1      -8.683   7.378  73.368  1.00  0.00    -0.179 S  
HETATM   10  O   UNL     1      -8.358   8.725  73.770  1.00  0.00    -0.322 OA 
HETATM   11  O   UNL     1      -8.217   6.792  72.131  1.00  0.00    -0.104 OA 
HETATM   12  O   UNL     1      -8.193   6.372  74.532  1.00  0.00    -0.122 OA 
ENDBRANCH   7   8
ENDBRANCH   6   7
ENDBRANCH   3   6
TORSDOF 3
ENDMDL
MODEL      129
REMARK 921   NORMALIZED FREE ENERGY PREDICTED BY IDOCK:   -2.90 KCAL/MOL
REMARK 922        TOTAL FREE ENERGY PREDICTED BY IDOCK:   -3.52 KCAL/MOL
REMARK 923 INTER-LIGAND FREE ENERGY PREDICTED BY IDOCK:   -3.60 KCAL/MOL
REMARK 924 INTRA-LIGAND FREE ENERGY PREDICTED BY IDOCK:    0.08 KCAL/MOL
REMARK 927      BINDING AFFINITY PREDICTED BY RF-SCORE:    0.00 PKD
ROOT
HETATM    1  C   UNL     1     -11.313  15.081  68.883  1.00  0.00    -0.312 C  
HETATM    2  C   UNL     1     -11.406  15.051  67.383  1.00  0.00    -0.332 C  
HETATM    3  N   UNL     1     -12.405  14.230  66.912  1.00  0.00    -0.571 N  
HETATM    4  O   UNL     1     -10.652  15.693  66.659  1.00  0.00    -0.301 OA 
HETATM    5  H   UNL     1     -12.988  13.724  67.578  1.00  0.00     0.000 HD 
ENDROOT
BRANCH   3   6
HETATM    6  C   UNL     1     -12.648  14.067  65.495  1.00  0.00    -0.516 C  
BRANCH   6   7
HETATM    7  C   UNL     1     -12.059  12.766  64.966  1.00  0.00    -0.491 C  
BRANCH   7   8
HETATM    8  C   UNL     1     -10.632  12.591  65.466  1.00  0.00    -0.275 C  
HETATM    9  S   UNL     1     -10.376  10.969  66.163  1.00  0.00    -0.245 S  
HETATM   10  O   UNL     1     -10.422   9.967  65.126  1.00  0.00    -0.113 OA 
HETATM   11  O   UNL     1     -11.115  10.856  67.400  1.00  0.00    -0.293 OA 
HETATM   12  O   UNL     1      -8.835  11.173  66.598  1.00  0.00    -0.156 OA 
ENDBRANCH   7   8
ENDBRANCH   6   7
ENDBRANCH   3   6
TORSDOF 3
ENDMDL
MODEL      130
REMARK 921   NORMALIZED FREE ENERGY PREDICTED BY IDOCK:   -2.90 KCAL/MOL
REMARK 922        TOTAL FREE ENERGY PREDICTED BY IDOCK:   -3.52 KCAL/MOL
REMARK 923 INTER-LIGAND FREE ENERGY PREDICTED BY IDOCK:   -3.26 KCAL/MOL
REMARK 924 INTRA-LIGAND FREE ENERGY PREDICTED BY IDOCK:   -0.26 KCAL/MOL
REMARK 927      BINDING AFFINITY PREDICTED BY RF-SCORE:    0.00 PKD
ROOT
HETATM    1  C   UNL     1      -7.641  16.621  68.757  1.00  0.00    -0.227 C  
HETATM    2  C   UNL     1      -8.506  16.099  67.643  1.00  0.00    -0.168 C  
HETATM    3  N   UNL     1      -9.650  15.476  68.084  1.00  0.00    -0.199 N  
HETATM    4  O   UNL     1      -8.204  16.214  66.460  1.00  0.00    -0.263 OA 
HETATM    5  H   UNL     1      -9.828  15.415  69.086  1.00  0.00     0.000 HD 
ENDROOT
BRANCH   3   6
HETATM    6  C   UNL     1     -10.607  14.904  67.162  1.00  0.00    -0.285 C  
BRANCH   6   7
HETATM    7  C   UNL     1     -11.867  14.430  67.875  1.00  0.00    -0.384 C  
BRANCH   7   8
HETATM    8  C   UNL     1     -11.557  14.091  69.325  1.00  0.00    -0.309 C  
HETATM    9  S   UNL     1     -12.050  15.404  70.426  1.00  0.00    -0.401 S  
HETATM   10  O   UNL     1     -13.489  15.501  70.474  1.00  0.00    -0.361 OA 
HETATM   11  O   UNL     1     -11.191  16.549  70.225  1.00  0.00    -0.333 OA 
HETATM   12  O   UNL     1     -11.545  14.722  71.800  1.00  0.00    -0.335 OA 
ENDBRANCH   7   8
ENDBRANCH   6   7
ENDBRANCH   3   6
TORSDOF 3
ENDMDL
MODEL      131
REMARK 921   NORMALIZED FREE ENERGY PREDICTED BY IDOCK:   -2.90 KCAL/MOL
REMARK 922        TOTAL FREE ENERGY PREDICTED BY IDOCK:   -3.52 KCAL/MOL
REMARK 923 INTER-LIGAND FREE ENERGY PREDICTED BY IDOCK:   -3.21 KCAL/MOL
REMARK 924 INTRA-LIGAND FREE ENERGY PREDICTED BY IDOCK:   -0.30 KCAL/MOL
REMARK 927      BINDING AFFINITY PREDICTED BY RF-SCORE:    0.00 PKD
ROOT
HETATM    1  C   UNL     1      -8.142  14.825  68.871  1.00  0.00    -0.160 C  
HETATM    2  C   UNL     1      -8.206  13.510  68.145  1.00  0.00    -0.162 C  
HETATM    3  N   UNL     1      -9.231  12.698  68.574  1.00  0.00    -0.379 N  
HETATM    4  O   UNL     1      -7.410  13.198  67.266  1.00  0.00    -0.137 OA 
HETATM    5  H   UNL     1      -9.849  13.026  69.314  1.00  0.00     0.000 HD 
ENDROOT
BRANCH   3   6
HETATM    6  C   UNL     1      -9.452  11.389  67.998  1.00  0.00    -0.181 C  
BRANCH   6   7
HETATM    7  C   UNL     1     -10.833  11.276  67.365  1.00  0.00    -0.311 C  
BRANCH   7   8
HETATM    8  C   UNL     1     -10.711  11.105  65.858  1.00  0.00    -0.198 C  
HETATM    9  S   UNL     1     -11.255  12.562  64.986  1.00  0.00    -0.318 S  
HETATM   10  O   UNL     1     -10.335  13.650  65.209  1.00  0.00    -0.321 OA 
HETATM   11  O   UNL     1     -12.687  12.701  65.129  1.00  0.00    -0.646 OA 
HETATM   12  O   UNL     1     -11.024  12.005  63.488  1.00  0.00    -0.403 OA 
ENDBRANCH   7   8
ENDBRANCH   6   7
ENDBRANCH   3   6
TORSDOF 3
ENDMDL
MODEL      132
REMARK 921   NORMALIZED FREE ENERGY PREDICTED BY IDOCK:   -2.90 KCAL/MOL
REMARK 922        TOTAL FREE ENERGY PREDICTED BY IDOCK:   -3.51 KCAL/MOL
REMARK 923 INTER-LIGAND FREE ENERGY PREDICTED BY IDOCK:   -3.36 KCAL/MOL
REMARK 924 INTRA-LIGAND FREE ENERGY PREDICTED BY IDOCK:   -0.15 KCAL/MOL
REMARK 927      BINDING AFFINITY PREDICTED BY RF-SCORE:    0.00 PKD
ROOT
HETATM    1  C   UNL     1      -8.281  17.513  66.635  1.00  0.00    -0.288 C  
HETATM    2  C   UNL     1      -9.759  17.395  66.885  1.00  0.00    -0.286 C  
HETATM    3  N   UNL     1     -10.201  16.094  66.951  1.00  0.00    -0.277 N  
HETATM    4  O   UNL     1     -10.491  18.372  67.006  1.00  0.00    -0.383 OA 
HETATM    5  H   UNL     1      -9.531  15.335  66.835  1.00  0.00     0.000 HD 
ENDROOT
BRANCH   3   6
HETATM    6  C   UNL     1     -11.594  15.777  67.181  1.00  0.00     0.201 C  
BRANCH   6   7
HETATM    7  C   UNL     1     -11.768  14.376  67.754  1.00  0.00    -0.407 C  
BRANCH   7   8
HETATM    8  C   UNL     1     -10.757  13.423  67.133  1.00  0.00    -0.264 C  
HETATM    9  S   UNL     1     -11.522  11.892  66.631  1.00  0.00    -0.253 S  
HETATM   10  O   UNL     1     -12.401  12.117  65.510  1.00  0.00    -0.548 OA 
HETATM   11  O   UNL     1     -11.917  11.144  67.804  1.00  0.00    -0.630 OA 
HETATM   12  O   UNL     1     -10.187  11.164  66.086  1.00  0.00    -0.229 OA 
ENDBRANCH   7   8
ENDBRANCH   6   7
ENDBRANCH   3   6
TORSDOF 3
ENDMDL
MODEL      133
REMARK 921   NORMALIZED FREE ENERGY PREDICTED BY IDOCK:   -2.89 KCAL/MOL
REMARK 922        TOTAL FREE ENERGY PREDICTED BY IDOCK:   -3.51 KCAL/MOL
REMARK 923 INTER-LIGAND FREE ENERGY PREDICTED BY IDOCK:   -3.33 KCAL/MOL
REMARK 924 INTRA-LIGAND FREE ENERGY PREDICTED BY IDOCK:   -0.18 KCAL/MOL
REMARK 927      BINDING AFFINITY PREDICTED BY RF-SCORE:    0.00 PKD
ROOT
HETATM    1  C   UNL     1      -7.506   8.239  66.109  1.00  0.00    -0.081 C  
HETATM    2  C   UNL     1      -8.784   8.889  66.563  1.00  0.00    -0.130 C  
HETATM    3  N   UNL     1      -8.592  10.108  67.173  1.00  0.00    -0.125 N  
HETATM    4  O   UNL     1      -9.884   8.369  66.408  1.00  0.00    -0.253 OA 
HETATM    5  H   UNL     1      -7.644  10.471  67.269  1.00  0.00     0.000 HD 
ENDROOT
BRANCH   3   6
HETATM    6  C   UNL     1      -9.701  10.885  67.681  1.00  0.00    -0.171 C  
BRANCH   6   7
HETATM    7  C   UNL     1      -9.999  12.090  66.798  1.00  0.00    -0.218 C  
BRANCH   7   8
HETATM    8  C   UNL     1     -11.465  12.098  66.392  1.00  0.00    -0.370 C  
HETATM    9  S   UNL     1     -11.667  12.525  64.672  1.00  0.00    -0.380 S  
HETATM   10  O   UNL     1     -11.160  11.467  63.832  1.00  0.00    -0.384 OA 
HETATM   11  O   UNL     1     -11.323  13.916  64.478  1.00  0.00    -0.367 OA 
HETATM   12  O   UNL     1     -13.280  12.470  64.633  1.00  0.00    -0.848 OA 
ENDBRANCH   7   8
ENDBRANCH   6   7
ENDBRANCH   3   6
TORSDOF 3
ENDMDL
MODEL      134
REMARK 921   NORMALIZED FREE ENERGY PREDICTED BY IDOCK:   -2.89 KCAL/MOL
REMARK 922        TOTAL FREE ENERGY PREDICTED BY IDOCK:   -3.51 KCAL/MOL
REMARK 923 INTER-LIGAND FREE ENERGY PREDICTED BY IDOCK:   -3.29 KCAL/MOL
REMARK 924 INTRA-LIGAND FREE ENERGY PREDICTED BY IDOCK:   -0.22 KCAL/MOL
REMARK 927      BINDING AFFINITY PREDICTED BY RF-SCORE:    0.00 PKD
ROOT
HETATM    1  C   UNL     1     -10.224   8.291  66.935  1.00  0.00    -0.388 C  
HETATM    2  C   UNL     1     -10.674   9.475  67.745  1.00  0.00    -0.242 C  
HETATM    3  N   UNL     1     -11.092   9.143  69.013  1.00  0.00    -0.443 N  
HETATM    4  O   UNL     1     -10.675  10.619  67.303  1.00  0.00    -0.251 OA 
HETATM    5  H   UNL     1     -11.066   8.167  69.306  1.00  0.00     0.000 HD 
ENDROOT
BRANCH   3   6
HETATM    6  C   UNL     1     -11.566  10.146  69.943  1.00  0.00    -0.223 C  
BRANCH   6   7
HETATM    7  C   UNL     1     -11.382   9.708  71.390  1.00  0.00    -0.444 C  
BRANCH   7   8
HETATM    8  C   UNL     1     -10.205   8.750  71.506  1.00  0.00    -0.300 C  
HETATM    9  S   UNL     1     -10.677   7.227  72.306  1.00  0.00    -0.244 S  
HETATM   10  O   UNL     1     -11.558   6.468  71.453  1.00  0.00    -0.292 OA 
HETATM   11  O   UNL     1     -10.959   7.483  73.701  1.00  0.00    -0.322 OA 
HETATM   12  O   UNL     1      -9.223   6.524  72.282  1.00  0.00    -0.140 OA 
ENDBRANCH   7   8
ENDBRANCH   6   7
ENDBRANCH   3   6
TORSDOF 3
ENDMDL
MODEL      135
REMARK 921   NORMALIZED FREE ENERGY PREDICTED BY IDOCK:   -2.89 KCAL/MOL
REMARK 922        TOTAL FREE ENERGY PREDICTED BY IDOCK:   -3.51 KCAL/MOL
REMARK 923 INTER-LIGAND FREE ENERGY PREDICTED BY IDOCK:   -3.37 KCAL/MOL
REMARK 924 INTRA-LIGAND FREE ENERGY PREDICTED BY IDOCK:   -0.13 KCAL/MOL
REMARK 927      BINDING AFFINITY PREDICTED BY RF-SCORE:    0.00 PKD
ROOT
HETATM    1  C   UNL     1      -5.894  17.825  68.651  1.00  0.00    -0.182 C  
HETATM    2  C   UNL     1      -6.407  16.905  67.578  1.00  0.00    -0.155 C  
HETATM    3  N   UNL     1      -7.701  16.488  67.786  1.00  0.00    -0.149 N  
HETATM    4  O   UNL     1      -5.724  16.558  66.620  1.00  0.00    -0.338 OA 
HETATM    5  H   UNL     1      -8.203  16.816  68.611  1.00  0.00     0.000 HD 
ENDROOT
BRANCH   3   6
HETATM    6  C   UNL     1      -8.369  15.595  66.864  1.00  0.00    -0.252 C  
BRANCH   6   7
HETATM    7  C   UNL     1      -9.810  15.327  67.279  1.00  0.00    -0.220 C  
BRANCH   7   8
HETATM    8  C   UNL     1     -10.762  15.703  66.154  1.00  0.00    -0.303 C  
HETATM    9  S   UNL     1     -11.307  14.267  65.248  1.00  0.00    -0.352 S  
HETATM   10  O   UNL     1     -12.171  13.456  66.071  1.00  0.00    -0.420 OA 
HETATM   11  O   UNL     1     -10.199  13.722  64.496  1.00  0.00    -0.414 OA 
HETATM   12  O   UNL     1     -12.223  15.040  64.166  1.00  0.00    -0.589 OA 
ENDBRANCH   7   8
ENDBRANCH   6   7
ENDBRANCH   3   6
TORSDOF 3
ENDMDL
MODEL      136
REMARK 921   NORMALIZED FREE ENERGY PREDICTED BY IDOCK:   -2.88 KCAL/MOL
REMARK 922        TOTAL FREE ENERGY PREDICTED BY IDOCK:   -3.50 KCAL/MOL
REMARK 923 INTER-LIGAND FREE ENERGY PREDICTED BY IDOCK:   -3.35 KCAL/MOL
REMARK 924 INTRA-LIGAND FREE ENERGY PREDICTED BY IDOCK:   -0.15 KCAL/MOL
REMARK 927      BINDING AFFINITY PREDICTED BY RF-SCORE:    0.00 PKD
ROOT
HETATM    1  C   UNL     1      -5.544  10.571  67.049  1.00  0.00    -0.043 C  
HETATM    2  C   UNL     1      -6.903  10.140  66.574  1.00  0.00    -0.090 C  
HETATM    3  N   UNL     1      -7.276  10.719  65.382  1.00  0.00    -0.351 N  
HETATM    4  O   UNL     1      -7.607   9.355  67.201  1.00  0.00    -0.091 OA 
HETATM    5  H   UNL     1      -6.636  11.366  64.923  1.00  0.00     0.000 HD 
ENDROOT
BRANCH   3   6
HETATM    6  C   UNL     1      -8.552  10.430  64.765  1.00  0.00    -0.182 C  
BRANCH   6   7
HETATM    7  C   UNL     1      -9.559  11.550  64.998  1.00  0.00    -0.222 C  
BRANCH   7   8
HETATM    8  C   UNL     1     -10.789  11.343  64.127  1.00  0.00    -0.365 C  
HETATM    9  S   UNL     1     -12.071  12.522  64.512  1.00  0.00    -0.436 S  
HETATM   10  O   UNL     1     -11.670  13.846  64.102  1.00  0.00    -0.391 OA 
HETATM   11  O   UNL     1     -12.612  12.234  65.821  1.00  0.00    -0.455 OA 
HETATM   12  O   UNL     1     -13.172  11.981  63.462  1.00  0.00    -0.724 OA 
ENDBRANCH   7   8
ENDBRANCH   6   7
ENDBRANCH   3   6
TORSDOF 3
ENDMDL
MODEL      137
REMARK 921   NORMALIZED FREE ENERGY PREDICTED BY IDOCK:   -2.88 KCAL/MOL
REMARK 922        TOTAL FREE ENERGY PREDICTED BY IDOCK:   -3.49 KCAL/MOL
REMARK 923 INTER-LIGAND FREE ENERGY PREDICTED BY IDOCK:   -3.38 KCAL/MOL
REMARK 924 INTRA-LIGAND FREE ENERGY PREDICTED BY IDOCK:   -0.11 KCAL/MOL
REMARK 927      BINDING AFFINITY PREDICTED BY RF-SCORE:    0.00 PKD
ROOT
HETATM    1  C   UNL     1     -11.909  15.436  69.706  1.00  0.00    -0.367 C  
HETATM    2  C   UNL     1     -12.322  14.054  70.130  1.00  0.00    -0.345 C  
HETATM    3  N   UNL     1     -11.711  13.054  69.408  1.00  0.00    -0.312 N  
HETATM    4  O   UNL     1     -13.133  13.850  71.026  1.00  0.00    -0.310 OA 
HETATM    5  H   UNL     1     -11.050  13.304  68.673  1.00  0.00     0.000 HD 
ENDROOT
BRANCH   3   6
HETATM    6  C   UNL     1     -11.983  11.656  69.667  1.00  0.00    -0.324 C  
BRANCH   6   7
HETATM    7  C   UNL     1     -10.702  10.835  69.738  1.00  0.00    -0.241 C  
BRANCH   7   8
HETATM    8  C   UNL     1     -11.030   9.352  69.831  1.00  0.00    -0.229 C  
HETATM    9  S   UNL     1     -11.117   8.804  71.526  1.00  0.00    -0.335 S  
HETATM   10  O   UNL     1     -12.270   9.376  72.177  1.00  0.00    -0.343 OA 
HETATM   11  O   UNL     1      -9.793   8.827  72.107  1.00  0.00    -0.314 OA 
HETATM   12  O   UNL     1     -11.428   7.248  71.224  1.00  0.00    -0.260 OA 
ENDBRANCH   7   8
ENDBRANCH   6   7
ENDBRANCH   3   6
TORSDOF 3
ENDMDL
MODEL      138
REMARK 921   NORMALIZED FREE ENERGY PREDICTED BY IDOCK:   -2.88 KCAL/MOL
REMARK 922        TOTAL FREE ENERGY PREDICTED BY IDOCK:   -3.49 KCAL/MOL
REMARK 923 INTER-LIGAND FREE ENERGY PREDICTED BY IDOCK:   -3.31 KCAL/MOL
REMARK 924 INTRA-LIGAND FREE ENERGY PREDICTED BY IDOCK:   -0.18 KCAL/MOL
REMARK 927      BINDING AFFINITY PREDICTED BY RF-SCORE:    0.00 PKD
ROOT
HETATM    1  C   UNL     1     -13.507   9.466  72.226  1.00  0.00    -0.539 C  
HETATM    2  C   UNL     1     -12.270   8.663  71.935  1.00  0.00    -0.355 C  
HETATM    3  N   UNL     1     -11.991   8.554  70.592  1.00  0.00    -0.486 N  
HETATM    4  O   UNL     1     -11.590   8.150  72.817  1.00  0.00    -0.411 OA 
HETATM    5  H   UNL     1     -12.608   9.005  69.918  1.00  0.00     0.000 HD 
ENDROOT
BRANCH   3   6
HETATM    6  C   UNL     1     -10.843   7.816  70.112  1.00  0.00    -0.244 C  
BRANCH   6   7
HETATM    7  C   UNL     1     -11.239   6.457  69.549  1.00  0.00    -0.477 C  
BRANCH   7   8
HETATM    8  C   UNL     1     -10.721   6.304  68.126  1.00  0.00    -0.293 C  
HETATM    9  S   UNL     1      -9.288   5.245  68.060  1.00  0.00    -0.122 S  
HETATM   10  O   UNL     1      -9.660   3.883  68.359  1.00  0.00    -0.162 OA 
HETATM   11  O   UNL     1      -8.169   5.910  68.688  1.00  0.00    -0.107 OA 
HETATM   12  O   UNL     1      -9.021   5.357  66.472  1.00  0.00    -0.116 OA 
ENDBRANCH   7   8
ENDBRANCH   6   7
ENDBRANCH   3   6
TORSDOF 3
ENDMDL
MODEL      139
REMARK 921   NORMALIZED FREE ENERGY PREDICTED BY IDOCK:   -2.88 KCAL/MOL
REMARK 922        TOTAL FREE ENERGY PREDICTED BY IDOCK:   -3.49 KCAL/MOL
REMARK 923 INTER-LIGAND FREE ENERGY PREDICTED BY IDOCK:   -3.16 KCAL/MOL
REMARK 924 INTRA-LIGAND FREE ENERGY PREDICTED BY IDOCK:   -0.33 KCAL/MOL
REMARK 927      BINDING AFFINITY PREDICTED BY RF-SCORE:    0.00 PKD
ROOT
HETATM    1  C   UNL     1     -11.911  14.318  69.937  1.00  0.00    -0.397 C  
HETATM    2  C   UNL     1     -12.498  13.194  70.743  1.00  0.00    -0.308 C  
HETATM    3  N   UNL     1     -12.026  11.954  70.380  1.00  0.00    -0.460 N  
HETATM    4  O   UNL     1     -13.326  13.375  71.630  1.00  0.00    -0.374 OA 
HETATM    5  H   UNL     1     -11.341  11.884  69.628  1.00  0.00     0.000 HD 
ENDROOT
BRANCH   3   6
HETATM    6  C   UNL     1     -12.476  10.746  71.038  1.00  0.00    -0.420 C  
BRANCH   6   7
HETATM    7  C   UNL     1     -11.332   9.768  71.269  1.00  0.00    -0.445 C  
BRANCH   7   8
HETATM    8  C   UNL     1     -11.194   8.827  70.082  1.00  0.00    -0.152 C  
HETATM    9  S   UNL     1      -9.683   9.122  69.182  1.00  0.00    -0.168 S  
HETATM   10  O   UNL     1      -8.545   8.724  69.974  1.00  0.00    -0.123 OA 
HETATM   11  O   UNL     1      -9.766  10.399  68.509  1.00  0.00    -0.157 OA 
HETATM   12  O   UNL     1      -9.908   8.013  68.030  1.00  0.00    -0.156 OA 
ENDBRANCH   7   8
ENDBRANCH   6   7
ENDBRANCH   3   6
TORSDOF 3
ENDMDL
MODEL      140
REMARK 921   NORMALIZED FREE ENERGY PREDICTED BY IDOCK:   -2.87 KCAL/MOL
REMARK 922        TOTAL FREE ENERGY PREDICTED BY IDOCK:   -3.48 KCAL/MOL
REMARK 923 INTER-LIGAND FREE ENERGY PREDICTED BY IDOCK:   -3.17 KCAL/MOL
REMARK 924 INTRA-LIGAND FREE ENERGY PREDICTED BY IDOCK:   -0.31 KCAL/MOL
REMARK 927      BINDING AFFINITY PREDICTED BY RF-SCORE:    0.00 PKD
ROOT
HETATM    1  C   UNL     1      -5.813  18.357  67.927  1.00  0.00    -0.168 C  
HETATM    2  C   UNL     1      -7.046  18.836  68.640  1.00  0.00    -0.295 C  
HETATM    3  N   UNL     1      -8.174  18.110  68.333  1.00  0.00    -0.297 N  
HETATM    4  O   UNL     1      -7.038  19.790  69.411  1.00  0.00    -0.351 OA 
HETATM    5  H   UNL     1      -8.101  17.332  67.677  1.00  0.00     0.000 HD 
ENDROOT
BRANCH   3   6
HETATM    6  C   UNL     1      -9.460  18.421  68.917  1.00  0.00    -0.227 C  
BRANCH   6   7
HETATM    7  C   UNL     1     -10.521  17.400  68.527  1.00  0.00    -0.370 C  
BRANCH   7   8
HETATM    8  C   UNL     1      -9.865  16.110  68.058  1.00  0.00    -0.231 C  
HETATM    9  S   UNL     1      -9.898  15.966  66.281  1.00  0.00    -0.328 S  
HETATM   10  O   UNL     1      -9.022  16.945  65.684  1.00  0.00    -0.486 OA 
HETATM   11  O   UNL     1     -11.258  15.756  65.840  1.00  0.00    -0.168 OA 
HETATM   12  O   UNL     1      -9.183  14.522  66.177  1.00  0.00    -0.244 OA 
ENDBRANCH   7   8
ENDBRANCH   6   7
ENDBRANCH   3   6
TORSDOF 3
ENDMDL
MODEL      141
REMARK 921   NORMALIZED FREE ENERGY PREDICTED BY IDOCK:   -2.87 KCAL/MOL
REMARK 922        TOTAL FREE ENERGY PREDICTED BY IDOCK:   -3.48 KCAL/MOL
REMARK 923 INTER-LIGAND FREE ENERGY PREDICTED BY IDOCK:   -3.48 KCAL/MOL
REMARK 924 INTRA-LIGAND FREE ENERGY PREDICTED BY IDOCK:   -0.00 KCAL/MOL
REMARK 927      BINDING AFFINITY PREDICTED BY RF-SCORE:    0.00 PKD
ROOT
HETATM    1  C   UNL     1      -7.677  10.566  62.524  1.00  0.00    -0.170 C  
HETATM    2  C   UNL     1      -8.206  10.456  63.927  1.00  0.00    -0.115 C  
HETATM    3  N   UNL     1      -9.062  11.477  64.270  1.00  0.00    -0.406 N  
HETATM    4  O   UNL     1      -7.889   9.546  64.685  1.00  0.00    -0.112 OA 
HETATM    5  H   UNL     1      -9.273  12.201  63.585  1.00  0.00     0.000 HD 
ENDROOT
BRANCH   3   6
HETATM    6  C   UNL     1      -9.672  11.547  65.581  1.00  0.00    -0.232 C  
BRANCH   6   7
HETATM    7  C   UNL     1     -11.162  11.236  65.529  1.00  0.00    -0.069 C  
BRANCH   7   8
HETATM    8  C   UNL     1     -11.873  12.213  64.605  1.00  0.00    -0.328 C  
HETATM    9  S   UNL     1     -11.678  13.898  65.155  1.00  0.00    -0.370 S  
HETATM   10  O   UNL     1     -10.309  14.321  64.991  1.00  0.00    -0.397 OA 
HETATM   11  O   UNL     1     -12.420  14.093  66.381  1.00  0.00    -0.461 OA 
HETATM   12  O   UNL     1     -12.563  14.597  64.000  1.00  0.00    -0.819 OA 
ENDBRANCH   7   8
ENDBRANCH   6   7
ENDBRANCH   3   6
TORSDOF 3
ENDMDL
MODEL      142
REMARK 921   NORMALIZED FREE ENERGY PREDICTED BY IDOCK:   -2.85 KCAL/MOL
REMARK 922        TOTAL FREE ENERGY PREDICTED BY IDOCK:   -3.46 KCAL/MOL
REMARK 923 INTER-LIGAND FREE ENERGY PREDICTED BY IDOCK:   -3.04 KCAL/MOL
REMARK 924 INTRA-LIGAND FREE ENERGY PREDICTED BY IDOCK:   -0.42 KCAL/MOL
REMARK 927      BINDING AFFINITY PREDICTED BY RF-SCORE:    0.00 PKD
ROOT
HETATM    1  C   UNL     1     -12.540   8.240  71.955  1.00  0.00    -0.387 C  
HETATM    2  C   UNL     1     -11.851   7.038  71.369  1.00  0.00    -0.320 C  
HETATM    3  N   UNL     1     -11.727   7.092  70.000  1.00  0.00    -0.578 N  
HETATM    4  O   UNL     1     -11.452   6.103  72.055  1.00  0.00    -0.290 OA 
HETATM    5  H   UNL     1     -12.089   7.902  69.499  1.00  0.00     0.000 HD 
ENDROOT
BRANCH   3   6
HETATM    6  C   UNL     1     -11.095   6.026  69.253  1.00  0.00    -0.354 C  
BRANCH   6   7
HETATM    7  C   UNL     1      -9.994   6.550  68.340  1.00  0.00    -0.145 C  
BRANCH   7   8
HETATM    8  C   UNL     1     -10.543   7.626  67.415  1.00  0.00    -0.286 C  
HETATM    9  S   UNL     1      -9.802   9.214  67.744  1.00  0.00    -0.184 S  
HETATM   10  O   UNL     1      -8.413   9.208  67.355  1.00  0.00    -0.115 OA 
HETATM   11  O   UNL     1     -10.257   9.701  69.027  1.00  0.00    -0.183 OA 
HETATM   12  O   UNL     1     -10.630  10.060  66.645  1.00  0.00    -0.198 OA 
ENDBRANCH   7   8
ENDBRANCH   6   7
ENDBRANCH   3   6
TORSDOF 3
ENDMDL
MODEL      143
REMARK 921   NORMALIZED FREE ENERGY PREDICTED BY IDOCK:   -2.85 KCAL/MOL
REMARK 922        TOTAL FREE ENERGY PREDICTED BY IDOCK:   -3.46 KCAL/MOL
REMARK 923 INTER-LIGAND FREE ENERGY PREDICTED BY IDOCK:   -3.14 KCAL/MOL
REMARK 924 INTRA-LIGAND FREE ENERGY PREDICTED BY IDOCK:   -0.33 KCAL/MOL
REMARK 927      BINDING AFFINITY PREDICTED BY RF-SCORE:    0.00 PKD
ROOT
HETATM    1  C   UNL     1      -7.138  16.816  69.056  1.00  0.00    -0.221 C  
HETATM    2  C   UNL     1      -7.774  17.440  67.845  1.00  0.00    -0.199 C  
HETATM    3  N   UNL     1      -9.074  17.040  67.642  1.00  0.00    -0.227 N  
HETATM    4  O   UNL     1      -7.177  18.220  67.111  1.00  0.00    -0.196 OA 
HETATM    5  H   UNL     1      -9.500  16.383  68.295  1.00  0.00     0.000 HD 
ENDROOT
BRANCH   3   6
HETATM    6  C   UNL     1      -9.853  17.528  66.524  1.00  0.00    -0.310 C  
BRANCH   6   7
HETATM    7  C   UNL     1     -10.436  16.388  65.700  1.00  0.00    -0.364 C  
BRANCH   7   8
HETATM    8  C   UNL     1     -10.130  15.050  66.357  1.00  0.00    -0.276 C  
HETATM    9  S   UNL     1     -11.509  14.462  67.322  1.00  0.00    -0.375 S  
HETATM   10  O   UNL     1     -12.602  14.092  66.457  1.00  0.00    -0.394 OA 
HETATM   11  O   UNL     1     -11.677  15.305  68.485  1.00  0.00    -0.340 OA 
HETATM   12  O   UNL     1     -10.817  13.109  67.867  1.00  0.00    -0.233 OA 
ENDBRANCH   7   8
ENDBRANCH   6   7
ENDBRANCH   3   6
TORSDOF 3
ENDMDL
MODEL      144
REMARK 921   NORMALIZED FREE ENERGY PREDICTED BY IDOCK:   -2.84 KCAL/MOL
REMARK 922        TOTAL FREE ENERGY PREDICTED BY IDOCK:   -3.45 KCAL/MOL
REMARK 923 INTER-LIGAND FREE ENERGY PREDICTED BY IDOCK:   -3.08 KCAL/MOL
REMARK 924 INTRA-LIGAND FREE ENERGY PREDICTED BY IDOCK:   -0.37 KCAL/MOL
REMARK 927      BINDING AFFINITY PREDICTED BY RF-SCORE:    0.00 PKD
ROOT
HETATM    1  C   UNL     1     -12.891  11.523  71.221  1.00  0.00    -0.463 C  
HETATM    2  C   UNL     1     -11.699  11.151  70.384  1.00  0.00    -0.320 C  
HETATM    3  N   UNL     1     -11.165   9.924  70.706  1.00  0.00    -0.329 N  
HETATM    4  O   UNL     1     -11.249  11.883  69.509  1.00  0.00    -0.231 OA 
HETATM    5  H   UNL     1     -11.593   9.376  71.450  1.00  0.00     0.000 HD 
ENDROOT
BRANCH   3   6
HETATM    6  C   UNL     1     -10.011   9.393  70.013  1.00  0.00    -0.221 C  
BRANCH   6   7
HETATM    7  C   UNL     1      -9.831   7.904  70.274  1.00  0.00    -0.184 C  
BRANCH   7   8
HETATM    8  C   UNL     1      -9.518   7.659  71.742  1.00  0.00    -0.145 C  
HETATM    9  S   UNL     1     -10.894   6.906  72.590  1.00  0.00    -0.273 S  
HETATM   10  O   UNL     1     -11.086   5.553  72.127  1.00  0.00    -0.245 OA 
HETATM   11  O   UNL     1     -11.974   7.862  72.697  1.00  0.00    -0.327 OA 
HETATM   12  O   UNL     1     -10.225   6.846  74.058  1.00  0.00    -0.341 OA 
ENDBRANCH   7   8
ENDBRANCH   6   7
ENDBRANCH   3   6
TORSDOF 3
ENDMDL
MODEL      145
REMARK 921   NORMALIZED FREE ENERGY PREDICTED BY IDOCK:   -2.84 KCAL/MOL
REMARK 922        TOTAL FREE ENERGY PREDICTED BY IDOCK:   -3.44 KCAL/MOL
REMARK 923 INTER-LIGAND FREE ENERGY PREDICTED BY IDOCK:   -3.30 KCAL/MOL
REMARK 924 INTRA-LIGAND FREE ENERGY PREDICTED BY IDOCK:   -0.14 KCAL/MOL
REMARK 927      BINDING AFFINITY PREDICTED BY RF-SCORE:    0.00 PKD
ROOT
HETATM    1  C   UNL     1      -9.318   9.384  65.602  1.00  0.00    -0.309 C  
HETATM    2  C   UNL     1     -10.281   9.286  66.753  1.00  0.00    -0.255 C  
HETATM    3  N   UNL     1     -10.502  10.487  67.385  1.00  0.00    -0.227 N  
HETATM    4  O   UNL     1     -10.803   8.229  67.092  1.00  0.00    -0.244 OA 
HETATM    5  H   UNL     1     -10.026  11.322  67.047  1.00  0.00     0.000 HD 
ENDROOT
BRANCH   3   6
HETATM    6  C   UNL     1     -11.396  10.595  68.518  1.00  0.00    -0.284 C  
BRANCH   6   7
HETATM    7  C   UNL     1     -10.686  10.284  69.830  1.00  0.00    -0.328 C  
BRANCH   7   8
HETATM    8  C   UNL     1     -11.684  10.263  70.978  1.00  0.00    -0.370 C  
HETATM    9  S   UNL     1     -11.678   8.693  71.824  1.00  0.00    -0.359 S  
HETATM   10  O   UNL     1     -10.439   8.517  72.541  1.00  0.00    -0.317 OA 
HETATM   11  O   UNL     1     -12.237   7.678  70.959  1.00  0.00    -0.301 OA 
HETATM   12  O   UNL     1     -12.838   9.031  72.896  1.00  0.00    -0.305 OA 
ENDBRANCH   7   8
ENDBRANCH   6   7
ENDBRANCH   3   6
TORSDOF 3
ENDMDL
MODEL      146
REMARK 921   NORMALIZED FREE ENERGY PREDICTED BY IDOCK:   -2.83 KCAL/MOL
REMARK 922        TOTAL FREE ENERGY PREDICTED BY IDOCK:   -3.44 KCAL/MOL
REMARK 923 INTER-LIGAND FREE ENERGY PREDICTED BY IDOCK:   -3.14 KCAL/MOL
REMARK 924 INTRA-LIGAND FREE ENERGY PREDICTED BY IDOCK:   -0.30 KCAL/MOL
REMARK 927      BINDING AFFINITY PREDICTED BY RF-SCORE:    0.00 PKD
ROOT
HETATM    1  C   UNL     1     -10.384  17.106  69.065  1.00  0.00    -0.331 C  
HETATM    2  C   UNL     1      -9.250  16.225  68.620  1.00  0.00    -0.227 C  
HETATM    3  N   UNL     1      -9.659  15.125  67.902  1.00  0.00    -0.202 N  
HETATM    4  O   UNL     1      -8.078  16.469  68.887  1.00  0.00    -0.227 OA 
HETATM    5  H   UNL     1     -10.654  14.989  67.726  1.00  0.00     0.000 HD 
ENDROOT
BRANCH   3   6
HETATM    6  C   UNL     1      -8.713  14.157  67.391  1.00  0.00    -0.210 C  
BRANCH   6   7
HETATM    7  C   UNL     1      -9.230  12.731  67.533  1.00  0.00    -0.191 C  
BRANCH   7   8
HETATM    8  C   UNL     1      -9.714  12.209  66.188  1.00  0.00    -0.240 C  
HETATM    9  S   UNL     1     -11.420  12.639  65.893  1.00  0.00    -0.384 S  
HETATM   10  O   UNL     1     -11.548  14.062  65.691  1.00  0.00    -0.317 OA 
HETATM   11  O   UNL     1     -12.267  11.893  66.796  1.00  0.00    -0.489 OA 
HETATM   12  O   UNL     1     -11.571  11.911  64.459  1.00  0.00    -0.322 OA 
ENDBRANCH   7   8
ENDBRANCH   6   7
ENDBRANCH   3   6
TORSDOF 3
ENDMDL
MODEL      147
REMARK 921   NORMALIZED FREE ENERGY PREDICTED BY IDOCK:   -2.83 KCAL/MOL
REMARK 922        TOTAL FREE ENERGY PREDICTED BY IDOCK:   -3.44 KCAL/MOL
REMARK 923 INTER-LIGAND FREE ENERGY PREDICTED BY IDOCK:   -3.30 KCAL/MOL
REMARK 924 INTRA-LIGAND FREE ENERGY PREDICTED BY IDOCK:   -0.14 KCAL/MOL
REMARK 927      BINDING AFFINITY PREDICTED BY RF-SCORE:    0.00 PKD
ROOT
HETATM    1  C   UNL     1      -9.524  15.105  68.403  1.00  0.00    -0.208 C  
HETATM    2  C   UNL     1     -10.318  13.854  68.149  1.00  0.00    -0.247 C  
HETATM    3  N   UNL     1     -10.953  13.372  69.271  1.00  0.00    -0.429 N  
HETATM    4  O   UNL     1     -10.377  13.318  67.047  1.00  0.00    -0.244 OA 
HETATM    5  H   UNL     1     -10.850  13.871  70.153  1.00  0.00     0.000 HD 
ENDROOT
BRANCH   3   6
HETATM    6  C   UNL     1     -11.762  12.173  69.228  1.00  0.00    -0.328 C  
BRANCH   6   7
HETATM    7  C   UNL     1     -11.089  11.010  69.946  1.00  0.00    -0.276 C  
BRANCH   7   8
HETATM    8  C   UNL     1     -12.009  10.448  71.019  1.00  0.00    -0.382 C  
HETATM    9  S   UNL     1     -11.497   8.821  71.537  1.00  0.00    -0.332 S  
HETATM   10  O   UNL     1     -10.252   8.896  72.262  1.00  0.00    -0.296 OA 
HETATM   11  O   UNL     1     -11.725   7.880  70.463  1.00  0.00    -0.213 OA 
HETATM   12  O   UNL     1     -12.684   8.558  72.599  1.00  0.00    -0.341 OA 
ENDBRANCH   7   8
ENDBRANCH   6   7
ENDBRANCH   3   6
TORSDOF 3
ENDMDL
MODEL      148
REMARK 921   NORMALIZED FREE ENERGY PREDICTED BY IDOCK:   -2.82 KCAL/MOL
REMARK 922        TOTAL FREE ENERGY PREDICTED BY IDOCK:   -3.43 KCAL/MOL
REMARK 923 INTER-LIGAND FREE ENERGY PREDICTED BY IDOCK:   -3.28 KCAL/MOL
REMARK 924 INTRA-LIGAND FREE ENERGY PREDICTED BY IDOCK:   -0.15 KCAL/MOL
REMARK 927      BINDING AFFINITY PREDICTED BY RF-SCORE:    0.00 PKD
ROOT
HETATM    1  C   UNL     1      -6.318  17.161  68.825  1.00  0.00    -0.175 C  
HETATM    2  C   UNL     1      -7.576  16.412  68.485  1.00  0.00    -0.188 C  
HETATM    3  N   UNL     1      -8.725  17.098  68.804  1.00  0.00    -0.260 N  
HETATM    4  O   UNL     1      -7.566  15.293  67.983  1.00  0.00    -0.113 OA 
HETATM    5  H   UNL     1      -8.651  18.023  69.225  1.00  0.00     0.000 HD 
ENDROOT
BRANCH   3   6
HETATM    6  C   UNL     1     -10.037  16.538  68.556  1.00  0.00    -0.255 C  
BRANCH   6   7
HETATM    7  C   UNL     1     -10.565  15.779  69.766  1.00  0.00    -0.312 C  
BRANCH   7   8
HETATM    8  C   UNL     1     -12.085  15.839  69.805  1.00  0.00    -0.281 C  
HETATM    9  S   UNL     1     -12.726  15.241  71.358  1.00  0.00    -0.433 S  
HETATM   10  O   UNL     1     -12.394  16.157  72.422  1.00  0.00    -0.467 OA 
HETATM   11  O   UNL     1     -12.508  13.814  71.451  1.00  0.00    -0.351 OA 
HETATM   12  O   UNL     1     -14.294  15.415  71.015  1.00  0.00    -0.447 OA 
ENDBRANCH   7   8
ENDBRANCH   6   7
ENDBRANCH   3   6
TORSDOF 3
ENDMDL
MODEL      149
REMARK 921   NORMALIZED FREE ENERGY PREDICTED BY IDOCK:   -2.82 KCAL/MOL
REMARK 922        TOTAL FREE ENERGY PREDICTED BY IDOCK:   -3.42 KCAL/MOL
REMARK 923 INTER-LIGAND FREE ENERGY PREDICTED BY IDOCK:   -3.26 KCAL/MOL
REMARK 924 INTRA-LIGAND FREE ENERGY PREDICTED BY IDOCK:   -0.16 KCAL/MOL
REMARK 927      BINDING AFFINITY PREDICTED BY RF-SCORE:    0.00 PKD
ROOT
HETATM    1  C   UNL     1     -10.963  12.900  64.014  1.00  0.00    -0.447 C  
HETATM    2  C   UNL     1     -11.788  12.733  65.260  1.00  0.00    -0.403 C  
HETATM    3  N   UNL     1     -11.050  12.359  66.360  1.00  0.00    -0.286 N  
HETATM    4  O   UNL     1     -13.002  12.905  65.279  1.00  0.00    -0.703 OA 
HETATM    5  H   UNL     1     -10.044  12.230  66.262  1.00  0.00     0.000 HD 
ENDROOT
BRANCH   3   6
HETATM    6  C   UNL     1     -11.667  12.146  67.651  1.00  0.00    -0.316 C  
BRANCH   6   7
HETATM    7  C   UNL     1     -11.464  10.719  68.145  1.00  0.00    -0.346 C  
BRANCH   7   8
HETATM    8  C   UNL     1     -10.008  10.492  68.521  1.00  0.00    -0.170 C  
HETATM    9  S   UNL     1      -9.493   8.821  68.171  1.00  0.00    -0.141 S  
HETATM   10  O   UNL     1      -9.440   8.603  66.746  1.00  0.00    -0.162 OA 
HETATM   11  O   UNL     1     -10.153   7.913  69.081  1.00  0.00    -0.186 OA 
HETATM   12  O   UNL     1      -7.979   8.953  68.717  1.00  0.00    -0.099 OA 
ENDBRANCH   7   8
ENDBRANCH   6   7
ENDBRANCH   3   6
TORSDOF 3
ENDMDL
MODEL      150
REMARK 921   NORMALIZED FREE ENERGY PREDICTED BY IDOCK:   -2.82 KCAL/MOL
REMARK 922        TOTAL FREE ENERGY PREDICTED BY IDOCK:   -3.42 KCAL/MOL
REMARK 923 INTER-LIGAND FREE ENERGY PREDICTED BY IDOCK:   -3.27 KCAL/MOL
REMARK 924 INTRA-LIGAND FREE ENERGY PREDICTED BY IDOCK:   -0.15 KCAL/MOL
REMARK 927      BINDING AFFINITY PREDICTED BY RF-SCORE:    0.00 PKD
ROOT
HETATM    1  C   UNL     1      -7.669  16.415  68.434  1.00  0.00    -0.177 C  
HETATM    2  C   UNL     1      -8.848  15.976  67.612  1.00  0.00    -0.185 C  
HETATM    3  N   UNL     1      -9.981  15.746  68.358  1.00  0.00    -0.215 N  
HETATM    4  O   UNL     1      -8.790  15.830  66.395  1.00  0.00    -0.282 OA 
HETATM    5  H   UNL     1      -9.948  15.885  69.367  1.00  0.00     0.000 HD 
ENDROOT
BRANCH   3   6
HETATM    6  C   UNL     1     -11.218  15.313  67.745  1.00  0.00    -0.326 C  
BRANCH   6   7
HETATM    7  C   UNL     1     -11.827  14.125  68.479  1.00  0.00    -0.390 C  
BRANCH   7   8
HETATM    8  C   UNL     1     -10.757  13.087  68.783  1.00  0.00    -0.221 C  
HETATM    9  S   UNL     1     -11.468  11.480  69.086  1.00  0.00    -0.328 S  
HETATM   10  O   UNL     1     -12.024  10.943  67.868  1.00  0.00    -0.585 OA 
HETATM   11  O   UNL     1     -12.190  11.502  70.338  1.00  0.00    -0.343 OA 
HETATM   12  O   UNL     1     -10.089  10.699  69.397  1.00  0.00    -0.218 OA 
ENDBRANCH   7   8
ENDBRANCH   6   7
ENDBRANCH   3   6
TORSDOF 3
ENDMDL
MODEL      151
REMARK 921   NORMALIZED FREE ENERGY PREDICTED BY IDOCK:   -2.81 KCAL/MOL
REMARK 922        TOTAL FREE ENERGY PREDICTED BY IDOCK:   -3.42 KCAL/MOL
REMARK 923 INTER-LIGAND FREE ENERGY PREDICTED BY IDOCK:   -3.01 KCAL/MOL
REMARK 924 INTRA-LIGAND FREE ENERGY PREDICTED BY IDOCK:   -0.41 KCAL/MOL
REMARK 927      BINDING AFFINITY PREDICTED BY RF-SCORE:    0.00 PKD
ROOT
HETATM    1  C   UNL     1     -10.082  19.187  66.608  1.00  0.00    -0.469 C  
HETATM    2  C   UNL     1     -10.385  17.867  67.261  1.00  0.00    -0.369 C  
HETATM    3  N   UNL     1     -10.288  16.796  66.403  1.00  0.00    -0.315 N  
HETATM    4  O   UNL     1     -10.698  17.769  68.443  1.00  0.00    -0.316 OA 
HETATM    5  H   UNL     1     -10.027  16.959  65.431  1.00  0.00     0.000 HD 
ENDROOT
BRANCH   3   6
HETATM    6  C   UNL     1     -10.547  15.443  66.845  1.00  0.00    -0.309 C  
BRANCH   6   7
HETATM    7  C   UNL     1      -9.281  14.595  66.842  1.00  0.00    -0.267 C  
BRANCH   7   8
HETATM    8  C   UNL     1      -8.625  14.620  68.215  1.00  0.00    -0.167 C  
HETATM    9  S   UNL     1      -7.090  15.527  68.191  1.00  0.00    -0.129 S  
HETATM   10  O   UNL     1      -7.344  16.933  67.988  1.00  0.00    -0.163 OA 
HETATM   11  O   UNL     1      -6.106  14.788  67.432  1.00  0.00    -0.338 OA 
HETATM   12  O   UNL     1      -6.695  15.305  69.741  1.00  0.00    -0.166 OA 
ENDBRANCH   7   8
ENDBRANCH   6   7
ENDBRANCH   3   6
TORSDOF 3
ENDMDL
MODEL      152
REMARK 921   NORMALIZED FREE ENERGY PREDICTED BY IDOCK:   -2.80 KCAL/MOL
REMARK 922        TOTAL FREE ENERGY PREDICTED BY IDOCK:   -3.40 KCAL/MOL
REMARK 923 INTER-LIGAND FREE ENERGY PREDICTED BY IDOCK:   -3.05 KCAL/MOL
REMARK 924 INTRA-LIGAND FREE ENERGY PREDICTED BY IDOCK:   -0.35 KCAL/MOL
REMARK 927      BINDING AFFINITY PREDICTED BY RF-SCORE:    0.00 PKD
ROOT
HETATM    1  C   UNL     1     -11.046   6.237  70.373  1.00  0.00    -0.416 C  
HETATM    2  C   UNL     1     -10.671   6.211  68.917  1.00  0.00    -0.312 C  
HETATM    3  N   UNL     1     -10.882   7.410  68.276  1.00  0.00    -0.425 N  
HETATM    4  O   UNL     1     -10.231   5.209  68.364  1.00  0.00    -0.159 OA 
HETATM    5  H   UNL     1     -11.256   8.197  68.804  1.00  0.00     0.000 HD 
ENDROOT
BRANCH   3   6
HETATM    6  C   UNL     1     -10.584   7.581  66.870  1.00  0.00    -0.297 C  
BRANCH   6   7
HETATM    7  C   UNL     1      -9.820   8.873  66.607  1.00  0.00    -0.332 C  
BRANCH   7   8
HETATM    8  C   UNL     1     -10.786  10.041  66.481  1.00  0.00     0.057 C  
HETATM    9  S   UNL     1     -10.902  10.963  68.003  1.00  0.00    -0.268 S  
HETATM   10  O   UNL     1      -9.667  11.662  68.259  1.00  0.00    -0.186 OA 
HETATM   11  O   UNL     1     -11.573  10.161  69.002  1.00  0.00    -0.143 OA 
HETATM   12  O   UNL     1     -11.998  12.041  67.509  1.00  0.00    -0.572 OA 
ENDBRANCH   7   8
ENDBRANCH   6   7
ENDBRANCH   3   6
TORSDOF 3
ENDMDL
MODEL      153
REMARK 921   NORMALIZED FREE ENERGY PREDICTED BY IDOCK:   -2.79 KCAL/MOL
REMARK 922        TOTAL FREE ENERGY PREDICTED BY IDOCK:   -3.39 KCAL/MOL
REMARK 923 INTER-LIGAND FREE ENERGY PREDICTED BY IDOCK:   -3.16 KCAL/MOL
REMARK 924 INTRA-LIGAND FREE ENERGY PREDICTED BY IDOCK:   -0.23 KCAL/MOL
REMARK 927      BINDING AFFINITY PREDICTED BY RF-SCORE:    0.00 PKD
ROOT
HETATM    1  C   UNL     1     -11.064  12.763  63.842  1.00  0.00    -0.477 C  
HETATM    2  C   UNL     1     -11.439  12.431  65.260  1.00  0.00    -0.344 C  
HETATM    3  N   UNL     1     -10.390  11.939  66.002  1.00  0.00    -0.225 N  
HETATM    4  O   UNL     1     -12.575  12.578  65.697  1.00  0.00    -0.612 OA 
HETATM    5  H   UNL     1      -9.475  11.841  65.566  1.00  0.00     0.000 HD 
ENDROOT
BRANCH   3   6
HETATM    6  C   UNL     1     -10.555  11.558  67.389  1.00  0.00    -0.214 C  
BRANCH   6   7
HETATM    7  C   UNL     1      -9.720  12.430  68.318  1.00  0.00    -0.218 C  
BRANCH   7   8
HETATM    8  C   UNL     1     -10.260  13.852  68.335  1.00  0.00    -0.243 C  
HETATM    9  S   UNL     1      -8.964  15.049  68.070  1.00  0.00    -0.177 S  
HETATM   10  O   UNL     1      -8.475  14.963  66.716  1.00  0.00    -0.235 OA 
HETATM   11  O   UNL     1      -8.091  15.075  69.222  1.00  0.00    -0.184 OA 
HETATM   12  O   UNL     1      -9.879  16.374  68.193  1.00  0.00    -0.231 OA 
ENDBRANCH   7   8
ENDBRANCH   6   7
ENDBRANCH   3   6
TORSDOF 3
ENDMDL
MODEL      154
REMARK 921   NORMALIZED FREE ENERGY PREDICTED BY IDOCK:   -2.77 KCAL/MOL
REMARK 922        TOTAL FREE ENERGY PREDICTED BY IDOCK:   -3.36 KCAL/MOL
REMARK 923 INTER-LIGAND FREE ENERGY PREDICTED BY IDOCK:   -3.18 KCAL/MOL
REMARK 924 INTRA-LIGAND FREE ENERGY PREDICTED BY IDOCK:   -0.18 KCAL/MOL
REMARK 927      BINDING AFFINITY PREDICTED BY RF-SCORE:    0.00 PKD
ROOT
HETATM    1  C   UNL     1     -11.077   4.485  73.246  1.00  0.00    -0.389 C  
HETATM    2  C   UNL     1     -11.163   5.716  72.388  1.00  0.00    -0.280 C  
HETATM    3  N   UNL     1     -11.424   6.863  73.101  1.00  0.00    -0.509 N  
HETATM    4  O   UNL     1     -11.022   5.686  71.169  1.00  0.00    -0.246 OA 
HETATM    5  H   UNL     1     -11.534   6.806  74.112  1.00  0.00     0.000 HD 
ENDROOT
BRANCH   3   6
HETATM    6  C   UNL     1     -11.547   8.150  72.450  1.00  0.00    -0.399 C  
BRANCH   6   7
HETATM    7  C   UNL     1     -10.186   8.766  72.153  1.00  0.00    -0.371 C  
BRANCH   7   8
HETATM    8  C   UNL     1     -10.137   9.273  70.720  1.00  0.00    -0.291 C  
HETATM    9  S   UNL     1      -8.526   9.033  69.993  1.00  0.00    -0.162 S  
HETATM   10  O   UNL     1      -8.276   7.627  69.789  1.00  0.00    -0.126 OA 
HETATM   11  O   UNL     1      -7.575   9.917  70.628  1.00  0.00    -0.288 OA 
HETATM   12  O   UNL     1      -8.845   9.701  68.558  1.00  0.00    -0.122 OA 
ENDBRANCH   7   8
ENDBRANCH   6   7
ENDBRANCH   3   6
TORSDOF 3
ENDMDL
MODEL      155
REMARK 921   NORMALIZED FREE ENERGY PREDICTED BY IDOCK:   -2.74 KCAL/MOL
REMARK 922        TOTAL FREE ENERGY PREDICTED BY IDOCK:   -3.33 KCAL/MOL
REMARK 923 INTER-LIGAND FREE ENERGY PREDICTED BY IDOCK:   -2.96 KCAL/MOL
REMARK 924 INTRA-LIGAND FREE ENERGY PREDICTED BY IDOCK:   -0.37 KCAL/MOL
REMARK 927      BINDING AFFINITY PREDICTED BY RF-SCORE:    0.00 PKD
ROOT
HETATM    1  C   UNL     1     -10.450   7.859  67.439  1.00  0.00    -0.360 C  
HETATM    2  C   UNL     1      -9.313   8.760  67.833  1.00  0.00    -0.142 C  
HETATM    3  N   UNL     1      -9.586  10.097  67.654  1.00  0.00    -0.147 N  
HETATM    4  O   UNL     1      -8.247   8.333  68.263  1.00  0.00    -0.125 OA 
HETATM    5  H   UNL     1     -10.496  10.373  67.287  1.00  0.00     0.000 HD 
ENDROOT
BRANCH   3   6
HETATM    6  C   UNL     1      -8.614  11.120  67.973  1.00  0.00    -0.140 C  
BRANCH   6   7
HETATM    7  C   UNL     1      -8.640  12.261  66.965  1.00  0.00    -0.191 C  
BRANCH   7   8
HETATM    8  C   UNL     1      -9.726  13.263  67.329  1.00  0.00    -0.231 C  
HETATM    9  S   UNL     1     -11.069  13.231  66.156  1.00  0.00    -0.288 S  
HETATM   10  O   UNL     1     -11.799  11.991  66.267  1.00  0.00    -0.563 OA 
HETATM   11  O   UNL     1     -10.616  13.767  64.892  1.00  0.00    -0.365 OA 
HETATM   12  O   UNL     1     -11.957  14.400  66.827  1.00  0.00    -0.411 OA 
ENDBRANCH   7   8
ENDBRANCH   6   7
ENDBRANCH   3   6
TORSDOF 3
ENDMDL
MODEL      156
REMARK 921   NORMALIZED FREE ENERGY PREDICTED BY IDOCK:   -2.74 KCAL/MOL
REMARK 922        TOTAL FREE ENERGY PREDICTED BY IDOCK:   -3.33 KCAL/MOL
REMARK 923 INTER-LIGAND FREE ENERGY PREDICTED BY IDOCK:   -3.10 KCAL/MOL
REMARK 924 INTRA-LIGAND FREE ENERGY PREDICTED BY IDOCK:   -0.23 KCAL/MOL
REMARK 927      BINDING AFFINITY PREDICTED BY RF-SCORE:    0.00 PKD
ROOT
HETATM    1  C   UNL     1      -9.790  10.673  68.042  1.00  0.00    -0.177 C  
HETATM    2  C   UNL     1     -10.980  11.564  68.265  1.00  0.00    -0.224 C  
HETATM    3  N   UNL     1     -10.661  12.767  68.852  1.00  0.00    -0.401 N  
HETATM    4  O   UNL     1     -12.121  11.234  67.960  1.00  0.00    -0.638 OA 
HETATM    5  H   UNL     1      -9.688  12.966  69.081  1.00  0.00     0.000 HD 
ENDROOT
BRANCH   3   6
HETATM    6  C   UNL     1     -11.673  13.758  69.150  1.00  0.00    -0.334 C  
BRANCH   6   7
HETATM    7  C   UNL     1     -11.778  14.808  68.052  1.00  0.00    -0.360 C  
BRANCH   7   8
HETATM    8  C   UNL     1     -10.418  15.439  67.793  1.00  0.00    -0.266 C  
HETATM    9  S   UNL     1     -10.274  17.033  68.579  1.00  0.00    -0.346 S  
HETATM   10  O   UNL     1     -10.231  16.881  70.013  1.00  0.00     0.061 OA 
HETATM   11  O   UNL     1     -11.144  17.978  67.915  1.00  0.00    -0.191 OA 
HETATM   12  O   UNL     1      -8.784  17.384  68.065  1.00  0.00    -0.229 OA 
ENDBRANCH   7   8
ENDBRANCH   6   7
ENDBRANCH   3   6
TORSDOF 3
ENDMDL
MODEL      157
REMARK 921   NORMALIZED FREE ENERGY PREDICTED BY IDOCK:   -2.74 KCAL/MOL
REMARK 922        TOTAL FREE ENERGY PREDICTED BY IDOCK:   -3.32 KCAL/MOL
REMARK 923 INTER-LIGAND FREE ENERGY PREDICTED BY IDOCK:   -3.18 KCAL/MOL
REMARK 924 INTRA-LIGAND FREE ENERGY PREDICTED BY IDOCK:   -0.15 KCAL/MOL
REMARK 927      BINDING AFFINITY PREDICTED BY RF-SCORE:    0.00 PKD
ROOT
HETATM    1  C   UNL     1     -10.128   7.820  67.224  1.00  0.00    -0.307 C  
HETATM    2  C   UNL     1     -10.418   9.235  66.807  1.00  0.00    -0.193 C  
HETATM    3  N   UNL     1     -11.014   9.986  67.794  1.00  0.00    -0.395 N  
HETATM    4  O   UNL     1     -10.153   9.664  65.689  1.00  0.00    -0.296 OA 
HETATM    5  H   UNL     1     -11.207   9.555  68.698  1.00  0.00     0.000 HD 
ENDROOT
BRANCH   3   6
HETATM    6  C   UNL     1     -11.374  11.371  67.582  1.00  0.00    -0.290 C  
BRANCH   6   7
HETATM    7  C   UNL     1     -11.111  12.220  68.819  1.00  0.00    -0.295 C  
BRANCH   7   8
HETATM    8  C   UNL     1     -11.742  13.595  68.659  1.00  0.00    -0.354 C  
HETATM    9  S   UNL     1     -10.522  14.835  68.264  1.00  0.00    -0.246 S  
HETATM   10  O   UNL     1     -10.004  14.620  66.935  1.00  0.00    -0.245 OA 
HETATM   11  O   UNL     1      -9.672  15.057  69.413  1.00  0.00    -0.209 OA 
HETATM   12  O   UNL     1     -11.522  16.102  68.217  1.00  0.00    -0.348 OA 
ENDBRANCH   7   8
ENDBRANCH   6   7
ENDBRANCH   3   6
TORSDOF 3
ENDMDL
MODEL      158
REMARK 921   NORMALIZED FREE ENERGY PREDICTED BY IDOCK:   -2.73 KCAL/MOL
REMARK 922        TOTAL FREE ENERGY PREDICTED BY IDOCK:   -3.32 KCAL/MOL
REMARK 923 INTER-LIGAND FREE ENERGY PREDICTED BY IDOCK:   -3.18 KCAL/MOL
REMARK 924 INTRA-LIGAND FREE ENERGY PREDICTED BY IDOCK:   -0.14 KCAL/MOL
REMARK 927      BINDING AFFINITY PREDICTED BY RF-SCORE:    0.00 PKD
ROOT
HETATM    1  C   UNL     1     -10.188  13.290  66.011  1.00  0.00    -0.291 C  
HETATM    2  C   UNL     1     -11.293  13.443  67.019  1.00  0.00    -0.317 C  
HETATM    3  N   UNL     1     -11.040  12.804  68.211  1.00  0.00    -0.242 N  
HETATM    4  O   UNL     1     -12.321  14.070  66.785  1.00  0.00    -0.439 OA 
HETATM    5  H   UNL     1     -10.163  12.298  68.327  1.00  0.00     0.000 HD 
ENDROOT
BRANCH   3   6
HETATM    6  C   UNL     1     -11.988  12.833  69.304  1.00  0.00    -0.246 C  
BRANCH   6   7
HETATM    7  C   UNL     1     -11.662  11.788  70.363  1.00  0.00    -0.253 C  
BRANCH   7   8
HETATM    8  C   UNL     1     -11.557  10.409  69.730  1.00  0.00    -0.269 C  
HETATM    9  S   UNL     1     -10.860   9.219  70.860  1.00  0.00    -0.326 S  
HETATM   10  O   UNL     1     -11.783   8.951  71.936  1.00  0.00    -0.327 OA 
HETATM   11  O   UNL     1      -9.464   9.525  71.080  1.00  0.00    -0.221 OA 
HETATM   12  O   UNL     1     -10.871   7.952  69.859  1.00  0.00    -0.247 OA 
ENDBRANCH   7   8
ENDBRANCH   6   7
ENDBRANCH   3   6
TORSDOF 3
ENDMDL
MODEL      159
REMARK 921   NORMALIZED FREE ENERGY PREDICTED BY IDOCK:   -2.73 KCAL/MOL
REMARK 922        TOTAL FREE ENERGY PREDICTED BY IDOCK:   -3.32 KCAL/MOL
REMARK 923 INTER-LIGAND FREE ENERGY PREDICTED BY IDOCK:   -3.15 KCAL/MOL
REMARK 924 INTRA-LIGAND FREE ENERGY PREDICTED BY IDOCK:   -0.16 KCAL/MOL
REMARK 927      BINDING AFFINITY PREDICTED BY RF-SCORE:    0.00 PKD
ROOT
HETATM    1  C   UNL     1     -11.266   2.496  73.586  1.00  0.00    -0.318 C  
HETATM    2  C   UNL     1     -10.461   3.622  72.998  1.00  0.00    -0.170 C  
HETATM    3  N   UNL     1     -10.554   4.794  73.712  1.00  0.00    -0.245 N  
HETATM    4  O   UNL     1      -9.797   3.498  71.973  1.00  0.00    -0.153 OA 
HETATM    5  H   UNL     1     -11.131   4.819  74.552  1.00  0.00     0.000 HD 
ENDROOT
BRANCH   3   6
HETATM    6  C   UNL     1      -9.853   5.991  73.302  1.00  0.00    -0.165 C  
BRANCH   6   7
HETATM    7  C   UNL     1     -10.616   7.253  73.684  1.00  0.00    -0.353 C  
BRANCH   7   8
HETATM    8  C   UNL     1     -10.633   8.233  72.520  1.00  0.00    -0.337 C  
HETATM    9  S   UNL     1     -12.243   8.316  71.757  1.00  0.00    -0.345 S  
HETATM   10  O   UNL     1     -13.187   8.942  72.649  1.00  0.00    -0.427 OA 
HETATM   11  O   UNL     1     -12.514   7.073  71.070  1.00  0.00    -0.376 OA 
HETATM   12  O   UNL     1     -11.866   9.375  70.597  1.00  0.00    -0.265 OA 
ENDBRANCH   7   8
ENDBRANCH   6   7
ENDBRANCH   3   6
TORSDOF 3
ENDMDL
MODEL      160
REMARK 921   NORMALIZED FREE ENERGY PREDICTED BY IDOCK:   -2.71 KCAL/MOL
REMARK 922        TOTAL FREE ENERGY PREDICTED BY IDOCK:   -3.29 KCAL/MOL
REMARK 923 INTER-LIGAND FREE ENERGY PREDICTED BY IDOCK:   -3.07 KCAL/MOL
REMARK 924 INTRA-LIGAND FREE ENERGY PREDICTED BY IDOCK:   -0.23 KCAL/MOL
REMARK 927      BINDING AFFINITY PREDICTED BY RF-SCORE:    0.00 PKD
ROOT
HETATM    1  C   UNL     1     -10.507   7.684  67.324  1.00  0.00    -0.396 C  
HETATM    2  C   UNL     1     -10.609   6.751  68.498  1.00  0.00    -0.225 C  
HETATM    3  N   UNL     1     -11.352   7.259  69.538  1.00  0.00    -0.475 N  
HETATM    4  O   UNL     1     -10.069   5.650  68.519  1.00  0.00    -0.156 OA 
HETATM    5  H   UNL     1     -11.766   8.187  69.447  1.00  0.00     0.000 HD 
ENDROOT
BRANCH   3   6
HETATM    6  C   UNL     1     -11.562   6.510  70.759  1.00  0.00    -0.377 C  
BRANCH   6   7
HETATM    7  C   UNL     1     -11.238   7.340  71.994  1.00  0.00    -0.285 C  
BRANCH   7   8
HETATM    8  C   UNL     1     -11.534   8.810  71.736  1.00  0.00    -0.342 C  
HETATM    9  S   UNL     1     -13.259   9.186  71.988  1.00  0.00    -0.476 S  
HETATM   10  O   UNL     1     -13.592   9.087  73.388  1.00  0.00     0.091 OA 
HETATM   11  O   UNL     1     -14.044   8.563  70.946  1.00  0.00    -0.015 OA 
HETATM   12  O   UNL     1     -13.188  10.751  71.596  1.00  0.00    -0.413 OA 
ENDBRANCH   7   8
ENDBRANCH   6   7
ENDBRANCH   3   6
TORSDOF 3
ENDMDL
MODEL      161
REMARK 921   NORMALIZED FREE ENERGY PREDICTED BY IDOCK:   -2.70 KCAL/MOL
REMARK 922        TOTAL FREE ENERGY PREDICTED BY IDOCK:   -3.29 KCAL/MOL
REMARK 923 INTER-LIGAND FREE ENERGY PREDICTED BY IDOCK:   -3.49 KCAL/MOL
REMARK 924 INTRA-LIGAND FREE ENERGY PREDICTED BY IDOCK:    0.20 KCAL/MOL
REMARK 927      BINDING AFFINITY PREDICTED BY RF-SCORE:    0.00 PKD
ROOT
HETATM    1  C   UNL     1     -11.387  15.608  71.442  1.00  0.00    -0.448 C  
HETATM    2  C   UNL     1     -11.438  14.764  70.199  1.00  0.00    -0.266 C  
HETATM    3  N   UNL     1     -10.263  14.772  69.482  1.00  0.00    -0.394 N  
HETATM    4  O   UNL     1     -12.439  14.141  69.861  1.00  0.00    -0.341 OA 
HETATM    5  H   UNL     1      -9.475  15.320  69.826  1.00  0.00     0.000 HD 
ENDROOT
BRANCH   3   6
HETATM    6  C   UNL     1     -10.118  14.023  68.253  1.00  0.00    -0.246 C  
BRANCH   6   7
HETATM    7  C   UNL     1      -8.719  14.163  67.667  1.00  0.00    -0.187 C  
BRANCH   7   8
HETATM    8  C   UNL     1      -8.469  15.600  67.235  1.00  0.00    -0.191 C  
HETATM    9  S   UNL     1      -9.843  16.255  66.306  1.00  0.00    -0.334 S  
HETATM   10  O   UNL     1     -10.989  16.428  67.165  1.00  0.00    -0.226 OA 
HETATM   11  O   UNL     1      -9.915  15.593  65.023  1.00  0.00    -0.362 OA 
HETATM   12  O   UNL     1      -9.214  17.711  66.006  1.00  0.00    -0.491 OA 
ENDBRANCH   7   8
ENDBRANCH   6   7
ENDBRANCH   3   6
TORSDOF 3
ENDMDL
MODEL      162
REMARK 921   NORMALIZED FREE ENERGY PREDICTED BY IDOCK:   -2.67 KCAL/MOL
REMARK 922        TOTAL FREE ENERGY PREDICTED BY IDOCK:   -3.25 KCAL/MOL
REMARK 923 INTER-LIGAND FREE ENERGY PREDICTED BY IDOCK:   -3.12 KCAL/MOL
REMARK 924 INTRA-LIGAND FREE ENERGY PREDICTED BY IDOCK:   -0.12 KCAL/MOL
REMARK 927      BINDING AFFINITY PREDICTED BY RF-SCORE:    0.00 PKD
ROOT
HETATM    1  C   UNL     1     -11.157   7.738  73.035  1.00  0.00    -0.419 C  
HETATM    2  C   UNL     1     -12.072   8.291  71.978  1.00  0.00    -0.348 C  
HETATM    3  N   UNL     1     -11.959   9.652  71.814  1.00  0.00    -0.381 N  
HETATM    4  O   UNL     1     -12.846   7.587  71.338  1.00  0.00    -0.347 OA 
HETATM    5  H   UNL     1     -11.295  10.169  72.389  1.00  0.00     0.000 HD 
ENDROOT
BRANCH   3   6
HETATM    6  C   UNL     1     -12.761  10.369  70.845  1.00  0.00    -0.385 C  
BRANCH   6   7
HETATM    7  C   UNL     1     -13.341  11.651  71.429  1.00  0.00    -0.030 C  
BRANCH   7   8
HETATM    8  C   UNL     1     -12.642  12.864  70.835  1.00  0.00    -0.270 C  
HETATM    9  S   UNL     1     -12.844  14.307  71.864  1.00  0.00    -0.353 S  
HETATM   10  O   UNL     1     -12.109  14.149  73.095  1.00  0.00     0.153 OA 
HETATM   11  O   UNL     1     -14.223  14.739  71.821  1.00  0.00    -0.441 OA 
HETATM   12  O   UNL     1     -12.039  15.345  70.926  1.00  0.00    -0.302 OA 
ENDBRANCH   7   8
ENDBRANCH   6   7
ENDBRANCH   3   6
TORSDOF 3
ENDMDL
MODEL      163
REMARK 921   NORMALIZED FREE ENERGY PREDICTED BY IDOCK:   -2.66 KCAL/MOL
REMARK 922        TOTAL FREE ENERGY PREDICTED BY IDOCK:   -3.24 KCAL/MOL
REMARK 923 INTER-LIGAND FREE ENERGY PREDICTED BY IDOCK:   -3.10 KCAL/MOL
REMARK 924 INTRA-LIGAND FREE ENERGY PREDICTED BY IDOCK:   -0.13 KCAL/MOL
REMARK 927      BINDING AFFINITY PREDICTED BY RF-SCORE:    0.00 PKD
ROOT
HETATM    1  C   UNL     1      -7.500  12.746  68.530  1.00  0.00    -0.120 C  
HETATM    2  C   UNL     1      -8.298  11.471  68.526  1.00  0.00    -0.146 C  
HETATM    3  N   UNL     1      -9.571  11.620  69.025  1.00  0.00    -0.413 N  
HETATM    4  O   UNL     1      -7.842  10.406  68.123  1.00  0.00    -0.104 OA 
HETATM    5  H   UNL     1      -9.875  12.538  69.346  1.00  0.00     0.000 HD 
ENDROOT
BRANCH   3   6
HETATM    6  C   UNL     1     -10.489  10.505  69.106  1.00  0.00    -0.228 C  
BRANCH   6   7
HETATM    7  C   UNL     1     -10.295   9.704  70.388  1.00  0.00    -0.350 C  
BRANCH   7   8
HETATM    8  C   UNL     1     -11.275   8.541  70.437  1.00  0.00    -0.211 C  
HETATM    9  S   UNL     1     -12.118   8.460  72.007  1.00  0.00    -0.382 S  
HETATM   10  O   UNL     1     -13.019   9.577  72.149  1.00  0.00    -0.396 OA 
HETATM   11  O   UNL     1     -11.180   8.070  73.036  1.00  0.00    -0.388 OA 
HETATM   12  O   UNL     1     -12.996   7.140  71.702  1.00  0.00    -0.365 OA 
ENDBRANCH   7   8
ENDBRANCH   6   7
ENDBRANCH   3   6
TORSDOF 3
ENDMDL
MODEL      164
REMARK 921   NORMALIZED FREE ENERGY PREDICTED BY IDOCK:   -2.65 KCAL/MOL
REMARK 922        TOTAL FREE ENERGY PREDICTED BY IDOCK:   -3.22 KCAL/MOL
REMARK 923 INTER-LIGAND FREE ENERGY PREDICTED BY IDOCK:   -3.48 KCAL/MOL
REMARK 924 INTRA-LIGAND FREE ENERGY PREDICTED BY IDOCK:    0.26 KCAL/MOL
REMARK 927      BINDING AFFINITY PREDICTED BY RF-SCORE:    0.00 PKD
ROOT
HETATM    1  C   UNL     1      -6.080  17.692  69.656  1.00  0.00    -0.245 C  
HETATM    2  C   UNL     1      -7.092  17.214  68.652  1.00  0.00    -0.217 C  
HETATM    3  N   UNL     1      -7.099  17.947  67.488  1.00  0.00    -0.192 N  
HETATM    4  O   UNL     1      -7.841  16.266  68.867  1.00  0.00    -0.200 OA 
HETATM    5  H   UNL     1      -6.448  18.725  67.387  1.00  0.00     0.000 HD 
ENDROOT
BRANCH   3   6
HETATM    6  C   UNL     1      -8.007  17.642  66.404  1.00  0.00    -0.274 C  
BRANCH   6   7
HETATM    7  C   UNL     1      -9.370  18.290  66.607  1.00  0.00    -0.304 C  
BRANCH   7   8
HETATM    8  C   UNL     1     -10.405  17.239  66.977  1.00  0.00    -0.318 C  
HETATM    9  S   UNL     1     -10.452  15.915  65.783  1.00  0.00    -0.380 S  
HETATM   10  O   UNL     1      -9.240  15.136  65.854  1.00  0.00    -0.296 OA 
HETATM   11  O   UNL     1     -10.998  16.409  64.539  1.00  0.00    -0.750 OA 
HETATM   12  O   UNL     1     -11.640  15.062  66.467  1.00  0.00    -0.302 OA 
ENDBRANCH   7   8
ENDBRANCH   6   7
ENDBRANCH   3   6
TORSDOF 3
ENDMDL
MODEL      165
REMARK 921   NORMALIZED FREE ENERGY PREDICTED BY IDOCK:   -2.64 KCAL/MOL
REMARK 922        TOTAL FREE ENERGY PREDICTED BY IDOCK:   -3.22 KCAL/MOL
REMARK 923 INTER-LIGAND FREE ENERGY PREDICTED BY IDOCK:   -2.82 KCAL/MOL
REMARK 924 INTRA-LIGAND FREE ENERGY PREDICTED BY IDOCK:   -0.40 KCAL/MOL
REMARK 927      BINDING AFFINITY PREDICTED BY RF-SCORE:    0.00 PKD
ROOT
HETATM    1  C   UNL     1     -10.608   7.449  67.092  1.00  0.00    -0.413 C  
HETATM    2  C   UNL     1     -10.866   6.551  68.270  1.00  0.00    -0.288 C  
HETATM    3  N   UNL     1     -11.518   7.180  69.306  1.00  0.00    -0.490 N  
HETATM    4  O   UNL     1     -10.517   5.375  68.297  1.00  0.00    -0.178 OA 
HETATM    5  H   UNL     1     -11.771   8.162  69.210  1.00  0.00     0.000 HD 
ENDROOT
BRANCH   3   6
HETATM    6  C   UNL     1     -11.852   6.481  70.528  1.00  0.00    -0.328 C  
BRANCH   6   7
HETATM    7  C   UNL     1     -11.228   7.147  71.748  1.00  0.00    -0.278 C  
BRANCH   7   8
HETATM    8  C   UNL     1      -9.917   6.464  72.110  1.00  0.00    -0.165 C  
HETATM    9  S   UNL     1      -8.510   7.431  71.596  1.00  0.00    -0.116 S  
HETATM   10  O   UNL     1      -8.414   8.633  72.387  1.00  0.00    -0.342 OA 
HETATM   11  O   UNL     1      -8.428   7.431  70.152  1.00  0.00    -0.134 OA 
HETATM   12  O   UNL     1      -7.363   6.407  72.092  1.00  0.00    -0.089 OA 
ENDBRANCH   7   8
ENDBRANCH   6   7
ENDBRANCH   3   6
TORSDOF 3
ENDMDL
MODEL      166
REMARK 921   NORMALIZED FREE ENERGY PREDICTED BY IDOCK:   -2.64 KCAL/MOL
REMARK 922        TOTAL FREE ENERGY PREDICTED BY IDOCK:   -3.21 KCAL/MOL
REMARK 923 INTER-LIGAND FREE ENERGY PREDICTED BY IDOCK:   -3.02 KCAL/MOL
REMARK 924 INTRA-LIGAND FREE ENERGY PREDICTED BY IDOCK:   -0.19 KCAL/MOL
REMARK 927      BINDING AFFINITY PREDICTED BY RF-SCORE:    0.00 PKD
ROOT
HETATM    1  C   UNL     1     -10.137   8.789  66.832  1.00  0.00    -0.348 C  
HETATM    2  C   UNL     1     -10.359  10.147  66.226  1.00  0.00    -0.175 C  
HETATM    3  N   UNL     1     -11.116  10.982  67.016  1.00  0.00    -0.279 N  
HETATM    4  O   UNL     1      -9.912  10.464  65.129  1.00  0.00    -0.285 OA 
HETATM    5  H   UNL     1     -11.456  10.642  67.915  1.00  0.00     0.000 HD 
ENDROOT
BRANCH   3   6
HETATM    6  C   UNL     1     -11.440  12.330  66.602  1.00  0.00    -0.373 C  
BRANCH   6   7
HETATM    7  C   UNL     1     -10.725  13.371  67.453  1.00  0.00    -0.269 C  
BRANCH   7   8
HETATM    8  C   UNL     1      -9.713  14.135  66.613  1.00  0.00    -0.288 C  
HETATM    9  S   UNL     1      -9.333  15.724  67.328  1.00  0.00    -0.214 S  
HETATM   10  O   UNL     1      -8.592  15.555  68.554  1.00  0.00    -0.162 OA 
HETATM   11  O   UNL     1     -10.486  16.589  67.218  1.00  0.00    -0.304 OA 
HETATM   12  O   UNL     1      -8.308  16.225  66.185  1.00  0.00    -0.320 OA 
ENDBRANCH   7   8
ENDBRANCH   6   7
ENDBRANCH   3   6
TORSDOF 3
ENDMDL
MODEL      167
REMARK 921   NORMALIZED FREE ENERGY PREDICTED BY IDOCK:   -2.62 KCAL/MOL
REMARK 922        TOTAL FREE ENERGY PREDICTED BY IDOCK:   -3.19 KCAL/MOL
REMARK 923 INTER-LIGAND FREE ENERGY PREDICTED BY IDOCK:   -3.01 KCAL/MOL
REMARK 924 INTRA-LIGAND FREE ENERGY PREDICTED BY IDOCK:   -0.18 KCAL/MOL
REMARK 927      BINDING AFFINITY PREDICTED BY RF-SCORE:    0.00 PKD
ROOT
HETATM    1  C   UNL     1      -9.385  15.137  67.801  1.00  0.00    -0.189 C  
HETATM    2  C   UNL     1     -10.706  14.471  68.071  1.00  0.00    -0.242 C  
HETATM    3  N   UNL     1     -10.699  13.677  69.195  1.00  0.00    -0.416 N  
HETATM    4  O   UNL     1     -11.684  14.621  67.347  1.00  0.00    -0.379 OA 
HETATM    5  H   UNL     1      -9.844  13.599  69.743  1.00  0.00     0.000 HD 
ENDROOT
BRANCH   3   6
HETATM    6  C   UNL     1     -11.877  12.949  69.617  1.00  0.00    -0.320 C  
BRANCH   6   7
HETATM    7  C   UNL     1     -11.848  11.502  69.142  1.00  0.00    -0.406 C  
BRANCH   7   8
HETATM    8  C   UNL     1     -10.421  10.975  69.142  1.00  0.00    -0.210 C  
HETATM    9  S   UNL     1     -10.371   9.219  68.832  1.00  0.00    -0.216 S  
HETATM   10  O   UNL     1     -10.760   8.941  67.471  1.00  0.00    -0.258 OA 
HETATM   11  O   UNL     1     -10.921   8.514  69.967  1.00  0.00    -0.243 OA 
HETATM   12  O   UNL     1      -8.770   9.035  68.945  1.00  0.00    -0.133 OA 
ENDBRANCH   7   8
ENDBRANCH   6   7
ENDBRANCH   3   6
TORSDOF 3
ENDMDL
MODEL      168
REMARK 921   NORMALIZED FREE ENERGY PREDICTED BY IDOCK:   -2.62 KCAL/MOL
REMARK 922        TOTAL FREE ENERGY PREDICTED BY IDOCK:   -3.18 KCAL/MOL
REMARK 923 INTER-LIGAND FREE ENERGY PREDICTED BY IDOCK:   -3.06 KCAL/MOL
REMARK 924 INTRA-LIGAND FREE ENERGY PREDICTED BY IDOCK:   -0.12 KCAL/MOL
REMARK 927      BINDING AFFINITY PREDICTED BY RF-SCORE:    0.00 PKD
ROOT
HETATM    1  C   UNL     1     -14.410   7.408  71.620  1.00  0.00    -0.614 C  
HETATM    2  C   UNL     1     -12.916   7.348  71.460  1.00  0.00    -0.375 C  
HETATM    3  N   UNL     1     -12.350   8.561  71.144  1.00  0.00    -0.430 N  
HETATM    4  O   UNL     1     -12.277   6.309  71.591  1.00  0.00    -0.279 OA 
HETATM    5  H   UNL     1     -12.949   9.379  71.048  1.00  0.00     0.000 HD 
ENDROOT
BRANCH   3   6
HETATM    6  C   UNL     1     -10.923   8.704  70.946  1.00  0.00    -0.253 C  
BRANCH   6   7
HETATM    7  C   UNL     1     -10.581   9.988  70.202  1.00  0.00    -0.350 C  
BRANCH   7   8
HETATM    8  C   UNL     1      -9.832   9.670  68.917  1.00  0.00    -0.174 C  
HETATM    9  S   UNL     1      -8.441  10.761  68.681  1.00  0.00    -0.148 S  
HETATM   10  O   UNL     1      -7.420  10.487  69.663  1.00  0.00    -0.143 OA 
HETATM   11  O   UNL     1      -8.919  12.095  68.395  1.00  0.00    -0.186 OA 
HETATM   12  O   UNL     1      -7.949  10.166  67.263  1.00  0.00    -0.109 OA 
ENDBRANCH   7   8
ENDBRANCH   6   7
ENDBRANCH   3   6
TORSDOF 3
ENDMDL
MODEL      169
REMARK 921   NORMALIZED FREE ENERGY PREDICTED BY IDOCK:   -2.61 KCAL/MOL
REMARK 922        TOTAL FREE ENERGY PREDICTED BY IDOCK:   -3.17 KCAL/MOL
REMARK 923 INTER-LIGAND FREE ENERGY PREDICTED BY IDOCK:   -2.93 KCAL/MOL
REMARK 924 INTRA-LIGAND FREE ENERGY PREDICTED BY IDOCK:   -0.25 KCAL/MOL
REMARK 927      BINDING AFFINITY PREDICTED BY RF-SCORE:    0.00 PKD
ROOT
HETATM    1  C   UNL     1     -13.092  14.138  70.817  1.00  0.00    -0.289 C  
HETATM    2  C   UNL     1     -12.255  12.981  70.344  1.00  0.00    -0.310 C  
HETATM    3  N   UNL     1     -11.223  13.355  69.514  1.00  0.00    -0.449 N  
HETATM    4  O   UNL     1     -12.486  11.821  70.666  1.00  0.00    -0.324 OA 
HETATM    5  H   UNL     1     -11.099  14.341  69.288  1.00  0.00     0.000 HD 
ENDROOT
BRANCH   3   6
HETATM    6  C   UNL     1     -10.310  12.383  68.953  1.00  0.00    -0.049 C  
BRANCH   6   7
HETATM    7  C   UNL     1     -10.730  11.953  67.554  1.00  0.00    -0.263 C  
BRANCH   7   8
HETATM    8  C   UNL     1     -11.162  10.494  67.556  1.00  0.00    -0.224 C  
HETATM    9  S   UNL     1      -9.972   9.457  66.726  1.00  0.00    -0.257 S  
HETATM   10  O   UNL     1      -8.755   9.378  67.496  1.00  0.00    -0.122 OA 
HETATM   11  O   UNL     1      -9.990   9.744  65.309  1.00  0.00    -0.318 OA 
HETATM   12  O   UNL     1     -10.765   8.060  66.892  1.00  0.00    -0.322 OA 
ENDBRANCH   7   8
ENDBRANCH   6   7
ENDBRANCH   3   6
TORSDOF 3
ENDMDL
MODEL      170
REMARK 921   NORMALIZED FREE ENERGY PREDICTED BY IDOCK:   -2.60 KCAL/MOL
REMARK 922        TOTAL FREE ENERGY PREDICTED BY IDOCK:   -3.17 KCAL/MOL
REMARK 923 INTER-LIGAND FREE ENERGY PREDICTED BY IDOCK:   -3.00 KCAL/MOL
REMARK 924 INTRA-LIGAND FREE ENERGY PREDICTED BY IDOCK:   -0.17 KCAL/MOL
REMARK 927      BINDING AFFINITY PREDICTED BY RF-SCORE:    0.00 PKD
ROOT
HETATM    1  C   UNL     1     -13.080  11.268  71.839  1.00  0.00    -0.510 C  
HETATM    2  C   UNL     1     -12.369  10.155  71.120  1.00  0.00    -0.385 C  
HETATM    3  N   UNL     1     -12.600   8.914  71.668  1.00  0.00    -0.329 N  
HETATM    4  O   UNL     1     -11.648  10.349  70.148  1.00  0.00    -0.267 OA 
HETATM    5  H   UNL     1     -13.209   8.835  72.482  1.00  0.00     0.000 HD 
ENDROOT
BRANCH   3   6
HETATM    6  C   UNL     1     -12.000   7.718  71.118  1.00  0.00    -0.291 C  
BRANCH   6   7
HETATM    7  C   UNL     1     -11.801   6.644  72.180  1.00  0.00    -0.337 C  
BRANCH   7   8
HETATM    8  C   UNL     1     -10.820   7.124  73.239  1.00  0.00    -0.338 C  
HETATM    9  S   UNL     1      -9.271   6.244  73.145  1.00  0.00    -0.127 S  
HETATM   10  O   UNL     1      -8.564   6.605  71.940  1.00  0.00    -0.124 OA 
HETATM   11  O   UNL     1      -9.471   4.874  73.559  1.00  0.00    -0.131 OA 
HETATM   12  O   UNL     1      -8.545   6.970  74.391  1.00  0.00    -0.158 OA 
ENDBRANCH   7   8
ENDBRANCH   6   7
ENDBRANCH   3   6
TORSDOF 3
ENDMDL
MODEL      171
REMARK 921   NORMALIZED FREE ENERGY PREDICTED BY IDOCK:   -2.60 KCAL/MOL
REMARK 922        TOTAL FREE ENERGY PREDICTED BY IDOCK:   -3.17 KCAL/MOL
REMARK 923 INTER-LIGAND FREE ENERGY PREDICTED BY IDOCK:   -2.85 KCAL/MOL
REMARK 924 INTRA-LIGAND FREE ENERGY PREDICTED BY IDOCK:   -0.32 KCAL/MOL
REMARK 927      BINDING AFFINITY PREDICTED BY RF-SCORE:    0.00 PKD
ROOT
HETATM    1  C   UNL     1     -11.034  14.298  65.126  1.00  0.00    -0.369 C  
HETATM    2  C   UNL     1     -11.675  13.063  65.697  1.00  0.00    -0.375 C  
HETATM    3  N   UNL     1     -10.991  12.536  66.768  1.00  0.00    -0.256 N  
HETATM    4  O   UNL     1     -12.703  12.577  65.236  1.00  0.00    -0.654 OA 
HETATM    5  H   UNL     1     -10.140  12.995  67.090  1.00  0.00     0.000 HD 
ENDROOT
BRANCH   3   6
HETATM    6  C   UNL     1     -11.451  11.345  67.450  1.00  0.00    -0.251 C  
BRANCH   6   7
HETATM    7  C   UNL     1     -10.292  10.531  68.010  1.00  0.00    -0.212 C  
BRANCH   7   8
HETATM    8  C   UNL     1      -9.014  10.833  67.241  1.00  0.00    -0.140 C  
HETATM    9  S   UNL     1      -7.920  11.887  68.174  1.00  0.00    -0.159 S  
HETATM   10  O   UNL     1      -7.388  11.173  69.309  1.00  0.00    -0.121 OA 
HETATM   11  O   UNL     1      -8.496  13.209  68.276  1.00  0.00    -0.164 OA 
HETATM   12  O   UNL     1      -6.754  12.009  67.064  1.00  0.00    -0.143 OA 
ENDBRANCH   7   8
ENDBRANCH   6   7
ENDBRANCH   3   6
TORSDOF 3
ENDMDL
MODEL      172
REMARK 921   NORMALIZED FREE ENERGY PREDICTED BY IDOCK:   -2.60 KCAL/MOL
REMARK 922        TOTAL FREE ENERGY PREDICTED BY IDOCK:   -3.17 KCAL/MOL
REMARK 923 INTER-LIGAND FREE ENERGY PREDICTED BY IDOCK:   -2.68 KCAL/MOL
REMARK 924 INTRA-LIGAND FREE ENERGY PREDICTED BY IDOCK:   -0.48 KCAL/MOL
REMARK 927      BINDING AFFINITY PREDICTED BY RF-SCORE:    0.00 PKD
ROOT
HETATM    1  C   UNL     1      -7.093   7.116  69.352  1.00  0.00    -0.075 C  
HETATM    2  C   UNL     1      -8.184   6.094  69.510  1.00  0.00    -0.116 C  
HETATM    3  N   UNL     1      -9.440   6.586  69.236  1.00  0.00    -0.140 N  
HETATM    4  O   UNL     1      -7.965   4.939  69.861  1.00  0.00    -0.068 OA 
HETATM    5  H   UNL     1      -9.541   7.560  68.955  1.00  0.00     0.000 HD 
ENDROOT
BRANCH   3   6
HETATM    6  C   UNL     1     -10.619   5.754  69.336  1.00  0.00    -0.313 C  
BRANCH   6   7
HETATM    7  C   UNL     1     -11.686   6.389  70.219  1.00  0.00    -0.389 C  
BRANCH   7   8
HETATM    8  C   UNL     1     -11.306   6.256  71.686  1.00  0.00    -0.294 C  
HETATM    9  S   UNL     1     -10.976   7.844  72.426  1.00  0.00    -0.354 S  
HETATM   10  O   UNL     1     -12.195   8.608  72.533  1.00  0.00    -0.381 OA 
HETATM   11  O   UNL     1      -9.753   8.387  71.876  1.00  0.00    -0.208 OA 
HETATM   12  O   UNL     1     -10.585   7.310  73.899  1.00  0.00    -0.344 OA 
ENDBRANCH   7   8
ENDBRANCH   6   7
ENDBRANCH   3   6
TORSDOF 3
ENDMDL
MODEL      173
REMARK 921   NORMALIZED FREE ENERGY PREDICTED BY IDOCK:   -2.59 KCAL/MOL
REMARK 922        TOTAL FREE ENERGY PREDICTED BY IDOCK:   -3.16 KCAL/MOL
REMARK 923 INTER-LIGAND FREE ENERGY PREDICTED BY IDOCK:   -2.91 KCAL/MOL
REMARK 924 INTRA-LIGAND FREE ENERGY PREDICTED BY IDOCK:   -0.24 KCAL/MOL
REMARK 927      BINDING AFFINITY PREDICTED BY RF-SCORE:    0.00 PKD
ROOT
HETATM    1  C   UNL     1     -11.730  15.842  68.950  1.00  0.00    -0.404 C  
HETATM    2  C   UNL     1     -11.990  14.414  68.558  1.00  0.00    -0.298 C  
HETATM    3  N   UNL     1     -11.823  14.176  67.213  1.00  0.00    -0.401 N  
HETATM    4  O   UNL     1     -12.328  13.556  69.366  1.00  0.00    -0.262 OA 
HETATM    5  H   UNL     1     -11.545  14.943  66.603  1.00  0.00     0.000 HD 
ENDROOT
BRANCH   3   6
HETATM    6  C   UNL     1     -12.032  12.862  66.643  1.00  0.00    -0.366 C  
BRANCH   6   7
HETATM    7  C   UNL     1     -10.944  12.502  65.639  1.00  0.00    -0.323 C  
BRANCH   7   8
HETATM    8  C   UNL     1      -9.605  13.069  66.085  1.00  0.00    -0.202 C  
HETATM    9  S   UNL     1      -8.653  11.866  66.994  1.00  0.00    -0.179 S  
HETATM   10  O   UNL     1      -8.217  10.808  66.116  1.00  0.00    -0.154 OA 
HETATM   11  O   UNL     1      -9.283  11.620  68.272  1.00  0.00    -0.177 OA 
HETATM   12  O   UNL     1      -7.382  12.809  67.315  1.00  0.00    -0.147 OA 
ENDBRANCH   7   8
ENDBRANCH   6   7
ENDBRANCH   3   6
TORSDOF 3
ENDMDL
MODEL      174
REMARK 921   NORMALIZED FREE ENERGY PREDICTED BY IDOCK:   -2.58 KCAL/MOL
REMARK 922        TOTAL FREE ENERGY PREDICTED BY IDOCK:   -3.14 KCAL/MOL
REMARK 923 INTER-LIGAND FREE ENERGY PREDICTED BY IDOCK:   -3.03 KCAL/MOL
REMARK 924 INTRA-LIGAND FREE ENERGY PREDICTED BY IDOCK:   -0.11 KCAL/MOL
REMARK 927      BINDING AFFINITY PREDICTED BY RF-SCORE:    0.00 PKD
ROOT
HETATM    1  C   UNL     1      -5.152  15.020  71.505  1.00  0.00    -0.147 C  
HETATM    2  C   UNL     1      -5.958  15.156  70.243  1.00  0.00    -0.139 C  
HETATM    3  N   UNL     1      -6.306  16.456  69.953  1.00  0.00    -0.179 N  
HETATM    4  O   UNL     1      -6.279  14.194  69.554  1.00  0.00    -0.105 OA 
HETATM    5  H   UNL     1      -6.006  17.202  70.579  1.00  0.00     0.000 HD 
ENDROOT
BRANCH   3   6
HETATM    6  C   UNL     1      -7.086  16.789  68.781  1.00  0.00    -0.202 C  
BRANCH   6   7
HETATM    7  C   UNL     1      -6.849  18.226  68.334  1.00  0.00    -0.239 C  
BRANCH   7   8
HETATM    8  C   UNL     1      -8.156  19.005  68.346  1.00  0.00    -0.346 C  
HETATM    9  S   UNL     1      -8.244  20.160  66.990  1.00  0.00    -0.322 S  
HETATM   10  O   UNL     1      -8.364  19.453  65.739  1.00  0.00    -0.430 OA 
HETATM   11  O   UNL     1      -7.290  21.225  67.203  1.00  0.00    -0.454 OA 
HETATM   12  O   UNL     1      -9.685  20.794  67.351  1.00  0.00    -0.465 OA 
ENDBRANCH   7   8
ENDBRANCH   6   7
ENDBRANCH   3   6
TORSDOF 3
ENDMDL
MODEL      175
REMARK 921   NORMALIZED FREE ENERGY PREDICTED BY IDOCK:   -2.57 KCAL/MOL
REMARK 922        TOTAL FREE ENERGY PREDICTED BY IDOCK:   -3.12 KCAL/MOL
REMARK 923 INTER-LIGAND FREE ENERGY PREDICTED BY IDOCK:   -3.49 KCAL/MOL
REMARK 924 INTRA-LIGAND FREE ENERGY PREDICTED BY IDOCK:    0.37 KCAL/MOL
REMARK 927      BINDING AFFINITY PREDICTED BY RF-SCORE:    0.00 PKD
ROOT
HETATM    1  C   UNL     1      -6.601  14.471  69.650  1.00  0.00    -0.153 C  
HETATM    2  C   UNL     1      -7.871  15.179  69.268  1.00  0.00    -0.206 C  
HETATM    3  N   UNL     1      -8.950  14.336  69.137  1.00  0.00    -0.384 N  
HETATM    4  O   UNL     1      -7.924  16.391  69.083  1.00  0.00    -0.239 OA 
HETATM    5  H   UNL     1      -8.825  13.339  69.303  1.00  0.00     0.000 HD 
ENDROOT
BRANCH   3   6
HETATM    6  C   UNL     1     -10.260  14.831  68.770  1.00  0.00    -0.239 C  
BRANCH   6   7
HETATM    7  C   UNL     1     -11.374  14.004  69.400  1.00  0.00    -0.317 C  
BRANCH   7   8
HETATM    8  C   UNL     1     -11.757  12.851  68.484  1.00  0.00    -0.339 C  
HETATM    9  S   UNL     1     -11.466  13.249  66.770  1.00  0.00    -0.368 S  
HETATM   10  O   UNL     1     -10.049  13.338  66.512  1.00  0.00    -0.262 OA 
HETATM   11  O   UNL     1     -12.408  14.260  66.345  1.00  0.00    -0.448 OA 
HETATM   12  O   UNL     1     -12.007  11.864  66.142  1.00  0.00    -0.537 OA 
ENDBRANCH   7   8
ENDBRANCH   6   7
ENDBRANCH   3   6
TORSDOF 3
ENDMDL
MODEL      176
REMARK 921   NORMALIZED FREE ENERGY PREDICTED BY IDOCK:   -2.56 KCAL/MOL
REMARK 922        TOTAL FREE ENERGY PREDICTED BY IDOCK:   -3.12 KCAL/MOL
REMARK 923 INTER-LIGAND FREE ENERGY PREDICTED BY IDOCK:   -2.96 KCAL/MOL
REMARK 924 INTRA-LIGAND FREE ENERGY PREDICTED BY IDOCK:   -0.16 KCAL/MOL
REMARK 927      BINDING AFFINITY PREDICTED BY RF-SCORE:    0.00 PKD
ROOT
HETATM    1  C   UNL     1      -7.403  17.178  68.582  1.00  0.00    -0.238 C  
HETATM    2  C   UNL     1      -7.661  16.626  67.207  1.00  0.00    -0.169 C  
HETATM    3  N   UNL     1      -8.972  16.266  66.998  1.00  0.00    -0.197 N  
HETATM    4  O   UNL     1      -6.777  16.503  66.366  1.00  0.00    -0.202 OA 
HETATM    5  H   UNL     1      -9.649  16.394  67.750  1.00  0.00     0.000 HD 
ENDROOT
BRANCH   3   6
HETATM    6  C   UNL     1      -9.415  15.710  65.738  1.00  0.00    -0.303 C  
BRANCH   6   7
HETATM    7  C   UNL     1     -10.564  14.727  65.925  1.00  0.00    -0.322 C  
BRANCH   7   8
HETATM    8  C   UNL     1     -10.298  13.827  67.123  1.00  0.00    -0.261 C  
HETATM    9  S   UNL     1     -10.688  12.125  66.763  1.00  0.00    -0.244 S  
HETATM   10  O   UNL     1      -9.747  11.588  65.810  1.00  0.00    -0.221 OA 
HETATM   11  O   UNL     1     -12.119  11.978  66.624  1.00  0.00    -0.615 OA 
HETATM   12  O   UNL     1     -10.332  11.519  68.217  1.00  0.00    -0.183 OA 
ENDBRANCH   7   8
ENDBRANCH   6   7
ENDBRANCH   3   6
TORSDOF 3
ENDMDL
MODEL      177
REMARK 921   NORMALIZED FREE ENERGY PREDICTED BY IDOCK:   -2.56 KCAL/MOL
REMARK 922        TOTAL FREE ENERGY PREDICTED BY IDOCK:   -3.12 KCAL/MOL
REMARK 923 INTER-LIGAND FREE ENERGY PREDICTED BY IDOCK:   -3.00 KCAL/MOL
REMARK 924 INTRA-LIGAND FREE ENERGY PREDICTED BY IDOCK:   -0.11 KCAL/MOL
REMARK 927      BINDING AFFINITY PREDICTED BY RF-SCORE:    0.00 PKD
ROOT
HETATM    1  C   UNL     1     -10.042   6.979  73.949  1.00  0.00    -0.386 C  
HETATM    2  C   UNL     1     -10.961   7.362  72.823  1.00  0.00    -0.339 C  
HETATM    3  N   UNL     1     -10.820   6.568  71.707  1.00  0.00    -0.232 N  
HETATM    4  O   UNL     1     -11.748   8.299  72.899  1.00  0.00    -0.348 OA 
HETATM    5  H   UNL     1     -10.139   5.810  71.719  1.00  0.00     0.000 HD 
ENDROOT
BRANCH   3   6
HETATM    6  C   UNL     1     -11.615   6.783  70.518  1.00  0.00    -0.372 C  
BRANCH   6   7
HETATM    7  C   UNL     1     -11.097   5.973  69.337  1.00  0.00    -0.445 C  
BRANCH   7   8
HETATM    8  C   UNL     1     -10.518   6.898  68.276  1.00  0.00    -0.206 C  
HETATM    9  S   UNL     1      -9.561   5.996  67.071  1.00  0.00    -0.140 S  
HETATM   10  O   UNL     1     -10.426   5.170  66.264  1.00  0.00    -0.269 OA 
HETATM   11  O   UNL     1      -8.352   5.501  67.690  1.00  0.00    -0.101 OA 
HETATM   12  O   UNL     1      -9.102   7.263  66.182  1.00  0.00    -0.166 OA 
ENDBRANCH   7   8
ENDBRANCH   6   7
ENDBRANCH   3   6
TORSDOF 3
ENDMDL
MODEL      178
REMARK 921   NORMALIZED FREE ENERGY PREDICTED BY IDOCK:   -2.55 KCAL/MOL
REMARK 922        TOTAL FREE ENERGY PREDICTED BY IDOCK:   -3.11 KCAL/MOL
REMARK 923 INTER-LIGAND FREE ENERGY PREDICTED BY IDOCK:   -2.95 KCAL/MOL
REMARK 924 INTRA-LIGAND FREE ENERGY PREDICTED BY IDOCK:   -0.16 KCAL/MOL
REMARK 927      BINDING AFFINITY PREDICTED BY RF-SCORE:    0.00 PKD
ROOT
HETATM    1  C   UNL     1      -8.584   4.735  70.728  1.00  0.00    -0.122 C  
HETATM    2  C   UNL     1      -9.974   5.309  70.718  1.00  0.00    -0.211 C  
HETATM    3  N   UNL     1     -10.330   5.903  71.906  1.00  0.00    -0.204 N  
HETATM    4  O   UNL     1     -10.713   5.238  69.741  1.00  0.00    -0.286 OA 
HETATM    5  H   UNL     1      -9.661   5.918  72.675  1.00  0.00     0.000 HD 
ENDROOT
BRANCH   3   6
HETATM    6  C   UNL     1     -11.631   6.509  72.092  1.00  0.00    -0.308 C  
BRANCH   6   7
HETATM    7  C   UNL     1     -11.522   7.926  72.641  1.00  0.00    -0.454 C  
BRANCH   7   8
HETATM    8  C   UNL     1     -10.275   8.608  72.098  1.00  0.00    -0.323 C  
HETATM    9  S   UNL     1     -10.593   9.410  70.537  1.00  0.00    -0.296 S  
HETATM   10  O   UNL     1     -11.461  10.547  70.727  1.00  0.00    -0.331 OA 
HETATM   11  O   UNL     1     -10.821   8.408  69.520  1.00  0.00    -0.210 OA 
HETATM   12  O   UNL     1      -9.096   9.956  70.277  1.00  0.00    -0.208 OA 
ENDBRANCH   7   8
ENDBRANCH   6   7
ENDBRANCH   3   6
TORSDOF 3
ENDMDL
MODEL      179
REMARK 921   NORMALIZED FREE ENERGY PREDICTED BY IDOCK:   -2.55 KCAL/MOL
REMARK 922        TOTAL FREE ENERGY PREDICTED BY IDOCK:   -3.10 KCAL/MOL
REMARK 923 INTER-LIGAND FREE ENERGY PREDICTED BY IDOCK:   -2.79 KCAL/MOL
REMARK 924 INTRA-LIGAND FREE ENERGY PREDICTED BY IDOCK:   -0.32 KCAL/MOL
REMARK 927      BINDING AFFINITY PREDICTED BY RF-SCORE:    0.00 PKD
ROOT
HETATM    1  C   UNL     1      -8.451  10.008  68.415  1.00  0.00    -0.112 C  
HETATM    2  C   UNL     1      -9.917  10.303  68.259  1.00  0.00    -0.147 C  
HETATM    3  N   UNL     1     -10.389  11.228  69.161  1.00  0.00    -0.368 N  
HETATM    4  O   UNL     1     -10.617   9.758  67.411  1.00  0.00    -0.251 OA 
HETATM    5  H   UNL     1      -9.746  11.633  69.840  1.00  0.00     0.000 HD 
ENDROOT
BRANCH   3   6
HETATM    6  C   UNL     1     -11.777  11.639  69.171  1.00  0.00    -0.326 C  
BRANCH   6   7
HETATM    7  C   UNL     1     -12.014  12.850  68.278  1.00  0.00    -0.297 C  
BRANCH   7   8
HETATM    8  C   UNL     1     -10.867  13.840  68.416  1.00  0.00    -0.252 C  
HETATM    9  S   UNL     1     -10.167  14.257  66.829  1.00  0.00    -0.277 S  
HETATM   10  O   UNL     1     -11.105  15.038  66.059  1.00  0.00    -0.334 OA 
HETATM   11  O   UNL     1      -9.472  13.109  66.293  1.00  0.00    -0.252 OA 
HETATM   12  O   UNL     1      -9.010  15.247  67.368  1.00  0.00    -0.173 OA 
ENDBRANCH   7   8
ENDBRANCH   6   7
ENDBRANCH   3   6
TORSDOF 3
ENDMDL
MODEL      180
REMARK 921   NORMALIZED FREE ENERGY PREDICTED BY IDOCK:   -2.53 KCAL/MOL
REMARK 922        TOTAL FREE ENERGY PREDICTED BY IDOCK:   -3.08 KCAL/MOL
REMARK 923 INTER-LIGAND FREE ENERGY PREDICTED BY IDOCK:   -3.15 KCAL/MOL
REMARK 924 INTRA-LIGAND FREE ENERGY PREDICTED BY IDOCK:    0.07 KCAL/MOL
REMARK 927      BINDING AFFINITY PREDICTED BY RF-SCORE:    0.00 PKD
ROOT
HETATM    1  C   UNL     1     -14.345   8.886  72.324  1.00  0.00    -0.418 C  
HETATM    2  C   UNL     1     -12.944   8.465  71.978  1.00  0.00    -0.358 C  
HETATM    3  N   UNL     1     -12.801   7.104  71.834  1.00  0.00    -0.490 N  
HETATM    4  O   UNL     1     -12.024   9.265  71.850  1.00  0.00    -0.362 OA 
HETATM    5  H   UNL     1     -13.614   6.502  71.962  1.00  0.00     0.000 HD 
ENDROOT
BRANCH   3   6
HETATM    6  C   UNL     1     -11.525   6.505  71.505  1.00  0.00    -0.302 C  
BRANCH   6   7
HETATM    7  C   UNL     1     -11.375   6.280  70.006  1.00  0.00    -0.486 C  
BRANCH   7   8
HETATM    8  C   UNL     1     -10.320   5.218  69.735  1.00  0.00    -0.299 C  
HETATM    9  S   UNL     1      -8.676   5.828  70.061  1.00  0.00    -0.133 S  
HETATM   10  O   UNL     1      -8.492   6.034  71.477  1.00  0.00    -0.126 OA 
HETATM   11  O   UNL     1      -8.326   6.820  69.070  1.00  0.00    -0.122 OA 
HETATM   12  O   UNL     1      -7.873   4.493  69.638  1.00  0.00    -0.057 OA 
ENDBRANCH   7   8
ENDBRANCH   6   7
ENDBRANCH   3   6
TORSDOF 3
ENDMDL
MODEL      181
REMARK 921   NORMALIZED FREE ENERGY PREDICTED BY IDOCK:   -2.53 KCAL/MOL
REMARK 922        TOTAL FREE ENERGY PREDICTED BY IDOCK:   -3.08 KCAL/MOL
REMARK 923 INTER-LIGAND FREE ENERGY PREDICTED BY IDOCK:   -2.91 KCAL/MOL
REMARK 924 INTRA-LIGAND FREE ENERGY PREDICTED BY IDOCK:   -0.17 KCAL/MOL
REMARK 927      BINDING AFFINITY PREDICTED BY RF-SCORE:    0.00 PKD
ROOT
HETATM    1  C   UNL     1      -5.819  18.348  67.891  1.00  0.00    -0.168 C  
HETATM    2  C   UNL     1      -7.165  18.707  68.456  1.00  0.00    -0.292 C  
HETATM    3  N   UNL     1      -8.199  17.979  67.914  1.00  0.00    -0.242 N  
HETATM    4  O   UNL     1      -7.315  19.574  69.311  1.00  0.00    -0.355 OA 
HETATM    5  H   UNL     1      -7.994  17.278  67.203  1.00  0.00     0.000 HD 
ENDROOT
BRANCH   3   6
HETATM    6  C   UNL     1      -9.570  18.183  68.328  1.00  0.00    -0.317 C  
BRANCH   6   7
HETATM    7  C   UNL     1     -10.528  17.256  67.591  1.00  0.00    -0.363 C  
BRANCH   7   8
HETATM    8  C   UNL     1     -11.397  16.498  68.583  1.00  0.00    -0.237 C  
HETATM    9  S   UNL     1     -10.887  14.796  68.735  1.00  0.00    -0.265 S  
HETATM   10  O   UNL     1      -9.603  14.716  69.387  1.00  0.00    -0.082 OA 
HETATM   11  O   UNL     1     -11.193  14.091  67.511  1.00  0.00    -0.289 OA 
HETATM   12  O   UNL     1     -12.018  14.335  69.792  1.00  0.00    -0.298 OA 
ENDBRANCH   7   8
ENDBRANCH   6   7
ENDBRANCH   3   6
TORSDOF 3
ENDMDL
MODEL      182
REMARK 921   NORMALIZED FREE ENERGY PREDICTED BY IDOCK:   -2.53 KCAL/MOL
REMARK 922        TOTAL FREE ENERGY PREDICTED BY IDOCK:   -3.08 KCAL/MOL
REMARK 923 INTER-LIGAND FREE ENERGY PREDICTED BY IDOCK:   -2.92 KCAL/MOL
REMARK 924 INTRA-LIGAND FREE ENERGY PREDICTED BY IDOCK:   -0.16 KCAL/MOL
REMARK 927      BINDING AFFINITY PREDICTED BY RF-SCORE:    0.00 PKD
ROOT
HETATM    1  C   UNL     1     -10.193   8.542  66.882  1.00  0.00    -0.375 C  
HETATM    2  C   UNL     1     -10.826   7.347  67.539  1.00  0.00    -0.187 C  
HETATM    3  N   UNL     1     -10.800   7.399  68.914  1.00  0.00    -0.396 N  
HETATM    4  O   UNL     1     -11.307   6.416  66.900  1.00  0.00    -0.304 OA 
HETATM    5  H   UNL     1     -10.377   8.204  69.373  1.00  0.00     0.000 HD 
ENDROOT
BRANCH   3   6
HETATM    6  C   UNL     1     -11.358   6.338  69.724  1.00  0.00    -0.436 C  
BRANCH   6   7
HETATM    7  C   UNL     1     -11.581   6.784  71.164  1.00  0.00    -0.377 C  
BRANCH   7   8
HETATM    8  C   UNL     1     -10.267   7.222  71.791  1.00  0.00    -0.194 C  
HETATM    9  S   UNL     1      -9.753   6.107  73.085  1.00  0.00    -0.162 S  
HETATM   10  O   UNL     1      -9.372   4.834  72.524  1.00  0.00    -0.130 OA 
HETATM   11  O   UNL     1     -10.649   6.234  74.213  1.00  0.00    -0.250 OA 
HETATM   12  O   UNL     1      -8.408   6.892  73.512  1.00  0.00    -0.113 OA 
ENDBRANCH   7   8
ENDBRANCH   6   7
ENDBRANCH   3   6
TORSDOF 3
ENDMDL
MODEL      183
REMARK 921   NORMALIZED FREE ENERGY PREDICTED BY IDOCK:   -2.53 KCAL/MOL
REMARK 922        TOTAL FREE ENERGY PREDICTED BY IDOCK:   -3.08 KCAL/MOL
REMARK 923 INTER-LIGAND FREE ENERGY PREDICTED BY IDOCK:   -2.96 KCAL/MOL
REMARK 924 INTRA-LIGAND FREE ENERGY PREDICTED BY IDOCK:   -0.12 KCAL/MOL
REMARK 927      BINDING AFFINITY PREDICTED BY RF-SCORE:    0.00 PKD
ROOT
HETATM    1  C   UNL     1     -11.101   5.905  69.585  1.00  0.00    -0.414 C  
HETATM    2  C   UNL     1     -10.881   6.644  68.294  1.00  0.00    -0.254 C  
HETATM    3  N   UNL     1     -10.821   8.010  68.449  1.00  0.00    -0.432 N  
HETATM    4  O   UNL     1     -10.778   6.074  67.213  1.00  0.00    -0.254 OA 
HETATM    5  H   UNL     1     -10.921   8.410  69.381  1.00  0.00     0.000 HD 
ENDROOT
BRANCH   3   6
HETATM    6  C   UNL     1     -10.619   8.893  67.320  1.00  0.00    -0.234 C  
BRANCH   6   7
HETATM    7  C   UNL     1     -10.903  10.346  67.681  1.00  0.00    -0.361 C  
BRANCH   7   8
HETATM    8  C   UNL     1     -10.634  11.248  66.486  1.00  0.00    -0.266 C  
HETATM    9  S   UNL     1      -9.579  12.618  66.924  1.00  0.00    -0.237 S  
HETATM   10  O   UNL     1      -8.245  12.149  67.212  1.00  0.00    -0.164 OA 
HETATM   11  O   UNL     1     -10.299  13.522  67.792  1.00  0.00    -0.234 OA 
HETATM   12  O   UNL     1      -9.559  13.334  65.477  1.00  0.00    -0.105 OA 
ENDBRANCH   7   8
ENDBRANCH   6   7
ENDBRANCH   3   6
TORSDOF 3
ENDMDL
MODEL      184
REMARK 921   NORMALIZED FREE ENERGY PREDICTED BY IDOCK:   -2.52 KCAL/MOL
REMARK 922        TOTAL FREE ENERGY PREDICTED BY IDOCK:   -3.08 KCAL/MOL
REMARK 923 INTER-LIGAND FREE ENERGY PREDICTED BY IDOCK:   -2.93 KCAL/MOL
REMARK 924 INTRA-LIGAND FREE ENERGY PREDICTED BY IDOCK:   -0.15 KCAL/MOL
REMARK 927      BINDING AFFINITY PREDICTED BY RF-SCORE:    0.00 PKD
ROOT
HETATM    1  C   UNL     1     -10.883  12.674  64.756  1.00  0.00    -0.332 C  
HETATM    2  C   UNL     1     -11.119  11.829  65.977  1.00  0.00    -0.312 C  
HETATM    3  N   UNL     1     -10.159  10.863  66.168  1.00  0.00    -0.232 N  
HETATM    4  O   UNL     1     -12.084  11.989  66.717  1.00  0.00    -0.613 OA 
HETATM    5  H   UNL     1      -9.388  10.789  65.505  1.00  0.00     0.000 HD 
ENDROOT
BRANCH   3   6
HETATM    6  C   UNL     1     -10.215   9.948  67.288  1.00  0.00    -0.222 C  
BRANCH   6   7
HETATM    7  C   UNL     1     -10.462   8.514  66.835  1.00  0.00    -0.345 C  
BRANCH   7   8
HETATM    8  C   UNL     1     -10.754   7.625  68.034  1.00  0.00    -0.087 C  
HETATM    9  S   UNL     1     -10.030   6.007  67.843  1.00  0.00    -0.144 S  
HETATM   10  O   UNL     1      -8.592   6.091  67.915  1.00  0.00    -0.114 OA 
HETATM   11  O   UNL     1     -10.724   5.290  66.796  1.00  0.00    -0.273 OA 
HETATM   12  O   UNL     1     -10.568   5.374  69.228  1.00  0.00    -0.258 OA 
ENDBRANCH   7   8
ENDBRANCH   6   7
ENDBRANCH   3   6
TORSDOF 3
ENDMDL
MODEL      185
REMARK 921   NORMALIZED FREE ENERGY PREDICTED BY IDOCK:   -2.51 KCAL/MOL
REMARK 922        TOTAL FREE ENERGY PREDICTED BY IDOCK:   -3.06 KCAL/MOL
REMARK 923 INTER-LIGAND FREE ENERGY PREDICTED BY IDOCK:   -2.89 KCAL/MOL
REMARK 924 INTRA-LIGAND FREE ENERGY PREDICTED BY IDOCK:   -0.18 KCAL/MOL
REMARK 927      BINDING AFFINITY PREDICTED BY RF-SCORE:    0.00 PKD
ROOT
HETATM    1  C   UNL     1      -9.481   7.080  69.863  1.00  0.00    -0.157 C  
HETATM    2  C   UNL     1      -9.048   8.361  69.204  1.00  0.00    -0.147 C  
HETATM    3  N   UNL     1      -9.954   9.386  69.351  1.00  0.00    -0.175 N  
HETATM    4  O   UNL     1      -7.992   8.465  68.589  1.00  0.00    -0.116 OA 
HETATM    5  H   UNL     1     -10.814   9.219  69.872  1.00  0.00     0.000 HD 
ENDROOT
BRANCH   3   6
HETATM    6  C   UNL     1      -9.717  10.695  68.783  1.00  0.00    -0.189 C  
BRANCH   6   7
HETATM    7  C   UNL     1     -10.431  10.872  67.449  1.00  0.00    -0.263 C  
BRANCH   7   8
HETATM    8  C   UNL     1     -10.192  12.271  66.903  1.00  0.00    -0.213 C  
HETATM    9  S   UNL     1     -11.713  13.195  66.777  1.00  0.00    -0.395 S  
HETATM   10  O   UNL     1     -12.220  13.502  68.092  1.00  0.00    -0.302 OA 
HETATM   11  O   UNL     1     -12.533  12.630  65.729  1.00  0.00    -0.607 OA 
HETATM   12  O   UNL     1     -11.084  14.544  66.151  1.00  0.00    -0.322 OA 
ENDBRANCH   7   8
ENDBRANCH   6   7
ENDBRANCH   3   6
TORSDOF 3
ENDMDL
MODEL      186
REMARK 921   NORMALIZED FREE ENERGY PREDICTED BY IDOCK:   -2.51 KCAL/MOL
REMARK 922        TOTAL FREE ENERGY PREDICTED BY IDOCK:   -3.06 KCAL/MOL
REMARK 923 INTER-LIGAND FREE ENERGY PREDICTED BY IDOCK:   -2.87 KCAL/MOL
REMARK 924 INTRA-LIGAND FREE ENERGY PREDICTED BY IDOCK:   -0.19 KCAL/MOL
REMARK 927      BINDING AFFINITY PREDICTED BY RF-SCORE:    0.00 PKD
ROOT
HETATM    1  C   UNL     1      -9.368   2.512  68.331  1.00  0.00    -0.259 C  
HETATM    2  C   UNL     1      -9.422   3.993  68.585  1.00  0.00    -0.154 C  
HETATM    3  N   UNL     1      -9.543   4.316  69.917  1.00  0.00    -0.194 N  
HETATM    4  O   UNL     1      -9.373   4.822  67.683  1.00  0.00    -0.126 OA 
HETATM    5  H   UNL     1      -9.583   3.569  70.608  1.00  0.00     0.000 HD 
ENDROOT
BRANCH   3   6
HETATM    6  C   UNL     1      -9.615   5.692  70.360  1.00  0.00    -0.170 C  
BRANCH   6   7
HETATM    7  C   UNL     1     -11.055   6.181  70.454  1.00  0.00    -0.420 C  
BRANCH   7   8
HETATM    8  C   UNL     1     -11.124   7.674  70.171  1.00  0.00    -0.218 C  
HETATM    9  S   UNL     1     -11.412   8.612  71.660  1.00  0.00    -0.331 S  
HETATM   10  O   UNL     1     -10.254   8.556  72.518  1.00  0.00    -0.310 OA 
HETATM   11  O   UNL     1     -12.755   8.362  72.134  1.00  0.00    -0.337 OA 
HETATM   12  O   UNL     1     -11.462  10.075  70.977  1.00  0.00    -0.348 OA 
ENDBRANCH   7   8
ENDBRANCH   6   7
ENDBRANCH   3   6
TORSDOF 3
ENDMDL
MODEL      187
REMARK 921   NORMALIZED FREE ENERGY PREDICTED BY IDOCK:   -2.50 KCAL/MOL
REMARK 922        TOTAL FREE ENERGY PREDICTED BY IDOCK:   -3.05 KCAL/MOL
REMARK 923 INTER-LIGAND FREE ENERGY PREDICTED BY IDOCK:   -2.69 KCAL/MOL
REMARK 924 INTRA-LIGAND FREE ENERGY PREDICTED BY IDOCK:   -0.36 KCAL/MOL
REMARK 927      BINDING AFFINITY PREDICTED BY RF-SCORE:    0.00 PKD
ROOT
HETATM    1  C   UNL     1     -12.021  14.750  69.584  1.00  0.00    -0.360 C  
HETATM    2  C   UNL     1     -10.804  14.526  68.729  1.00  0.00    -0.248 C  
HETATM    3  N   UNL     1     -10.357  13.225  68.744  1.00  0.00    -0.388 N  
HETATM    4  O   UNL     1     -10.266  15.427  68.095  1.00  0.00    -0.226 OA 
HETATM    5  H   UNL     1     -10.856  12.534  69.302  1.00  0.00     0.000 HD 
ENDROOT
BRANCH   3   6
HETATM    6  C   UNL     1      -9.194  12.815  67.986  1.00  0.00    -0.208 C  
BRANCH   6   7
HETATM    7  C   UNL     1      -9.173  11.309  67.755  1.00  0.00    -0.156 C  
BRANCH   7   8
HETATM    8  C   UNL     1      -8.723  10.587  69.016  1.00  0.00    -0.156 C  
HETATM    9  S   UNL     1     -10.033   9.592  69.705  1.00  0.00    -0.220 S  
HETATM   10  O   UNL     1     -10.316   8.472  68.841  1.00  0.00    -0.208 OA 
HETATM   11  O   UNL     1     -11.064  10.455  70.237  1.00  0.00    -0.288 OA 
HETATM   12  O   UNL     1      -9.223   9.045  70.990  1.00  0.00    -0.226 OA 
ENDBRANCH   7   8
ENDBRANCH   6   7
ENDBRANCH   3   6
TORSDOF 3
ENDMDL
MODEL      188
REMARK 921   NORMALIZED FREE ENERGY PREDICTED BY IDOCK:   -2.50 KCAL/MOL
REMARK 922        TOTAL FREE ENERGY PREDICTED BY IDOCK:   -3.05 KCAL/MOL
REMARK 923 INTER-LIGAND FREE ENERGY PREDICTED BY IDOCK:   -2.64 KCAL/MOL
REMARK 924 INTRA-LIGAND FREE ENERGY PREDICTED BY IDOCK:   -0.41 KCAL/MOL
REMARK 927      BINDING AFFINITY PREDICTED BY RF-SCORE:    0.00 PKD
ROOT
HETATM    1  C   UNL     1      -9.941   4.895  67.868  1.00  0.00    -0.181 C  
HETATM    2  C   UNL     1      -9.436   6.307  67.976  1.00  0.00    -0.116 C  
HETATM    3  N   UNL     1     -10.319   7.157  68.602  1.00  0.00    -0.183 N  
HETATM    4  O   UNL     1      -8.346   6.657  67.536  1.00  0.00    -0.120 OA 
HETATM    5  H   UNL     1     -11.209   6.791  68.936  1.00  0.00     0.000 HD 
ENDROOT
BRANCH   3   6
HETATM    6  C   UNL     1     -10.013   8.558  68.798  1.00  0.00    -0.186 C  
BRANCH   6   7
HETATM    7  C   UNL     1     -10.907   9.189  69.858  1.00  0.00    -0.242 C  
BRANCH   7   8
HETATM    8  C   UNL     1     -10.467   8.751  71.247  1.00  0.00    -0.256 C  
HETATM    9  S   UNL     1     -11.666   7.668  72.003  1.00  0.00    -0.313 S  
HETATM   10  O   UNL     1     -11.694   6.399  71.318  1.00  0.00    -0.316 OA 
HETATM   11  O   UNL     1     -12.861   8.419  72.319  1.00  0.00    -0.342 OA 
HETATM   12  O   UNL     1     -10.901   7.464  73.411  1.00  0.00    -0.388 OA 
ENDBRANCH   7   8
ENDBRANCH   6   7
ENDBRANCH   3   6
TORSDOF 3
ENDMDL
MODEL      189
REMARK 921   NORMALIZED FREE ENERGY PREDICTED BY IDOCK:   -2.50 KCAL/MOL
REMARK 922        TOTAL FREE ENERGY PREDICTED BY IDOCK:   -3.04 KCAL/MOL
REMARK 923 INTER-LIGAND FREE ENERGY PREDICTED BY IDOCK:   -2.90 KCAL/MOL
REMARK 924 INTRA-LIGAND FREE ENERGY PREDICTED BY IDOCK:   -0.14 KCAL/MOL
REMARK 927      BINDING AFFINITY PREDICTED BY RF-SCORE:    0.00 PKD
ROOT
HETATM    1  C   UNL     1     -10.411   9.268  67.052  1.00  0.00    -0.325 C  
HETATM    2  C   UNL     1     -10.661  10.748  67.141  1.00  0.00    -0.272 C  
HETATM    3  N   UNL     1     -11.500  11.100  68.174  1.00  0.00    -0.300 N  
HETATM    4  O   UNL     1     -10.169  11.552  66.357  1.00  0.00    -0.212 OA 
HETATM    5  H   UNL     1     -11.874  10.372  68.781  1.00  0.00     0.000 HD 
ENDROOT
BRANCH   3   6
HETATM    6  C   UNL     1     -11.863  12.479  68.419  1.00  0.00    -0.304 C  
BRANCH   6   7
HETATM    7  C   UNL     1     -11.573  12.893  69.856  1.00  0.00    -0.246 C  
BRANCH   7   8
HETATM    8  C   UNL     1     -11.047  14.320  69.899  1.00  0.00    -0.076 C  
HETATM    9  S   UNL     1     -11.838  15.273  71.181  1.00  0.00    -0.389 S  
HETATM   10  O   UNL     1     -11.430  14.798  72.481  1.00  0.00    -0.152 OA 
HETATM   11  O   UNL     1     -13.221  15.503  70.826  1.00  0.00    -0.475 OA 
HETATM   12  O   UNL     1     -11.082  16.671  70.896  1.00  0.00    -0.151 OA 
ENDBRANCH   7   8
ENDBRANCH   6   7
ENDBRANCH   3   6
TORSDOF 3
ENDMDL
MODEL      190
REMARK 921   NORMALIZED FREE ENERGY PREDICTED BY IDOCK:   -2.49 KCAL/MOL
REMARK 922        TOTAL FREE ENERGY PREDICTED BY IDOCK:   -3.04 KCAL/MOL
REMARK 923 INTER-LIGAND FREE ENERGY PREDICTED BY IDOCK:   -3.00 KCAL/MOL
REMARK 924 INTRA-LIGAND FREE ENERGY PREDICTED BY IDOCK:   -0.04 KCAL/MOL
REMARK 927      BINDING AFFINITY PREDICTED BY RF-SCORE:    0.00 PKD
ROOT
HETATM    1  C   UNL     1     -13.172   9.819  71.686  1.00  0.00    -0.514 C  
HETATM    2  C   UNL     1     -12.883  11.063  70.894  1.00  0.00    -0.301 C  
HETATM    3  N   UNL     1     -12.524  10.811  69.590  1.00  0.00    -0.486 N  
HETATM    4  O   UNL     1     -12.952  12.188  71.377  1.00  0.00    -0.368 OA 
HETATM    5  H   UNL     1     -12.484   9.846  69.263  1.00  0.00     0.000 HD 
ENDROOT
BRANCH   3   6
HETATM    6  C   UNL     1     -12.204  11.881  68.670  1.00  0.00     0.104 C  
BRANCH   6   7
HETATM    7  C   UNL     1     -10.908  12.585  69.051  1.00  0.00    -0.183 C  
BRANCH   7   8
HETATM    8  C   UNL     1     -10.839  13.956  68.395  1.00  0.00    -0.254 C  
HETATM    9  S   UNL     1     -11.467  15.231  69.473  1.00  0.00    -0.330 S  
HETATM   10  O   UNL     1     -10.577  15.423  70.591  1.00  0.00    -0.290 OA 
HETATM   11  O   UNL     1     -12.896  15.072  69.624  1.00  0.00    -0.022 OA 
HETATM   12  O   UNL     1     -11.277  16.472  68.458  1.00  0.00    -0.360 OA 
ENDBRANCH   7   8
ENDBRANCH   6   7
ENDBRANCH   3   6
TORSDOF 3
ENDMDL
MODEL      191
REMARK 921   NORMALIZED FREE ENERGY PREDICTED BY IDOCK:   -2.49 KCAL/MOL
REMARK 922        TOTAL FREE ENERGY PREDICTED BY IDOCK:   -3.03 KCAL/MOL
REMARK 923 INTER-LIGAND FREE ENERGY PREDICTED BY IDOCK:   -2.72 KCAL/MOL
REMARK 924 INTRA-LIGAND FREE ENERGY PREDICTED BY IDOCK:   -0.31 KCAL/MOL
REMARK 927      BINDING AFFINITY PREDICTED BY RF-SCORE:    0.00 PKD
ROOT
HETATM    1  C   UNL     1      -9.397   7.791  73.614  1.00  0.00    -0.336 C  
HETATM    2  C   UNL     1     -10.351   8.053  72.482  1.00  0.00    -0.306 C  
HETATM    3  N   UNL     1     -11.071   6.943  72.105  1.00  0.00    -0.236 N  
HETATM    4  O   UNL     1     -10.459   9.152  71.947  1.00  0.00    -0.348 OA 
HETATM    5  H   UNL     1     -10.921   6.063  72.596  1.00  0.00     0.000 HD 
ENDROOT
BRANCH   3   6
HETATM    6  C   UNL     1     -12.038   6.995  71.030  1.00  0.00    -0.368 C  
BRANCH   6   7
HETATM    7  C   UNL     1     -11.517   6.322  69.767  1.00  0.00    -0.449 C  
BRANCH   7   8
HETATM    8  C   UNL     1     -10.448   5.297  70.118  1.00  0.00    -0.268 C  
HETATM    9  S   UNL     1      -8.917   5.629  69.267  1.00  0.00    -0.114 S  
HETATM   10  O   UNL     1      -8.312   6.834  69.780  1.00  0.00    -0.128 OA 
HETATM   11  O   UNL     1      -9.086   5.374  67.854  1.00  0.00    -0.109 OA 
HETATM   12  O   UNL     1      -8.086   4.367  69.837  1.00  0.00    -0.062 OA 
ENDBRANCH   7   8
ENDBRANCH   6   7
ENDBRANCH   3   6
TORSDOF 3
ENDMDL
MODEL      192
REMARK 921   NORMALIZED FREE ENERGY PREDICTED BY IDOCK:   -2.49 KCAL/MOL
REMARK 922        TOTAL FREE ENERGY PREDICTED BY IDOCK:   -3.03 KCAL/MOL
REMARK 923 INTER-LIGAND FREE ENERGY PREDICTED BY IDOCK:   -2.91 KCAL/MOL
REMARK 924 INTRA-LIGAND FREE ENERGY PREDICTED BY IDOCK:   -0.12 KCAL/MOL
REMARK 927      BINDING AFFINITY PREDICTED BY RF-SCORE:    0.00 PKD
ROOT
HETATM    1  C   UNL     1     -12.075  14.252  64.081  1.00  0.00    -0.423 C  
HETATM    2  C   UNL     1     -11.810  12.871  64.614  1.00  0.00    -0.372 C  
HETATM    3  N   UNL     1     -10.594  12.358  64.226  1.00  0.00    -0.336 N  
HETATM    4  O   UNL     1     -12.613  12.267  65.318  1.00  0.00    -0.583 OA 
HETATM    5  H   UNL     1      -9.983  12.920  63.634  1.00  0.00     0.000 HD 
ENDROOT
BRANCH   3   6
HETATM    6  C   UNL     1     -10.161  11.039  64.635  1.00  0.00    -0.330 C  
BRANCH   6   7
HETATM    7  C   UNL     1      -8.854  11.091  65.417  1.00  0.00    -0.157 C  
BRANCH   7   8
HETATM    8  C   UNL     1      -8.951  12.112  66.540  1.00  0.00    -0.179 C  
HETATM    9  S   UNL     1      -7.498  12.087  67.575  1.00  0.00    -0.151 S  
HETATM   10  O   UNL     1      -6.359  12.593  66.849  1.00  0.00    -0.170 OA 
HETATM   11  O   UNL     1      -7.466  10.854  68.329  1.00  0.00    -0.086 OA 
HETATM   12  O   UNL     1      -7.972  13.221  68.623  1.00  0.00    -0.123 OA 
ENDBRANCH   7   8
ENDBRANCH   6   7
ENDBRANCH   3   6
TORSDOF 3
ENDMDL
MODEL      193
REMARK 921   NORMALIZED FREE ENERGY PREDICTED BY IDOCK:   -2.48 KCAL/MOL
REMARK 922        TOTAL FREE ENERGY PREDICTED BY IDOCK:   -3.03 KCAL/MOL
REMARK 923 INTER-LIGAND FREE ENERGY PREDICTED BY IDOCK:   -3.09 KCAL/MOL
REMARK 924 INTRA-LIGAND FREE ENERGY PREDICTED BY IDOCK:    0.07 KCAL/MOL
REMARK 927      BINDING AFFINITY PREDICTED BY RF-SCORE:    0.00 PKD
ROOT
HETATM    1  C   UNL     1     -11.165  15.251  70.188  1.00  0.00    -0.313 C  
HETATM    2  C   UNL     1     -10.338  15.903  69.115  1.00  0.00    -0.237 C  
HETATM    3  N   UNL     1      -8.994  15.943  69.406  1.00  0.00    -0.245 N  
HETATM    4  O   UNL     1     -10.828  16.362  68.088  1.00  0.00    -0.324 OA 
HETATM    5  H   UNL     1      -8.664  15.545  70.285  1.00  0.00     0.000 HD 
ENDROOT
BRANCH   3   6
HETATM    6  C   UNL     1      -8.038  16.536  68.497  1.00  0.00    -0.218 C  
BRANCH   6   7
HETATM    7  C   UNL     1      -7.664  17.953  68.913  1.00  0.00    -0.206 C  
BRANCH   7   8
HETATM    8  C   UNL     1      -8.395  18.968  68.047  1.00  0.00    -0.301 C  
HETATM    9  S   UNL     1      -7.934  18.819  66.331  1.00  0.00    -0.269 S  
HETATM   10  O   UNL     1      -8.440  17.585  65.783  1.00  0.00    -0.530 OA 
HETATM   11  O   UNL     1      -6.565  19.253  66.161  1.00  0.00    -0.193 OA 
HETATM   12  O   UNL     1      -8.842  20.030  65.768  1.00  0.00    -0.256 OA 
ENDBRANCH   7   8
ENDBRANCH   6   7
ENDBRANCH   3   6
TORSDOF 3
ENDMDL
MODEL      194
REMARK 921   NORMALIZED FREE ENERGY PREDICTED BY IDOCK:   -2.47 KCAL/MOL
REMARK 922        TOTAL FREE ENERGY PREDICTED BY IDOCK:   -3.02 KCAL/MOL
REMARK 923 INTER-LIGAND FREE ENERGY PREDICTED BY IDOCK:   -2.68 KCAL/MOL
REMARK 924 INTRA-LIGAND FREE ENERGY PREDICTED BY IDOCK:   -0.33 KCAL/MOL
REMARK 927      BINDING AFFINITY PREDICTED BY RF-SCORE:    0.00 PKD
ROOT
HETATM    1  C   UNL     1      -7.968  15.692  69.304  1.00  0.00    -0.237 C  
HETATM    2  C   UNL     1      -9.440  15.860  69.049  1.00  0.00    -0.247 C  
HETATM    3  N   UNL     1     -10.146  14.682  69.122  1.00  0.00    -0.339 N  
HETATM    4  O   UNL     1      -9.949  16.946  68.791  1.00  0.00    -0.248 OA 
HETATM    5  H   UNL     1      -9.650  13.817  69.336  1.00  0.00     0.000 HD 
ENDROOT
BRANCH   3   6
HETATM    6  C   UNL     1     -11.576  14.639  68.902  1.00  0.00    -0.310 C  
BRANCH   6   7
HETATM    7  C   UNL     1     -11.959  13.581  67.875  1.00  0.00    -0.372 C  
BRANCH   7   8
HETATM    8  C   UNL     1     -11.978  12.203  68.518  1.00  0.00    -0.217 C  
HETATM    9  S   UNL     1     -10.747  11.129  67.804  1.00  0.00    -0.241 S  
HETATM   10  O   UNL     1      -9.424  11.576  68.166  1.00  0.00    -0.171 OA 
HETATM   11  O   UNL     1     -11.122  10.801  66.447  1.00  0.00    -0.112 OA 
HETATM   12  O   UNL     1     -11.090   9.813  68.675  1.00  0.00    -0.188 OA 
ENDBRANCH   7   8
ENDBRANCH   6   7
ENDBRANCH   3   6
TORSDOF 3
ENDMDL
MODEL      195
REMARK 921   NORMALIZED FREE ENERGY PREDICTED BY IDOCK:   -2.47 KCAL/MOL
REMARK 922        TOTAL FREE ENERGY PREDICTED BY IDOCK:   -3.01 KCAL/MOL
REMARK 923 INTER-LIGAND FREE ENERGY PREDICTED BY IDOCK:   -2.90 KCAL/MOL
REMARK 924 INTRA-LIGAND FREE ENERGY PREDICTED BY IDOCK:   -0.11 KCAL/MOL
REMARK 927      BINDING AFFINITY PREDICTED BY RF-SCORE:    0.00 PKD
ROOT
HETATM    1  C   UNL     1     -13.214  11.265  71.805  1.00  0.00    -0.480 C  
HETATM    2  C   UNL     1     -12.394  11.705  70.624  1.00  0.00    -0.344 C  
HETATM    3  N   UNL     1     -12.178  10.704  69.704  1.00  0.00    -0.514 N  
HETATM    4  O   UNL     1     -11.957  12.845  70.508  1.00  0.00    -0.319 OA 
HETATM    5  H   UNL     1     -12.571   9.779  69.875  1.00  0.00     0.000 HD 
ENDROOT
BRANCH   3   6
HETATM    6  C   UNL     1     -11.408  10.933  68.501  1.00  0.00    -0.299 C  
BRANCH   6   7
HETATM    7  C   UNL     1     -10.882   9.631  67.910  1.00  0.00    -0.272 C  
BRANCH   7   8
HETATM    8  C   UNL     1      -9.730   9.912  66.957  1.00  0.00    -0.182 C  
HETATM    9  S   UNL     1      -8.628   8.515  66.832  1.00  0.00    -0.118 S  
HETATM   10  O   UNL     1      -9.280   7.424  66.151  1.00  0.00    -0.166 OA 
HETATM   11  O   UNL     1      -7.916   8.350  68.079  1.00  0.00    -0.115 OA 
HETATM   12  O   UNL     1      -7.565   9.181  65.814  1.00  0.00    -0.089 OA 
ENDBRANCH   7   8
ENDBRANCH   6   7
ENDBRANCH   3   6
TORSDOF 3
ENDMDL
MODEL      196
REMARK 921   NORMALIZED FREE ENERGY PREDICTED BY IDOCK:   -2.44 KCAL/MOL
REMARK 922        TOTAL FREE ENERGY PREDICTED BY IDOCK:   -2.98 KCAL/MOL
REMARK 923 INTER-LIGAND FREE ENERGY PREDICTED BY IDOCK:   -3.32 KCAL/MOL
REMARK 924 INTRA-LIGAND FREE ENERGY PREDICTED BY IDOCK:    0.34 KCAL/MOL
REMARK 927      BINDING AFFINITY PREDICTED BY RF-SCORE:    0.00 PKD
ROOT
HETATM    1  C   UNL     1     -10.460  11.742  67.999  1.00  0.00    -0.221 C  
HETATM    2  C   UNL     1     -11.134  13.043  68.337  1.00  0.00    -0.262 C  
HETATM    3  N   UNL     1     -10.502  13.744  69.338  1.00  0.00    -0.431 N  
HETATM    4  O   UNL     1     -12.154  13.428  67.774  1.00  0.00    -0.338 OA 
HETATM    5  H   UNL     1      -9.660  13.356  69.761  1.00  0.00     0.000 HD 
ENDROOT
BRANCH   3   6
HETATM    6  C   UNL     1     -11.002  15.019  69.805  1.00  0.00    -0.273 C  
BRANCH   6   7
HETATM    7  C   UNL     1     -11.643  15.821  68.681  1.00  0.00    -0.392 C  
BRANCH   7   8
HETATM    8  C   UNL     1     -10.750  16.989  68.289  1.00  0.00    -0.372 C  
HETATM    9  S   UNL     1      -9.669  16.563  66.936  1.00  0.00    -0.262 S  
HETATM   10  O   UNL     1     -10.432  16.390  65.724  1.00  0.00    -0.354 OA 
HETATM   11  O   UNL     1      -8.685  15.606  67.389  1.00  0.00    -0.168 OA 
HETATM   12  O   UNL     1      -8.888  17.973  66.843  1.00  0.00    -0.245 OA 
ENDBRANCH   7   8
ENDBRANCH   6   7
ENDBRANCH   3   6
TORSDOF 3
ENDMDL
MODEL      197
REMARK 921   NORMALIZED FREE ENERGY PREDICTED BY IDOCK:   -2.44 KCAL/MOL
REMARK 922        TOTAL FREE ENERGY PREDICTED BY IDOCK:   -2.97 KCAL/MOL
REMARK 923 INTER-LIGAND FREE ENERGY PREDICTED BY IDOCK:   -2.70 KCAL/MOL
REMARK 924 INTRA-LIGAND FREE ENERGY PREDICTED BY IDOCK:   -0.27 KCAL/MOL
REMARK 927      BINDING AFFINITY PREDICTED BY RF-SCORE:    0.00 PKD
ROOT
HETATM    1  C   UNL     1     -10.551   5.918  69.009  1.00  0.00    -0.360 C  
HETATM    2  C   UNL     1     -10.816   7.009  68.008  1.00  0.00    -0.163 C  
HETATM    3  N   UNL     1     -10.678   8.275  68.529  1.00  0.00    -0.414 N  
HETATM    4  O   UNL     1     -11.134   6.779  66.846  1.00  0.00    -0.397 OA 
HETATM    5  H   UNL     1     -10.416   8.385  69.507  1.00  0.00     0.000 HD 
ENDROOT
BRANCH   3   6
HETATM    6  C   UNL     1     -10.896   9.455  67.720  1.00  0.00    -0.159 C  
BRANCH   6   7
HETATM    7  C   UNL     1      -9.621   9.904  67.018  1.00  0.00    -0.218 C  
BRANCH   7   8
HETATM    8  C   UNL     1      -9.818   9.895  65.510  1.00  0.00    -0.311 C  
HETATM    9  S   UNL     1      -8.436   9.140  64.673  1.00  0.00    -0.181 S  
HETATM   10  O   UNL     1      -8.398   7.724  64.948  1.00  0.00    -0.136 OA 
HETATM   11  O   UNL     1      -7.276   9.995  64.791  1.00  0.00    -0.129 OA 
HETATM   12  O   UNL     1      -8.970   9.346  63.163  1.00  0.00    -0.235 OA 
ENDBRANCH   7   8
ENDBRANCH   6   7
ENDBRANCH   3   6
TORSDOF 3
ENDMDL
MODEL      198
REMARK 921   NORMALIZED FREE ENERGY PREDICTED BY IDOCK:   -2.44 KCAL/MOL
REMARK 922        TOTAL FREE ENERGY PREDICTED BY IDOCK:   -2.97 KCAL/MOL
REMARK 923 INTER-LIGAND FREE ENERGY PREDICTED BY IDOCK:   -2.82 KCAL/MOL
REMARK 924 INTRA-LIGAND FREE ENERGY PREDICTED BY IDOCK:   -0.15 KCAL/MOL
REMARK 927      BINDING AFFINITY PREDICTED BY RF-SCORE:    0.00 PKD
ROOT
HETATM    1  C   UNL     1      -9.069   6.529  67.459  1.00  0.00    -0.115 C  
HETATM    2  C   UNL     1      -8.603   7.534  66.442  1.00  0.00    -0.140 C  
HETATM    3  N   UNL     1      -9.485   8.573  66.255  1.00  0.00    -0.224 N  
HETATM    4  O   UNL     1      -7.542   7.421  65.837  1.00  0.00    -0.083 OA 
HETATM    5  H   UNL     1     -10.350   8.593  66.793  1.00  0.00     0.000 HD 
ENDROOT
BRANCH   3   6
HETATM    6  C   UNL     1      -9.214   9.638  65.314  1.00  0.00    -0.237 C  
BRANCH   6   7
HETATM    7  C   UNL     1     -10.188  10.798  65.477  1.00  0.00    -0.330 C  
BRANCH   7   8
HETATM    8  C   UNL     1      -9.941  11.512  66.798  1.00  0.00    -0.208 C  
HETATM    9  S   UNL     1     -11.461  12.109  67.514  1.00  0.00    -0.342 S  
HETATM   10  O   UNL     1     -12.274  11.002  67.955  1.00  0.00    -0.520 OA 
HETATM   11  O   UNL     1     -11.979  13.194  66.711  1.00  0.00    -0.384 OA 
HETATM   12  O   UNL     1     -10.814  12.810  68.818  1.00  0.00    -0.242 OA 
ENDBRANCH   7   8
ENDBRANCH   6   7
ENDBRANCH   3   6
TORSDOF 3
ENDMDL
MODEL      199
REMARK 921   NORMALIZED FREE ENERGY PREDICTED BY IDOCK:   -2.44 KCAL/MOL
REMARK 922        TOTAL FREE ENERGY PREDICTED BY IDOCK:   -2.97 KCAL/MOL
REMARK 923 INTER-LIGAND FREE ENERGY PREDICTED BY IDOCK:   -2.68 KCAL/MOL
REMARK 924 INTRA-LIGAND FREE ENERGY PREDICTED BY IDOCK:   -0.29 KCAL/MOL
REMARK 927      BINDING AFFINITY PREDICTED BY RF-SCORE:    0.00 PKD
ROOT
HETATM    1  C   UNL     1      -9.232   9.902  70.043  1.00  0.00    -0.224 C  
HETATM    2  C   UNL     1      -8.536   8.833  70.840  1.00  0.00    -0.192 C  
HETATM    3  N   UNL     1      -8.693   7.570  70.317  1.00  0.00    -0.144 N  
HETATM    4  O   UNL     1      -7.902   9.075  71.861  1.00  0.00    -0.345 OA 
HETATM    5  H   UNL     1      -9.240   7.449  69.465  1.00  0.00     0.000 HD 
ENDROOT
BRANCH   3   6
HETATM    6  C   UNL     1      -8.101   6.410  70.946  1.00  0.00    -0.124 C  
BRANCH   6   7
HETATM    7  C   UNL     1      -9.142   5.344  71.262  1.00  0.00    -0.162 C  
BRANCH   7   8
HETATM    8  C   UNL     1     -10.540   5.867  70.964  1.00  0.00    -0.250 C  
HETATM    9  S   UNL     1     -11.427   6.258  72.461  1.00  0.00    -0.227 S  
HETATM   10  O   UNL     1     -10.840   7.409  73.103  1.00  0.00    -0.343 OA 
HETATM   11  O   UNL     1     -11.738   5.036  73.169  1.00  0.00    -0.313 OA 
HETATM   12  O   UNL     1     -12.810   6.718  71.768  1.00  0.00    -0.358 OA 
ENDBRANCH   7   8
ENDBRANCH   6   7
ENDBRANCH   3   6
TORSDOF 3
ENDMDL
MODEL      200
REMARK 921   NORMALIZED FREE ENERGY PREDICTED BY IDOCK:   -2.43 KCAL/MOL
REMARK 922        TOTAL FREE ENERGY PREDICTED BY IDOCK:   -2.97 KCAL/MOL
REMARK 923 INTER-LIGAND FREE ENERGY PREDICTED BY IDOCK:   -2.79 KCAL/MOL
REMARK 924 INTRA-LIGAND FREE ENERGY PREDICTED BY IDOCK:   -0.18 KCAL/MOL
REMARK 927      BINDING AFFINITY PREDICTED BY RF-SCORE:    0.00 PKD
ROOT
HETATM    1  C   UNL     1      -9.398   7.006  74.178  1.00  0.00    -0.276 C  
HETATM    2  C   UNL     1      -9.293   8.087  73.138  1.00  0.00    -0.277 C  
HETATM    3  N   UNL     1     -10.421   8.208  72.359  1.00  0.00    -0.293 N  
HETATM    4  O   UNL     1      -8.291   8.780  73.001  1.00  0.00    -0.412 OA 
HETATM    5  H   UNL     1     -11.213   7.590  72.531  1.00  0.00     0.000 HD 
ENDROOT
BRANCH   3   6
HETATM    6  C   UNL     1     -10.509   9.190  71.300  1.00  0.00    -0.328 C  
BRANCH   6   7
HETATM    7  C   UNL     1     -11.252   8.648  70.086  1.00  0.00    -0.152 C  
BRANCH   7   8
HETATM    8  C   UNL     1     -11.044   7.145  69.967  1.00  0.00    -0.258 C  
HETATM    9  S   UNL     1     -10.239   6.714  68.435  1.00  0.00    -0.185 S  
HETATM   10  O   UNL     1      -8.872   7.175  68.442  1.00  0.00    -0.128 OA 
HETATM   11  O   UNL     1     -11.143   6.952  67.332  1.00  0.00    -0.304 OA 
HETATM   12  O   UNL     1     -10.231   5.114  68.649  1.00  0.00    -0.171 OA 
ENDBRANCH   7   8
ENDBRANCH   6   7
ENDBRANCH   3   6
TORSDOF 3
ENDMDL
MODEL      201
REMARK 921   NORMALIZED FREE ENERGY PREDICTED BY IDOCK:   -2.43 KCAL/MOL
REMARK 922        TOTAL FREE ENERGY PREDICTED BY IDOCK:   -2.96 KCAL/MOL
REMARK 923 INTER-LIGAND FREE ENERGY PREDICTED BY IDOCK:   -2.46 KCAL/MOL
REMARK 924 INTRA-LIGAND FREE ENERGY PREDICTED BY IDOCK:   -0.50 KCAL/MOL
REMARK 927      BINDING AFFINITY PREDICTED BY RF-SCORE:    0.00 PKD
ROOT
HETATM    1  C   UNL     1     -10.897   6.342  68.399  1.00  0.00    -0.383 C  
HETATM    2  C   UNL     1     -11.213   6.260  69.866  1.00  0.00    -0.429 C  
HETATM    3  N   UNL     1     -10.458   5.326  70.537  1.00  0.00    -0.262 N  
HETATM    4  O   UNL     1     -12.069   6.957  70.400  1.00  0.00    -0.318 OA 
HETATM    5  H   UNL     1      -9.768   4.781  70.022  1.00  0.00     0.000 HD 
ENDROOT
BRANCH   3   6
HETATM    6  C   UNL     1     -10.619   5.097  71.957  1.00  0.00    -0.200 C  
BRANCH   6   7
HETATM    7  C   UNL     1      -9.342   5.405  72.728  1.00  0.00    -0.148 C  
BRANCH   7   8
HETATM    8  C   UNL     1      -9.144   6.909  72.843  1.00  0.00    -0.130 C  
HETATM    9  S   UNL     1      -7.729   7.457  71.906  1.00  0.00    -0.087 S  
HETATM   10  O   UNL     1      -7.985   7.326  70.493  1.00  0.00    -0.101 OA 
HETATM   11  O   UNL     1      -6.519   6.974  72.535  1.00  0.00    -0.053 OA 
HETATM   12  O   UNL     1      -7.819   9.022  72.292  1.00  0.00    -0.353 OA 
ENDBRANCH   7   8
ENDBRANCH   6   7
ENDBRANCH   3   6
TORSDOF 3
ENDMDL
MODEL      202
REMARK 921   NORMALIZED FREE ENERGY PREDICTED BY IDOCK:   -2.42 KCAL/MOL
REMARK 922        TOTAL FREE ENERGY PREDICTED BY IDOCK:   -2.95 KCAL/MOL
REMARK 923 INTER-LIGAND FREE ENERGY PREDICTED BY IDOCK:   -2.91 KCAL/MOL
REMARK 924 INTRA-LIGAND FREE ENERGY PREDICTED BY IDOCK:   -0.05 KCAL/MOL
REMARK 927      BINDING AFFINITY PREDICTED BY RF-SCORE:    0.00 PKD
ROOT
HETATM    1  C   UNL     1     -10.095   7.245  73.771  1.00  0.00    -0.375 C  
HETATM    2  C   UNL     1     -10.979   7.919  72.759  1.00  0.00    -0.393 C  
HETATM    3  N   UNL     1     -10.430   7.970  71.499  1.00  0.00    -0.212 N  
HETATM    4  O   UNL     1     -12.078   8.384  73.044  1.00  0.00    -0.235 OA 
HETATM    5  H   UNL     1      -9.508   7.565  71.342  1.00  0.00     0.000 HD 
ENDROOT
BRANCH   3   6
HETATM    6  C   UNL     1     -11.129   8.584  70.390  1.00  0.00    -0.231 C  
BRANCH   6   7
HETATM    7  C   UNL     1     -10.722  10.040  70.202  1.00  0.00    -0.361 C  
BRANCH   7   8
HETATM    8  C   UNL     1      -9.603  10.147  69.177  1.00  0.00    -0.212 C  
HETATM    9  S   UNL     1     -10.233  10.101  67.510  1.00  0.00    -0.226 S  
HETATM   10  O   UNL     1     -10.976  11.304  67.223  1.00  0.00    -0.253 OA 
HETATM   11  O   UNL     1     -10.738   8.777  67.223  1.00  0.00    -0.276 OA 
HETATM   12  O   UNL     1      -8.812  10.194  66.749  1.00  0.00    -0.132 OA 
ENDBRANCH   7   8
ENDBRANCH   6   7
ENDBRANCH   3   6
TORSDOF 3
ENDMDL
MODEL      203
REMARK 921   NORMALIZED FREE ENERGY PREDICTED BY IDOCK:   -2.41 KCAL/MOL
REMARK 922        TOTAL FREE ENERGY PREDICTED BY IDOCK:   -2.95 KCAL/MOL
REMARK 923 INTER-LIGAND FREE ENERGY PREDICTED BY IDOCK:   -3.26 KCAL/MOL
REMARK 924 INTRA-LIGAND FREE ENERGY PREDICTED BY IDOCK:    0.31 KCAL/MOL
REMARK 927      BINDING AFFINITY PREDICTED BY RF-SCORE:    0.00 PKD
ROOT
HETATM    1  C   UNL     1     -10.900  16.281  70.031  1.00  0.00    -0.329 C  
HETATM    2  C   UNL     1     -10.847  16.342  68.530  1.00  0.00    -0.330 C  
HETATM    3  N   UNL     1     -11.065  15.126  67.924  1.00  0.00    -0.309 N  
HETATM    4  O   UNL     1     -10.619  17.379  67.917  1.00  0.00    -0.367 OA 
HETATM    5  H   UNL     1     -11.243  14.307  68.503  1.00  0.00     0.000 HD 
ENDROOT
BRANCH   3   6
HETATM    6  C   UNL     1     -11.049  14.982  66.484  1.00  0.00    -0.329 C  
BRANCH   6   7
HETATM    7  C   UNL     1     -12.047  13.933  66.010  1.00  0.00    -0.465 C  
BRANCH   7   8
HETATM    8  C   UNL     1     -11.326  12.644  65.648  1.00  0.00    -0.322 C  
HETATM    9  S   UNL     1     -10.173  12.159  66.919  1.00  0.00    -0.210 S  
HETATM   10  O   UNL     1     -10.882  11.746  68.106  1.00  0.00    -0.197 OA 
HETATM   11  O   UNL     1      -9.067  13.090  66.947  1.00  0.00    -0.222 OA 
HETATM   12  O   UNL     1      -9.603  10.836  66.188  1.00  0.00    -0.182 OA 
ENDBRANCH   7   8
ENDBRANCH   6   7
ENDBRANCH   3   6
TORSDOF 3
ENDMDL
MODEL      204
REMARK 921   NORMALIZED FREE ENERGY PREDICTED BY IDOCK:   -2.40 KCAL/MOL
REMARK 922        TOTAL FREE ENERGY PREDICTED BY IDOCK:   -2.93 KCAL/MOL
REMARK 923 INTER-LIGAND FREE ENERGY PREDICTED BY IDOCK:   -2.77 KCAL/MOL
REMARK 924 INTRA-LIGAND FREE ENERGY PREDICTED BY IDOCK:   -0.16 KCAL/MOL
REMARK 927      BINDING AFFINITY PREDICTED BY RF-SCORE:    0.00 PKD
ROOT
HETATM    1  C   UNL     1     -12.950  14.758  71.780  1.00  0.00    -0.410 C  
HETATM    2  C   UNL     1     -12.444  14.655  70.368  1.00  0.00    -0.352 C  
HETATM    3  N   UNL     1     -12.266  13.359  69.943  1.00  0.00    -0.301 N  
HETATM    4  O   UNL     1     -12.207  15.639  69.675  1.00  0.00    -0.352 OA 
HETATM    5  H   UNL     1     -12.481  12.593  70.580  1.00  0.00     0.000 HD 
ENDROOT
BRANCH   3   6
HETATM    6  C   UNL     1     -11.781  13.055  68.614  1.00  0.00    -0.323 C  
BRANCH   6   7
HETATM    7  C   UNL     1     -10.259  13.015  68.562  1.00  0.00    -0.218 C  
BRANCH   7   8
HETATM    8  C   UNL     1      -9.788  12.658  67.160  1.00  0.00    -0.212 C  
HETATM    9  S   UNL     1      -8.974  11.072  67.126  1.00  0.00    -0.144 S  
HETATM   10  O   UNL     1      -9.927  10.016  67.366  1.00  0.00    -0.180 OA 
HETATM   11  O   UNL     1      -7.711  11.164  67.823  1.00  0.00    -0.106 OA 
HETATM   12  O   UNL     1      -8.600  11.065  65.555  1.00  0.00    -0.173 OA 
ENDBRANCH   7   8
ENDBRANCH   6   7
ENDBRANCH   3   6
TORSDOF 3
ENDMDL
MODEL      205
REMARK 921   NORMALIZED FREE ENERGY PREDICTED BY IDOCK:   -2.39 KCAL/MOL
REMARK 922        TOTAL FREE ENERGY PREDICTED BY IDOCK:   -2.92 KCAL/MOL
REMARK 923 INTER-LIGAND FREE ENERGY PREDICTED BY IDOCK:   -2.67 KCAL/MOL
REMARK 924 INTRA-LIGAND FREE ENERGY PREDICTED BY IDOCK:   -0.25 KCAL/MOL
REMARK 927      BINDING AFFINITY PREDICTED BY RF-SCORE:    0.00 PKD
ROOT
HETATM    1  C   UNL     1     -10.482   8.696  66.685  1.00  0.00    -0.239 C  
HETATM    2  C   UNL     1     -10.066   7.819  67.834  1.00  0.00    -0.185 C  
HETATM    3  N   UNL     1      -9.441   8.507  68.849  1.00  0.00    -0.146 N  
HETATM    4  O   UNL     1     -10.261   6.609  67.848  1.00  0.00    -0.147 OA 
HETATM    5  H   UNL     1      -9.310   9.514  68.760  1.00  0.00     0.000 HD 
ENDROOT
BRANCH   3   6
HETATM    6  C   UNL     1      -8.964   7.835  70.039  1.00  0.00    -0.142 C  
BRANCH   6   7
HETATM    7  C   UNL     1      -9.360   8.581  71.306  1.00  0.00    -0.261 C  
BRANCH   7   8
HETATM    8  C   UNL     1     -10.714   9.251  71.124  1.00  0.00    -0.333 C  
HETATM    9  S   UNL     1     -12.048   8.181  71.630  1.00  0.00    -0.319 S  
HETATM   10  O   UNL     1     -12.028   8.000  73.061  1.00  0.00    -0.240 OA 
HETATM   11  O   UNL     1     -12.161   7.080  70.700  1.00  0.00    -0.341 OA 
HETATM   12  O   UNL     1     -13.263   9.179  71.265  1.00  0.00    -0.317 OA 
ENDBRANCH   7   8
ENDBRANCH   6   7
ENDBRANCH   3   6
TORSDOF 3
ENDMDL
MODEL      206
REMARK 921   NORMALIZED FREE ENERGY PREDICTED BY IDOCK:   -2.38 KCAL/MOL
REMARK 922        TOTAL FREE ENERGY PREDICTED BY IDOCK:   -2.91 KCAL/MOL
REMARK 923 INTER-LIGAND FREE ENERGY PREDICTED BY IDOCK:   -2.64 KCAL/MOL
REMARK 924 INTRA-LIGAND FREE ENERGY PREDICTED BY IDOCK:   -0.27 KCAL/MOL
REMARK 927      BINDING AFFINITY PREDICTED BY RF-SCORE:    0.00 PKD
ROOT
HETATM    1  C   UNL     1     -10.293   8.147  67.461  1.00  0.00    -0.330 C  
HETATM    2  C   UNL     1     -10.789   8.982  68.609  1.00  0.00    -0.017 C  
HETATM    3  N   UNL     1     -11.359   8.242  69.619  1.00  0.00    -0.437 N  
HETATM    4  O   UNL     1     -10.699  10.205  68.626  1.00  0.00    -0.202 OA 
HETATM    5  H   UNL     1     -11.402   7.227  69.528  1.00  0.00     0.000 HD 
ENDROOT
BRANCH   3   6
HETATM    6  C   UNL     1     -11.899   8.867  70.806  1.00  0.00    -0.194 C  
BRANCH   6   7
HETATM    7  C   UNL     1     -11.144   8.446  72.061  1.00  0.00    -0.397 C  
BRANCH   7   8
HETATM    8  C   UNL     1      -9.929   7.609  71.689  1.00  0.00    -0.176 C  
HETATM    9  S   UNL     1      -8.409   8.500  71.964  1.00  0.00    -0.112 S  
HETATM   10  O   UNL     1      -8.187   8.684  73.378  1.00  0.00    -0.408 OA 
HETATM   11  O   UNL     1      -8.302   9.576  71.004  1.00  0.00    -0.294 OA 
HETATM   12  O   UNL     1      -7.400   7.353  71.440  1.00  0.00    -0.077 OA 
ENDBRANCH   7   8
ENDBRANCH   6   7
ENDBRANCH   3   6
TORSDOF 3
ENDMDL
MODEL      207
REMARK 921   NORMALIZED FREE ENERGY PREDICTED BY IDOCK:   -2.38 KCAL/MOL
REMARK 922        TOTAL FREE ENERGY PREDICTED BY IDOCK:   -2.90 KCAL/MOL
REMARK 923 INTER-LIGAND FREE ENERGY PREDICTED BY IDOCK:   -2.75 KCAL/MOL
REMARK 924 INTRA-LIGAND FREE ENERGY PREDICTED BY IDOCK:   -0.15 KCAL/MOL
REMARK 927      BINDING AFFINITY PREDICTED BY RF-SCORE:    0.00 PKD
ROOT
HETATM    1  C   UNL     1      -7.510   6.636  67.338  1.00  0.00    -0.096 C  
HETATM    2  C   UNL     1      -8.687   5.840  67.830  1.00  0.00    -0.107 C  
HETATM    3  N   UNL     1      -9.621   6.598  68.497  1.00  0.00    -0.126 N  
HETATM    4  O   UNL     1      -8.787   4.629  67.657  1.00  0.00    -0.103 OA 
HETATM    5  H   UNL     1      -9.463   7.599  68.605  1.00  0.00     0.000 HD 
ENDROOT
BRANCH   3   6
HETATM    6  C   UNL     1     -10.823   6.010  69.049  1.00  0.00    -0.342 C  
BRANCH   6   7
HETATM    7  C   UNL     1     -11.070   6.467  70.480  1.00  0.00    -0.388 C  
BRANCH   7   8
HETATM    8  C   UNL     1      -9.836   7.162  71.034  1.00  0.00    -0.180 C  
HETATM    9  S   UNL     1     -10.231   8.174  72.448  1.00  0.00    -0.319 S  
HETATM   10  O   UNL     1     -10.597   7.343  73.569  1.00  0.00    -0.376 OA 
HETATM   11  O   UNL     1     -11.016   9.311  72.022  1.00  0.00    -0.315 OA 
HETATM   12  O   UNL     1      -8.746   8.751  72.711  1.00  0.00    -0.398 OA 
ENDBRANCH   7   8
ENDBRANCH   6   7
ENDBRANCH   3   6
TORSDOF 3
ENDMDL
MODEL      208
REMARK 921   NORMALIZED FREE ENERGY PREDICTED BY IDOCK:   -2.37 KCAL/MOL
REMARK 922        TOTAL FREE ENERGY PREDICTED BY IDOCK:   -2.90 KCAL/MOL
REMARK 923 INTER-LIGAND FREE ENERGY PREDICTED BY IDOCK:   -2.58 KCAL/MOL
REMARK 924 INTRA-LIGAND FREE ENERGY PREDICTED BY IDOCK:   -0.32 KCAL/MOL
REMARK 927      BINDING AFFINITY PREDICTED BY RF-SCORE:    0.00 PKD
ROOT
HETATM    1  C   UNL     1      -7.159  17.187  67.723  1.00  0.00    -0.165 C  
HETATM    2  C   UNL     1      -7.630  15.862  67.191  1.00  0.00    -0.220 C  
HETATM    3  N   UNL     1      -8.807  15.944  66.482  1.00  0.00    -0.275 N  
HETATM    4  O   UNL     1      -7.022  14.815  67.387  1.00  0.00    -0.186 OA 
HETATM    5  H   UNL     1      -9.256  16.851  66.368  1.00  0.00     0.000 HD 
ENDROOT
BRANCH   3   6
HETATM    6  C   UNL     1      -9.422  14.773  65.895  1.00  0.00    -0.231 C  
BRANCH   6   7
HETATM    7  C   UNL     1     -10.257  14.003  66.911  1.00  0.00    -0.260 C  
BRANCH   7   8
HETATM    8  C   UNL     1     -11.348  14.896  67.482  1.00  0.00    -0.342 C  
HETATM    9  S   UNL     1     -11.271  14.970  69.262  1.00  0.00    -0.305 S  
HETATM   10  O   UNL     1     -10.091  15.687  69.681  1.00  0.00    -0.262 OA 
HETATM   11  O   UNL     1     -11.650  13.689  69.814  1.00  0.00    -0.279 OA 
HETATM   12  O   UNL     1     -12.549  15.931  69.485  1.00  0.00    -0.053 OA 
ENDBRANCH   7   8
ENDBRANCH   6   7
ENDBRANCH   3   6
TORSDOF 3
ENDMDL
MODEL      209
REMARK 921   NORMALIZED FREE ENERGY PREDICTED BY IDOCK:   -2.37 KCAL/MOL
REMARK 922        TOTAL FREE ENERGY PREDICTED BY IDOCK:   -2.90 KCAL/MOL
REMARK 923 INTER-LIGAND FREE ENERGY PREDICTED BY IDOCK:   -2.72 KCAL/MOL
REMARK 924 INTRA-LIGAND FREE ENERGY PREDICTED BY IDOCK:   -0.18 KCAL/MOL
REMARK 927      BINDING AFFINITY PREDICTED BY RF-SCORE:    0.00 PKD
ROOT
HETATM    1  C   UNL     1     -11.184  15.043  68.845  1.00  0.00    -0.288 C  
HETATM    2  C   UNL     1     -10.194  14.160  68.138  1.00  0.00    -0.241 C  
HETATM    3  N   UNL     1     -10.770  13.328  67.206  1.00  0.00    -0.254 N  
HETATM    4  O   UNL     1      -8.992  14.181  68.385  1.00  0.00    -0.183 OA 
HETATM    5  H   UNL     1     -11.778  13.365  67.062  1.00  0.00     0.000 HD 
ENDROOT
BRANCH   3   6
HETATM    6  C   UNL     1      -9.980  12.401  66.425  1.00  0.00    -0.242 C  
BRANCH   6   7
HETATM    7  C   UNL     1     -10.667  11.048  66.288  1.00  0.00    -0.273 C  
BRANCH   7   8
HETATM    8  C   UNL     1     -10.992  10.479  67.661  1.00  0.00    -0.314 C  
HETATM    9  S   UNL     1     -10.173   8.919  67.936  1.00  0.00    -0.232 S  
HETATM   10  O   UNL     1      -8.749   9.117  68.057  1.00  0.00    -0.128 OA 
HETATM   11  O   UNL     1     -10.757   7.912  67.079  1.00  0.00    -0.339 OA 
HETATM   12  O   UNL     1     -10.769   8.629  69.408  1.00  0.00    -0.220 OA 
ENDBRANCH   7   8
ENDBRANCH   6   7
ENDBRANCH   3   6
TORSDOF 3
ENDMDL
MODEL      210
REMARK 921   NORMALIZED FREE ENERGY PREDICTED BY IDOCK:   -2.36 KCAL/MOL
REMARK 922        TOTAL FREE ENERGY PREDICTED BY IDOCK:   -2.88 KCAL/MOL
REMARK 923 INTER-LIGAND FREE ENERGY PREDICTED BY IDOCK:   -2.48 KCAL/MOL
REMARK 924 INTRA-LIGAND FREE ENERGY PREDICTED BY IDOCK:   -0.40 KCAL/MOL
REMARK 927      BINDING AFFINITY PREDICTED BY RF-SCORE:    0.00 PKD
ROOT
HETATM    1  C   UNL     1      -8.325   5.322  68.944  1.00  0.00    -0.092 C  
HETATM    2  C   UNL     1      -8.758   6.129  70.136  1.00  0.00    -0.141 C  
HETATM    3  N   UNL     1      -9.889   6.878  69.909  1.00  0.00    -0.165 N  
HETATM    4  O   UNL     1      -8.146   6.121  71.199  1.00  0.00    -0.117 OA 
HETATM    5  H   UNL     1     -10.339   6.836  68.995  1.00  0.00     0.000 HD 
ENDROOT
BRANCH   3   6
HETATM    6  C   UNL     1     -10.458   7.725  70.936  1.00  0.00    -0.206 C  
BRANCH   6   7
HETATM    7  C   UNL     1     -10.023   9.176  70.778  1.00  0.00    -0.334 C  
BRANCH   7   8
HETATM    8  C   UNL     1     -11.115   9.983  70.093  1.00  0.00    -0.310 C  
HETATM    9  S   UNL     1     -10.831  10.116  68.338  1.00  0.00    -0.235 S  
HETATM   10  O   UNL     1     -11.009   8.832  67.705  1.00  0.00    -0.109 OA 
HETATM   11  O   UNL     1      -9.680  10.958  68.099  1.00  0.00    -0.157 OA 
HETATM   12  O   UNL     1     -12.114  11.032  67.989  1.00  0.00    -0.615 OA 
ENDBRANCH   7   8
ENDBRANCH   6   7
ENDBRANCH   3   6
TORSDOF 3
ENDMDL
MODEL      211
REMARK 921   NORMALIZED FREE ENERGY PREDICTED BY IDOCK:   -2.36 KCAL/MOL
REMARK 922        TOTAL FREE ENERGY PREDICTED BY IDOCK:   -2.88 KCAL/MOL
REMARK 923 INTER-LIGAND FREE ENERGY PREDICTED BY IDOCK:   -2.56 KCAL/MOL
REMARK 924 INTRA-LIGAND FREE ENERGY PREDICTED BY IDOCK:   -0.33 KCAL/MOL
REMARK 927      BINDING AFFINITY PREDICTED BY RF-SCORE:    0.00 PKD
ROOT
HETATM    1  C   UNL     1     -10.633  12.728  65.104  1.00  0.00    -0.324 C  
HETATM    2  C   UNL     1     -11.040  13.609  66.252  1.00  0.00    -0.301 C  
HETATM    3  N   UNL     1     -10.030  13.826  67.161  1.00  0.00    -0.239 N  
HETATM    4  O   UNL     1     -12.169  14.075  66.363  1.00  0.00    -0.442 OA 
HETATM    5  H   UNL     1      -9.118  13.399  67.002  1.00  0.00     0.000 HD 
ENDROOT
BRANCH   3   6
HETATM    6  C   UNL     1     -10.230  14.646  68.337  1.00  0.00    -0.235 C  
BRANCH   6   7
HETATM    7  C   UNL     1      -8.908  15.111  68.934  1.00  0.00    -0.205 C  
BRANCH   7   8
HETATM    8  C   UNL     1      -7.769  14.852  67.960  1.00  0.00    -0.122 C  
HETATM    9  S   UNL     1      -6.819  13.417  68.426  1.00  0.00    -0.116 S  
HETATM   10  O   UNL     1      -7.603  12.220  68.246  1.00  0.00    -0.116 OA 
HETATM   11  O   UNL     1      -6.083  13.700  69.638  1.00  0.00    -0.107 OA 
HETATM   12  O   UNL     1      -5.732  13.492  67.234  1.00  0.00    -0.346 OA 
ENDBRANCH   7   8
ENDBRANCH   6   7
ENDBRANCH   3   6
TORSDOF 3
ENDMDL
MODEL      212
REMARK 921   NORMALIZED FREE ENERGY PREDICTED BY IDOCK:   -2.36 KCAL/MOL
REMARK 922        TOTAL FREE ENERGY PREDICTED BY IDOCK:   -2.88 KCAL/MOL
REMARK 923 INTER-LIGAND FREE ENERGY PREDICTED BY IDOCK:   -2.88 KCAL/MOL
REMARK 924 INTRA-LIGAND FREE ENERGY PREDICTED BY IDOCK:    0.00 KCAL/MOL
REMARK 927      BINDING AFFINITY PREDICTED BY RF-SCORE:    0.00 PKD
ROOT
HETATM    1  C   UNL     1      -8.318  17.333  66.480  1.00  0.00    -0.312 C  
HETATM    2  C   UNL     1      -9.113  16.115  66.096  1.00  0.00    -0.347 C  
HETATM    3  N   UNL     1      -8.589  14.942  66.588  1.00  0.00    -0.411 N  
HETATM    4  O   UNL     1     -10.122  16.174  65.402  1.00  0.00    -0.485 OA 
HETATM    5  H   UNL     1      -7.742  14.975  67.154  1.00  0.00     0.000 HD 
ENDROOT
BRANCH   3   6
HETATM    6  C   UNL     1      -9.211  13.663  66.322  1.00  0.00    -0.058 C  
BRANCH   6   7
HETATM    7  C   UNL     1     -10.461  13.455  67.167  1.00  0.00    -0.249 C  
BRANCH   7   8
HETATM    8  C   UNL     1     -10.184  12.457  68.282  1.00  0.00    -0.229 C  
HETATM    9  S   UNL     1     -10.426  10.778  67.735  1.00  0.00    -0.225 S  
HETATM   10  O   UNL     1      -9.404  10.410  66.786  1.00  0.00    -0.153 OA 
HETATM   11  O   UNL     1     -11.834  10.545  67.504  1.00  0.00    -0.223 OA 
HETATM   12  O   UNL     1     -10.095  10.053  69.139  1.00  0.00    -0.185 OA 
ENDBRANCH   7   8
ENDBRANCH   6   7
ENDBRANCH   3   6
TORSDOF 3
ENDMDL
MODEL      213
REMARK 921   NORMALIZED FREE ENERGY PREDICTED BY IDOCK:   -2.34 KCAL/MOL
REMARK 922        TOTAL FREE ENERGY PREDICTED BY IDOCK:   -2.86 KCAL/MOL
REMARK 923 INTER-LIGAND FREE ENERGY PREDICTED BY IDOCK:   -2.54 KCAL/MOL
REMARK 924 INTRA-LIGAND FREE ENERGY PREDICTED BY IDOCK:   -0.32 KCAL/MOL
REMARK 927      BINDING AFFINITY PREDICTED BY RF-SCORE:    0.00 PKD
ROOT
HETATM    1  C   UNL     1     -10.453   9.542  67.671  1.00  0.00    -0.321 C  
HETATM    2  C   UNL     1     -10.642   8.795  68.962  1.00  0.00    -0.171 C  
HETATM    3  N   UNL     1     -11.082   7.503  68.789  1.00  0.00    -0.421 N  
HETATM    4  O   UNL     1     -10.432   9.303  70.059  1.00  0.00    -0.202 OA 
HETATM    5  H   UNL     1     -11.239   7.154  67.844  1.00  0.00     0.000 HD 
ENDROOT
BRANCH   3   6
HETATM    6  C   UNL     1     -11.327   6.627  69.914  1.00  0.00    -0.364 C  
BRANCH   6   7
HETATM    7  C   UNL     1     -10.526   5.335  69.809  1.00  0.00    -0.340 C  
BRANCH   7   8
HETATM    8  C   UNL     1      -9.243   5.571  69.027  1.00  0.00    -0.119 C  
HETATM    9  S   UNL     1      -9.306   4.810  67.416  1.00  0.00    -0.146 S  
HETATM   10  O   UNL     1     -10.261   5.494  66.578  1.00  0.00    -0.194 OA 
HETATM   11  O   UNL     1      -9.276   3.372  67.562  1.00  0.00    -0.161 OA 
HETATM   12  O   UNL     1      -7.823   5.225  66.932  1.00  0.00    -0.099 OA 
ENDBRANCH   7   8
ENDBRANCH   6   7
ENDBRANCH   3   6
TORSDOF 3
ENDMDL
MODEL      214
REMARK 921   NORMALIZED FREE ENERGY PREDICTED BY IDOCK:   -2.33 KCAL/MOL
REMARK 922        TOTAL FREE ENERGY PREDICTED BY IDOCK:   -2.85 KCAL/MOL
REMARK 923 INTER-LIGAND FREE ENERGY PREDICTED BY IDOCK:   -2.69 KCAL/MOL
REMARK 924 INTRA-LIGAND FREE ENERGY PREDICTED BY IDOCK:   -0.16 KCAL/MOL
REMARK 927      BINDING AFFINITY PREDICTED BY RF-SCORE:    0.00 PKD
ROOT
HETATM    1  C   UNL     1      -5.996  14.063  70.963  1.00  0.00    -0.172 C  
HETATM    2  C   UNL     1      -6.726  14.832  69.898  1.00  0.00    -0.172 C  
HETATM    3  N   UNL     1      -7.419  14.030  69.021  1.00  0.00    -0.242 N  
HETATM    4  O   UNL     1      -6.691  16.056  69.821  1.00  0.00    -0.191 OA 
HETATM    5  H   UNL     1      -7.395  13.018  69.147  1.00  0.00     0.000 HD 
ENDROOT
BRANCH   3   6
HETATM    6  C   UNL     1      -8.181  14.585  67.923  1.00  0.00    -0.153 C  
BRANCH   6   7
HETATM    7  C   UNL     1      -9.472  13.814  67.683  1.00  0.00    -0.217 C  
BRANCH   7   8
HETATM    8  C   UNL     1      -9.519  12.575  68.565  1.00  0.00    -0.097 C  
HETATM    9  S   UNL     1     -11.196  12.061  68.886  1.00  0.00    -0.280 S  
HETATM   10  O   UNL     1     -11.803  11.555  67.680  1.00  0.00    -0.595 OA 
HETATM   11  O   UNL     1     -11.841  13.031  69.744  1.00  0.00    -0.308 OA 
HETATM   12  O   UNL     1     -10.849  10.806  69.841  1.00  0.00    -0.261 OA 
ENDBRANCH   7   8
ENDBRANCH   6   7
ENDBRANCH   3   6
TORSDOF 3
ENDMDL
MODEL      215
REMARK 921   NORMALIZED FREE ENERGY PREDICTED BY IDOCK:   -2.33 KCAL/MOL
REMARK 922        TOTAL FREE ENERGY PREDICTED BY IDOCK:   -2.85 KCAL/MOL
REMARK 923 INTER-LIGAND FREE ENERGY PREDICTED BY IDOCK:   -2.37 KCAL/MOL
REMARK 924 INTRA-LIGAND FREE ENERGY PREDICTED BY IDOCK:   -0.48 KCAL/MOL
REMARK 927      BINDING AFFINITY PREDICTED BY RF-SCORE:    0.00 PKD
ROOT
HETATM    1  C   UNL     1      -6.972   5.052  69.504  1.00  0.00    -0.054 C  
HETATM    2  C   UNL     1      -8.352   5.137  68.914  1.00  0.00    -0.087 C  
HETATM    3  N   UNL     1      -8.958   6.357  69.113  1.00  0.00    -0.129 N  
HETATM    4  O   UNL     1      -8.880   4.201  68.324  1.00  0.00    -0.096 OA 
HETATM    5  H   UNL     1      -8.455   7.085  69.619  1.00  0.00     0.000 HD 
ENDROOT
BRANCH   3   6
HETATM    6  C   UNL     1     -10.291   6.631  68.621  1.00  0.00    -0.188 C  
BRANCH   6   7
HETATM    7  C   UNL     1     -11.356   6.299  69.659  1.00  0.00    -0.492 C  
BRANCH   7   8
HETATM    8  C   UNL     1     -11.200   7.193  70.880  1.00  0.00    -0.276 C  
HETATM    9  S   UNL     1     -10.755   6.253  72.329  1.00  0.00    -0.241 S  
HETATM   10  O   UNL     1      -9.413   5.739  72.199  1.00  0.00    -0.150 OA 
HETATM   11  O   UNL     1     -11.875   5.433  72.733  1.00  0.00    -0.268 OA 
HETATM   12  O   UNL     1     -10.724   7.484  73.373  1.00  0.00    -0.387 OA 
ENDBRANCH   7   8
ENDBRANCH   6   7
ENDBRANCH   3   6
TORSDOF 3
ENDMDL
MODEL      216
REMARK 921   NORMALIZED FREE ENERGY PREDICTED BY IDOCK:   -2.32 KCAL/MOL
REMARK 922        TOTAL FREE ENERGY PREDICTED BY IDOCK:   -2.84 KCAL/MOL
REMARK 923 INTER-LIGAND FREE ENERGY PREDICTED BY IDOCK:   -2.71 KCAL/MOL
REMARK 924 INTRA-LIGAND FREE ENERGY PREDICTED BY IDOCK:   -0.13 KCAL/MOL
REMARK 927      BINDING AFFINITY PREDICTED BY RF-SCORE:    0.00 PKD
ROOT
HETATM    1  C   UNL     1     -11.321   2.331  73.584  1.00  0.00    -0.318 C  
HETATM    2  C   UNL     1     -10.875   3.590  72.894  1.00  0.00    -0.044 C  
HETATM    3  N   UNL     1     -11.448   4.730  73.409  1.00  0.00    -0.402 N  
HETATM    4  O   UNL     1     -10.083   3.588  71.957  1.00  0.00    -0.167 OA 
HETATM    5  H   UNL     1     -12.102   4.649  74.187  1.00  0.00     0.000 HD 
ENDROOT
BRANCH   3   6
HETATM    6  C   UNL     1     -11.146   6.040  72.875  1.00  0.00    -0.255 C  
BRANCH   6   7
HETATM    7  C   UNL     1     -12.174   6.480  71.840  1.00  0.00    -0.373 C  
BRANCH   7   8
HETATM    8  C   UNL     1     -11.607   7.595  70.973  1.00  0.00    -0.282 C  
HETATM    9  S   UNL     1     -10.633   6.948  69.627  1.00  0.00    -0.242 S  
HETATM   10  O   UNL     1     -11.482   6.274  68.675  1.00  0.00    -0.263 OA 
HETATM   11  O   UNL     1      -9.418   6.364  70.149  1.00  0.00    -0.159 OA 
HETATM   12  O   UNL     1     -10.191   8.366  68.992  1.00  0.00    -0.199 OA 
ENDBRANCH   7   8
ENDBRANCH   6   7
ENDBRANCH   3   6
TORSDOF 3
ENDMDL
MODEL      217
REMARK 921   NORMALIZED FREE ENERGY PREDICTED BY IDOCK:   -2.31 KCAL/MOL
REMARK 922        TOTAL FREE ENERGY PREDICTED BY IDOCK:   -2.83 KCAL/MOL
REMARK 923 INTER-LIGAND FREE ENERGY PREDICTED BY IDOCK:   -2.63 KCAL/MOL
REMARK 924 INTRA-LIGAND FREE ENERGY PREDICTED BY IDOCK:   -0.20 KCAL/MOL
REMARK 927      BINDING AFFINITY PREDICTED BY RF-SCORE:    0.00 PKD
ROOT
HETATM    1  C   UNL     1      -5.981  11.432  69.844  1.00  0.00    -0.122 C  
HETATM    2  C   UNL     1      -7.362  10.840  69.789  1.00  0.00    -0.064 C  
HETATM    3  N   UNL     1      -8.140  11.359  68.780  1.00  0.00    -0.239 N  
HETATM    4  O   UNL     1      -7.749   9.986  70.580  1.00  0.00    -0.264 OA 
HETATM    5  H   UNL     1      -7.748  12.071  68.166  1.00  0.00     0.000 HD 
ENDROOT
BRANCH   3   6
HETATM    6  C   UNL     1      -9.502  10.917  68.569  1.00  0.00    -0.185 C  
BRANCH   6   7
HETATM    7  C   UNL     1     -10.481  12.084  68.572  1.00  0.00    -0.244 C  
BRANCH   7   8
HETATM    8  C   UNL     1      -9.980  13.197  67.665  1.00  0.00    -0.219 C  
HETATM    9  S   UNL     1     -10.776  13.152  66.070  1.00  0.00    -0.279 S  
HETATM   10  O   UNL     1     -12.167  13.514  66.195  1.00  0.00    -0.419 OA 
HETATM   11  O   UNL     1     -10.329  11.986  65.342  1.00  0.00    -0.248 OA 
HETATM   12  O   UNL     1      -9.988  14.398  65.411  1.00  0.00    -0.348 OA 
ENDBRANCH   7   8
ENDBRANCH   6   7
ENDBRANCH   3   6
TORSDOF 3
ENDMDL
MODEL      218
REMARK 921   NORMALIZED FREE ENERGY PREDICTED BY IDOCK:   -2.30 KCAL/MOL
REMARK 922        TOTAL FREE ENERGY PREDICTED BY IDOCK:   -2.81 KCAL/MOL
REMARK 923 INTER-LIGAND FREE ENERGY PREDICTED BY IDOCK:   -2.63 KCAL/MOL
REMARK 924 INTRA-LIGAND FREE ENERGY PREDICTED BY IDOCK:   -0.18 KCAL/MOL
REMARK 927      BINDING AFFINITY PREDICTED BY RF-SCORE:    0.00 PKD
ROOT
HETATM    1  C   UNL     1     -13.803   8.231  71.542  1.00  0.00    -0.382 C  
HETATM    2  C   UNL     1     -12.817   7.112  71.360  1.00  0.00    -0.384 C  
HETATM    3  N   UNL     1     -12.093   7.204  70.193  1.00  0.00    -0.589 N  
HETATM    4  O   UNL     1     -12.686   6.204  72.174  1.00  0.00    -0.158 OA 
HETATM    5  H   UNL     1     -12.263   7.987  69.563  1.00  0.00     0.000 HD 
ENDROOT
BRANCH   3   6
HETATM    6  C   UNL     1     -11.097   6.217  69.838  1.00  0.00    -0.410 C  
BRANCH   6   7
HETATM    7  C   UNL     1      -9.682   6.743  70.041  1.00  0.00    -0.170 C  
BRANCH   7   8
HETATM    8  C   UNL     1      -9.481   8.033  69.259  1.00  0.00    -0.155 C  
HETATM    9  S   UNL     1      -7.911   8.051  68.414  1.00  0.00    -0.124 S  
HETATM   10  O   UNL     1      -7.909   7.084  67.343  1.00  0.00    -0.108 OA 
HETATM   11  O   UNL     1      -6.843   8.151  69.384  1.00  0.00    -0.042 OA 
HETATM   12  O   UNL     1      -8.042   9.523  67.764  1.00  0.00    -0.105 OA 
ENDBRANCH   7   8
ENDBRANCH   6   7
ENDBRANCH   3   6
TORSDOF 3
ENDMDL
MODEL      219
REMARK 921   NORMALIZED FREE ENERGY PREDICTED BY IDOCK:   -2.30 KCAL/MOL
REMARK 922        TOTAL FREE ENERGY PREDICTED BY IDOCK:   -2.81 KCAL/MOL
REMARK 923 INTER-LIGAND FREE ENERGY PREDICTED BY IDOCK:   -2.68 KCAL/MOL
REMARK 924 INTRA-LIGAND FREE ENERGY PREDICTED BY IDOCK:   -0.13 KCAL/MOL
REMARK 927      BINDING AFFINITY PREDICTED BY RF-SCORE:    0.00 PKD
ROOT
HETATM    1  C   UNL     1      -6.683  13.393  67.409  1.00  0.00    -0.063 C  
HETATM    2  C   UNL     1      -7.858  12.748  68.091  1.00  0.00    -0.146 C  
HETATM    3  N   UNL     1      -9.068  13.295  67.730  1.00  0.00    -0.192 N  
HETATM    4  O   UNL     1      -7.736  11.832  68.897  1.00  0.00    -0.116 OA 
HETATM    5  H   UNL     1      -9.087  14.060  67.057  1.00  0.00     0.000 HD 
ENDROOT
BRANCH   3   6
HETATM    6  C   UNL     1     -10.315  12.810  68.283  1.00  0.00    -0.243 C  
BRANCH   6   7
HETATM    7  C   UNL     1     -11.260  13.952  68.632  1.00  0.00    -0.298 C  
BRANCH   7   8
HETATM    8  C   UNL     1     -12.225  13.523  69.727  1.00  0.00    -0.269 C  
HETATM    9  S   UNL     1     -12.454  14.809  70.941  1.00  0.00    -0.358 S  
HETATM   10  O   UNL     1     -13.177  15.917  70.365  1.00  0.00    -0.305 OA 
HETATM   11  O   UNL     1     -11.236  14.976  71.702  1.00  0.00    -0.333 OA 
HETATM   12  O   UNL     1     -13.461  14.001  71.912  1.00  0.00    -0.360 OA 
ENDBRANCH   7   8
ENDBRANCH   6   7
ENDBRANCH   3   6
TORSDOF 3
ENDMDL
MODEL      220
REMARK 921   NORMALIZED FREE ENERGY PREDICTED BY IDOCK:   -2.28 KCAL/MOL
REMARK 922        TOTAL FREE ENERGY PREDICTED BY IDOCK:   -2.79 KCAL/MOL
REMARK 923 INTER-LIGAND FREE ENERGY PREDICTED BY IDOCK:   -2.62 KCAL/MOL
REMARK 924 INTRA-LIGAND FREE ENERGY PREDICTED BY IDOCK:   -0.17 KCAL/MOL
REMARK 927      BINDING AFFINITY PREDICTED BY RF-SCORE:    0.00 PKD
ROOT
HETATM    1  C   UNL     1     -11.883  15.510  68.922  1.00  0.00    -0.357 C  
HETATM    2  C   UNL     1     -11.972  14.076  69.366  1.00  0.00    -0.343 C  
HETATM    3  N   UNL     1     -11.874  13.175  68.330  1.00  0.00    -0.350 N  
HETATM    4  O   UNL     1     -12.127  13.754  70.539  1.00  0.00    -0.330 OA 
HETATM    5  H   UNL     1     -11.751  13.522  67.380  1.00  0.00     0.000 HD 
ENDROOT
BRANCH   3   6
HETATM    6  C   UNL     1     -11.942  11.748  68.558  1.00  0.00    -0.215 C  
BRANCH   6   7
HETATM    7  C   UNL     1     -10.796  11.011  67.875  1.00  0.00    -0.285 C  
BRANCH   7   8
HETATM    8  C   UNL     1      -9.459  11.581  68.325  1.00  0.00    -0.189 C  
HETATM    9  S   UNL     1      -8.327  10.291  68.810  1.00  0.00    -0.133 S  
HETATM   10  O   UNL     1      -7.919   9.526  67.657  1.00  0.00    -0.105 OA 
HETATM   11  O   UNL     1      -8.790   9.681  70.036  1.00  0.00    -0.202 OA 
HETATM   12  O   UNL     1      -7.099  11.247  69.241  1.00  0.00    -0.113 OA 
ENDBRANCH   7   8
ENDBRANCH   6   7
ENDBRANCH   3   6
TORSDOF 3
ENDMDL
MODEL      221
REMARK 921   NORMALIZED FREE ENERGY PREDICTED BY IDOCK:   -2.28 KCAL/MOL
REMARK 922        TOTAL FREE ENERGY PREDICTED BY IDOCK:   -2.79 KCAL/MOL
REMARK 923 INTER-LIGAND FREE ENERGY PREDICTED BY IDOCK:   -3.04 KCAL/MOL
REMARK 924 INTRA-LIGAND FREE ENERGY PREDICTED BY IDOCK:    0.25 KCAL/MOL
REMARK 927      BINDING AFFINITY PREDICTED BY RF-SCORE:    0.00 PKD
ROOT
HETATM    1  C   UNL     1     -10.846  11.518  67.009  1.00  0.00    -0.320 C  
HETATM    2  C   UNL     1     -11.415  10.948  68.279  1.00  0.00    -0.305 C  
HETATM    3  N   UNL     1     -10.565  10.073  68.916  1.00  0.00    -0.209 N  
HETATM    4  O   UNL     1     -12.534  11.234  68.691  1.00  0.00    -0.442 OA 
HETATM    5  H   UNL     1      -9.651   9.881  68.507  1.00  0.00     0.000 HD 
ENDROOT
BRANCH   3   6
HETATM    6  C   UNL     1     -10.936   9.418  70.152  1.00  0.00    -0.246 C  
BRANCH   6   7
HETATM    7  C   UNL     1      -9.714   9.034  70.977  1.00  0.00    -0.348 C  
BRANCH   7   8
HETATM    8  C   UNL     1      -9.992   7.768  71.773  1.00  0.00    -0.175 C  
HETATM    9  S   UNL     1     -10.430   6.405  70.709  1.00  0.00    -0.232 S  
HETATM   10  O   UNL     1      -9.286   5.990  69.934  1.00  0.00    -0.145 OA 
HETATM   11  O   UNL     1     -11.729   6.650  70.124  1.00  0.00    -0.394 OA 
HETATM   12  O   UNL     1     -10.679   5.309  71.868  1.00  0.00    -0.225 OA 
ENDBRANCH   7   8
ENDBRANCH   6   7
ENDBRANCH   3   6
TORSDOF 3
ENDMDL
MODEL      222
REMARK 921   NORMALIZED FREE ENERGY PREDICTED BY IDOCK:   -2.27 KCAL/MOL
REMARK 922        TOTAL FREE ENERGY PREDICTED BY IDOCK:   -2.78 KCAL/MOL
REMARK 923 INTER-LIGAND FREE ENERGY PREDICTED BY IDOCK:   -2.59 KCAL/MOL
REMARK 924 INTRA-LIGAND FREE ENERGY PREDICTED BY IDOCK:   -0.18 KCAL/MOL
REMARK 927      BINDING AFFINITY PREDICTED BY RF-SCORE:    0.00 PKD
ROOT
HETATM    1  C   UNL     1      -9.303   4.428  69.345  1.00  0.00    -0.225 C  
HETATM    2  C   UNL     1      -8.910   5.878  69.283  1.00  0.00    -0.118 C  
HETATM    3  N   UNL     1      -9.872   6.728  69.777  1.00  0.00    -0.166 N  
HETATM    4  O   UNL     1      -7.836   6.254  68.825  1.00  0.00    -0.099 OA 
HETATM    5  H   UNL     1     -10.742   6.339  70.137  1.00  0.00     0.000 HD 
ENDROOT
BRANCH   3   6
HETATM    6  C   UNL     1      -9.679   8.162  69.800  1.00  0.00    -0.173 C  
BRANCH   6   7
HETATM    7  C   UNL     1     -10.282   8.834  68.573  1.00  0.00    -0.220 C  
BRANCH   7   8
HETATM    8  C   UNL     1      -9.912  10.309  68.542  1.00  0.00    -0.164 C  
HETATM    9  S   UNL     1     -11.307  11.344  68.945  1.00  0.00    -0.301 S  
HETATM   10  O   UNL     1     -11.662  11.185  70.334  1.00  0.00    -0.316 OA 
HETATM   11  O   UNL     1     -12.276  11.284  67.873  1.00  0.00    -0.570 OA 
HETATM   12  O   UNL     1     -10.564  12.768  68.774  1.00  0.00    -0.240 OA 
ENDBRANCH   7   8
ENDBRANCH   6   7
ENDBRANCH   3   6
TORSDOF 3
ENDMDL
MODEL      223
REMARK 921   NORMALIZED FREE ENERGY PREDICTED BY IDOCK:   -2.26 KCAL/MOL
REMARK 922        TOTAL FREE ENERGY PREDICTED BY IDOCK:   -2.77 KCAL/MOL
REMARK 923 INTER-LIGAND FREE ENERGY PREDICTED BY IDOCK:   -2.37 KCAL/MOL
REMARK 924 INTRA-LIGAND FREE ENERGY PREDICTED BY IDOCK:   -0.40 KCAL/MOL
REMARK 927      BINDING AFFINITY PREDICTED BY RF-SCORE:    0.00 PKD
ROOT
HETATM    1  C   UNL     1     -12.257  15.489  69.218  1.00  0.00    -0.209 C  
HETATM    2  C   UNL     1     -10.899  15.464  69.862  1.00  0.00    -0.293 C  
HETATM    3  N   UNL     1      -9.863  15.463  68.956  1.00  0.00    -0.221 N  
HETATM    4  O   UNL     1     -10.742  15.437  71.078  1.00  0.00    -0.272 OA 
HETATM    5  H   UNL     1     -10.075  15.482  67.959  1.00  0.00     0.000 HD 
ENDROOT
BRANCH   3   6
HETATM    6  C   UNL     1      -8.481  15.437  69.383  1.00  0.00    -0.253 C  
BRANCH   6   7
HETATM    7  C   UNL     1      -7.629  14.545  68.489  1.00  0.00    -0.123 C  
BRANCH   7   8
HETATM    8  C   UNL     1      -8.398  14.170  67.231  1.00  0.00    -0.196 C  
HETATM    9  S   UNL     1      -8.988  12.488  67.301  1.00  0.00    -0.200 S  
HETATM   10  O   UNL     1     -10.024  12.363  68.297  1.00  0.00    -0.216 OA 
HETATM   11  O   UNL     1      -7.866  11.581  67.215  1.00  0.00    -0.137 OA 
HETATM   12  O   UNL     1      -9.683  12.453  65.844  1.00  0.00    -0.252 OA 
ENDBRANCH   7   8
ENDBRANCH   6   7
ENDBRANCH   3   6
TORSDOF 3
ENDMDL
MODEL      224
REMARK 921   NORMALIZED FREE ENERGY PREDICTED BY IDOCK:   -2.24 KCAL/MOL
REMARK 922        TOTAL FREE ENERGY PREDICTED BY IDOCK:   -2.74 KCAL/MOL
REMARK 923 INTER-LIGAND FREE ENERGY PREDICTED BY IDOCK:   -2.55 KCAL/MOL
REMARK 924 INTRA-LIGAND FREE ENERGY PREDICTED BY IDOCK:   -0.19 KCAL/MOL
REMARK 927      BINDING AFFINITY PREDICTED BY RF-SCORE:    0.00 PKD
ROOT
HETATM    1  C   UNL     1      -5.569  15.656  70.331  1.00  0.00    -0.145 C  
HETATM    2  C   UNL     1      -6.397  15.275  69.135  1.00  0.00    -0.118 C  
HETATM    3  N   UNL     1      -7.350  16.212  68.808  1.00  0.00    -0.172 N  
HETATM    4  O   UNL     1      -6.236  14.223  68.525  1.00  0.00    -0.079 OA 
HETATM    5  H   UNL     1      -7.426  17.060  69.367  1.00  0.00     0.000 HD 
ENDROOT
BRANCH   3   6
HETATM    6  C   UNL     1      -8.248  16.023  67.689  1.00  0.00    -0.148 C  
BRANCH   6   7
HETATM    7  C   UNL     1      -9.431  15.138  68.056  1.00  0.00    -0.199 C  
BRANCH   7   8
HETATM    8  C   UNL     1      -9.636  14.064  66.998  1.00  0.00    -0.253 C  
HETATM    9  S   UNL     1     -11.058  14.409  65.979  1.00  0.00    -0.330 S  
HETATM   10  O   UNL     1     -10.808  15.561  65.147  1.00  0.00    -0.386 OA 
HETATM   11  O   UNL     1     -12.262  14.251  66.764  1.00  0.00    -0.441 OA 
HETATM   12  O   UNL     1     -10.973  13.090  65.051  1.00  0.00    -0.284 OA 
ENDBRANCH   7   8
ENDBRANCH   6   7
ENDBRANCH   3   6
TORSDOF 3
ENDMDL
MODEL      225
REMARK 921   NORMALIZED FREE ENERGY PREDICTED BY IDOCK:   -2.22 KCAL/MOL
REMARK 922        TOTAL FREE ENERGY PREDICTED BY IDOCK:   -2.72 KCAL/MOL
REMARK 923 INTER-LIGAND FREE ENERGY PREDICTED BY IDOCK:   -2.36 KCAL/MOL
REMARK 924 INTRA-LIGAND FREE ENERGY PREDICTED BY IDOCK:   -0.36 KCAL/MOL
REMARK 927      BINDING AFFINITY PREDICTED BY RF-SCORE:    0.00 PKD
ROOT
HETATM    1  C   UNL     1      -6.848  12.841  67.647  1.00  0.00    -0.147 C  
HETATM    2  C   UNL     1      -8.289  12.416  67.588  1.00  0.00    -0.169 C  
HETATM    3  N   UNL     1      -8.930  12.812  66.436  1.00  0.00    -0.429 N  
HETATM    4  O   UNL     1      -8.833  11.788  68.490  1.00  0.00    -0.169 OA 
HETATM    5  H   UNL     1      -8.410  13.337  65.734  1.00  0.00     0.000 HD 
ENDROOT
BRANCH   3   6
HETATM    6  C   UNL     1     -10.322  12.500  66.197  1.00  0.00    -0.253 C  
BRANCH   6   7
HETATM    7  C   UNL     1     -10.490  11.477  65.081  1.00  0.00    -0.340 C  
BRANCH   7   8
HETATM    8  C   UNL     1     -10.245  10.072  65.612  1.00  0.00    -0.188 C  
HETATM    9  S   UNL     1      -8.708   9.401  65.007  1.00  0.00    -0.196 S  
HETATM   10  O   UNL     1      -7.592  10.106  65.588  1.00  0.00    -0.130 OA 
HETATM   11  O   UNL     1      -8.822   9.141  63.589  1.00  0.00    -0.178 OA 
HETATM   12  O   UNL     1      -8.819   7.956  65.720  1.00  0.00    -0.163 OA 
ENDBRANCH   7   8
ENDBRANCH   6   7
ENDBRANCH   3   6
TORSDOF 3
ENDMDL
MODEL      226
REMARK 921   NORMALIZED FREE ENERGY PREDICTED BY IDOCK:   -2.21 KCAL/MOL
REMARK 922        TOTAL FREE ENERGY PREDICTED BY IDOCK:   -2.71 KCAL/MOL
REMARK 923 INTER-LIGAND FREE ENERGY PREDICTED BY IDOCK:   -2.50 KCAL/MOL
REMARK 924 INTRA-LIGAND FREE ENERGY PREDICTED BY IDOCK:   -0.21 KCAL/MOL
REMARK 927      BINDING AFFINITY PREDICTED BY RF-SCORE:    0.00 PKD
ROOT
HETATM    1  C   UNL     1      -8.453   5.291  70.088  1.00  0.00    -0.109 C  
HETATM    2  C   UNL     1      -8.430   6.794  70.091  1.00  0.00    -0.139 C  
HETATM    3  N   UNL     1      -9.373   7.355  70.922  1.00  0.00    -0.155 N  
HETATM    4  O   UNL     1      -7.649   7.446  69.406  1.00  0.00    -0.092 OA 
HETATM    5  H   UNL     1      -9.991   6.745  71.456  1.00  0.00     0.000 HD 
ENDROOT
BRANCH   3   6
HETATM    6  C   UNL     1      -9.509   8.789  71.056  1.00  0.00    -0.228 C  
BRANCH   6   7
HETATM    7  C   UNL     1     -10.756   9.308  70.353  1.00  0.00    -0.300 C  
BRANCH   7   8
HETATM    8  C   UNL     1     -11.788   9.763  71.374  1.00  0.00    -0.408 C  
HETATM    9  S   UNL     1     -12.644   8.379  72.104  1.00  0.00    -0.359 S  
HETATM   10  O   UNL     1     -11.747   7.625  72.945  1.00  0.00    -0.280 OA 
HETATM   11  O   UNL     1     -13.496   7.763  71.111  1.00  0.00    -0.210 OA 
HETATM   12  O   UNL     1     -13.635   9.227  73.056  1.00  0.00    -0.215 OA 
ENDBRANCH   7   8
ENDBRANCH   6   7
ENDBRANCH   3   6
TORSDOF 3
ENDMDL
MODEL      227
REMARK 921   NORMALIZED FREE ENERGY PREDICTED BY IDOCK:   -2.21 KCAL/MOL
REMARK 922        TOTAL FREE ENERGY PREDICTED BY IDOCK:   -2.71 KCAL/MOL
REMARK 923 INTER-LIGAND FREE ENERGY PREDICTED BY IDOCK:   -2.47 KCAL/MOL
REMARK 924 INTRA-LIGAND FREE ENERGY PREDICTED BY IDOCK:   -0.24 KCAL/MOL
REMARK 927      BINDING AFFINITY PREDICTED BY RF-SCORE:    0.00 PKD
ROOT
HETATM    1  C   UNL     1     -12.759  11.277  71.094  1.00  0.00    -0.492 C  
HETATM    2  C   UNL     1     -11.658  10.288  70.831  1.00  0.00    -0.365 C  
HETATM    3  N   UNL     1     -11.605   9.269  71.755  1.00  0.00    -0.385 N  
HETATM    4  O   UNL     1     -10.882  10.394  69.887  1.00  0.00    -0.268 OA 
HETATM    5  H   UNL     1     -12.283   9.252  72.515  1.00  0.00     0.000 HD 
ENDROOT
BRANCH   3   6
HETATM    6  C   UNL     1     -10.611   8.221  71.673  1.00  0.00    -0.242 C  
BRANCH   6   7
HETATM    7  C   UNL     1      -9.350   8.575  72.451  1.00  0.00    -0.349 C  
BRANCH   7   8
HETATM    8  C   UNL     1      -8.178   8.765  71.499  1.00  0.00    -0.135 C  
HETATM    9  S   UNL     1      -7.029   7.405  71.596  1.00  0.00    -0.059 S  
HETATM   10  O   UNL     1      -7.624   6.208  71.054  1.00  0.00    -0.092 OA 
HETATM   11  O   UNL     1      -6.351   7.438  72.872  1.00  0.00    -0.058 OA 
HETATM   12  O   UNL     1      -5.957   7.964  70.524  1.00  0.00    -0.030 OA 
ENDBRANCH   7   8
ENDBRANCH   6   7
ENDBRANCH   3   6
TORSDOF 3
ENDMDL
MODEL      228
REMARK 921   NORMALIZED FREE ENERGY PREDICTED BY IDOCK:   -2.21 KCAL/MOL
REMARK 922        TOTAL FREE ENERGY PREDICTED BY IDOCK:   -2.70 KCAL/MOL
REMARK 923 INTER-LIGAND FREE ENERGY PREDICTED BY IDOCK:   -2.45 KCAL/MOL
REMARK 924 INTRA-LIGAND FREE ENERGY PREDICTED BY IDOCK:   -0.26 KCAL/MOL
REMARK 927      BINDING AFFINITY PREDICTED BY RF-SCORE:    0.00 PKD
ROOT
HETATM    1  C   UNL     1      -8.232   9.377  69.592  1.00  0.00    -0.136 C  
HETATM    2  C   UNL     1      -9.052   9.000  70.794  1.00  0.00    -0.245 C  
HETATM    3  N   UNL     1     -10.289   8.489  70.475  1.00  0.00    -0.196 N  
HETATM    4  O   UNL     1      -8.650   9.149  71.944  1.00  0.00    -0.332 OA 
HETATM    5  H   UNL     1     -10.553   8.401  69.495  1.00  0.00     0.000 HD 
ENDROOT
BRANCH   3   6
HETATM    6  C   UNL     1     -11.225   8.073  71.498  1.00  0.00    -0.255 C  
BRANCH   6   7
HETATM    7  C   UNL     1     -11.740   6.660  71.253  1.00  0.00    -0.386 C  
BRANCH   7   8
HETATM    8  C   UNL     1     -11.335   5.745  72.399  1.00  0.00    -0.294 C  
HETATM    9  S   UNL     1      -9.790   4.920  72.066  1.00  0.00    -0.183 S  
HETATM   10  O   UNL     1      -8.703   5.869  72.084  1.00  0.00    -0.135 OA 
HETATM   11  O   UNL     1      -9.976   3.959  71.002  1.00  0.00    -0.173 OA 
HETATM   12  O   UNL     1      -9.722   4.051  73.425  1.00  0.00    -0.113 OA 
ENDBRANCH   7   8
ENDBRANCH   6   7
ENDBRANCH   3   6
TORSDOF 3
ENDMDL
MODEL      229
REMARK 921   NORMALIZED FREE ENERGY PREDICTED BY IDOCK:   -2.20 KCAL/MOL
REMARK 922        TOTAL FREE ENERGY PREDICTED BY IDOCK:   -2.70 KCAL/MOL
REMARK 923 INTER-LIGAND FREE ENERGY PREDICTED BY IDOCK:   -2.57 KCAL/MOL
REMARK 924 INTRA-LIGAND FREE ENERGY PREDICTED BY IDOCK:   -0.12 KCAL/MOL
REMARK 927      BINDING AFFINITY PREDICTED BY RF-SCORE:    0.00 PKD
ROOT
HETATM    1  C   UNL     1      -7.466  10.274  67.312  1.00  0.00    -0.094 C  
HETATM    2  C   UNL     1      -8.722  10.470  68.115  1.00  0.00    -0.130 C  
HETATM    3  N   UNL     1      -9.217  11.752  68.054  1.00  0.00    -0.174 N  
HETATM    4  O   UNL     1      -9.240   9.568  68.766  1.00  0.00    -0.136 OA 
HETATM    5  H   UNL     1      -8.726  12.448  67.495  1.00  0.00     0.000 HD 
ENDROOT
BRANCH   3   6
HETATM    6  C   UNL     1     -10.418  12.137  68.764  1.00  0.00    -0.176 C  
BRANCH   6   7
HETATM    7  C   UNL     1     -10.866  13.546  68.397  1.00  0.00    -0.286 C  
BRANCH   7   8
HETATM    8  C   UNL     1     -12.115  13.924  69.180  1.00  0.00    -0.338 C  
HETATM    9  S   UNL     1     -11.935  15.510  69.974  1.00  0.00    -0.367 S  
HETATM   10  O   UNL     1     -11.907  16.562  68.988  1.00  0.00    -0.097 OA 
HETATM   11  O   UNL     1     -10.966  15.406  71.042  1.00  0.00    -0.342 OA 
HETATM   12  O   UNL     1     -13.376  15.540  70.703  1.00  0.00    -0.432 OA 
ENDBRANCH   7   8
ENDBRANCH   6   7
ENDBRANCH   3   6
TORSDOF 3
ENDMDL
MODEL      230
REMARK 921   NORMALIZED FREE ENERGY PREDICTED BY IDOCK:   -2.20 KCAL/MOL
REMARK 922        TOTAL FREE ENERGY PREDICTED BY IDOCK:   -2.69 KCAL/MOL
REMARK 923 INTER-LIGAND FREE ENERGY PREDICTED BY IDOCK:   -2.61 KCAL/MOL
REMARK 924 INTRA-LIGAND FREE ENERGY PREDICTED BY IDOCK:   -0.08 KCAL/MOL
REMARK 927      BINDING AFFINITY PREDICTED BY RF-SCORE:    0.00 PKD
ROOT
HETATM    1  C   UNL     1      -7.384   8.006  63.452  1.00  0.00    -0.107 C  
HETATM    2  C   UNL     1      -7.829   9.402  63.788  1.00  0.00    -0.132 C  
HETATM    3  N   UNL     1      -8.890   9.837  63.027  1.00  0.00    -0.230 N  
HETATM    4  O   UNL     1      -7.285  10.082  64.652  1.00  0.00    -0.133 OA 
HETATM    5  H   UNL     1      -9.285   9.214  62.324  1.00  0.00     0.000 HD 
ENDROOT
BRANCH   3   6
HETATM    6  C   UNL     1      -9.458  11.156  63.201  1.00  0.00    -0.357 C  
BRANCH   6   7
HETATM    7  C   UNL     1     -10.740  11.116  64.023  1.00  0.00    -0.409 C  
BRANCH   7   8
HETATM    8  C   UNL     1     -10.807  12.317  64.955  1.00  0.00    -0.302 C  
HETATM    9  S   UNL     1     -10.238  11.907  66.595  1.00  0.00    -0.213 S  
HETATM   10  O   UNL     1      -8.818  11.655  66.582  1.00  0.00    -0.178 OA 
HETATM   11  O   UNL     1     -11.189  11.019  67.226  1.00  0.00    -0.308 OA 
HETATM   12  O   UNL     1     -10.488  13.354  67.268  1.00  0.00    -0.246 OA 
ENDBRANCH   7   8
ENDBRANCH   6   7
ENDBRANCH   3   6
TORSDOF 3
ENDMDL
MODEL      231
REMARK 921   NORMALIZED FREE ENERGY PREDICTED BY IDOCK:   -2.18 KCAL/MOL
REMARK 922        TOTAL FREE ENERGY PREDICTED BY IDOCK:   -2.67 KCAL/MOL
REMARK 923 INTER-LIGAND FREE ENERGY PREDICTED BY IDOCK:   -2.57 KCAL/MOL
REMARK 924 INTRA-LIGAND FREE ENERGY PREDICTED BY IDOCK:   -0.11 KCAL/MOL
REMARK 927      BINDING AFFINITY PREDICTED BY RF-SCORE:    0.00 PKD
ROOT
HETATM    1  C   UNL     1     -13.035  13.848  71.716  1.00  0.00    -0.442 C  
HETATM    2  C   UNL     1     -12.023  14.956  71.622  1.00  0.00    -0.363 C  
HETATM    3  N   UNL     1     -11.110  14.779  70.608  1.00  0.00    -0.497 N  
HETATM    4  O   UNL     1     -12.015  15.914  72.388  1.00  0.00    -0.427 OA 
HETATM    5  H   UNL     1     -11.180  13.952  70.016  1.00  0.00     0.000 HD 
ENDROOT
BRANCH   3   6
HETATM    6  C   UNL     1     -10.055  15.738  70.361  1.00  0.00     0.203 C  
BRANCH   6   7
HETATM    7  C   UNL     1      -9.367  15.490  69.024  1.00  0.00    -0.235 C  
BRANCH   7   8
HETATM    8  C   UNL     1      -8.010  16.177  68.993  1.00  0.00    -0.236 C  
HETATM    9  S   UNL     1      -7.423  16.395  67.324  1.00  0.00    -0.189 S  
HETATM   10  O   UNL     1      -8.233  17.369  66.633  1.00  0.00    -0.223 OA 
HETATM   11  O   UNL     1      -7.090  15.107  66.758  1.00  0.00    -0.039 OA 
HETATM   12  O   UNL     1      -6.009  17.084  67.690  1.00  0.00    -0.118 OA 
ENDBRANCH   7   8
ENDBRANCH   6   7
ENDBRANCH   3   6
TORSDOF 3
ENDMDL
MODEL      232
REMARK 921   NORMALIZED FREE ENERGY PREDICTED BY IDOCK:   -2.17 KCAL/MOL
REMARK 922        TOTAL FREE ENERGY PREDICTED BY IDOCK:   -2.66 KCAL/MOL
REMARK 923 INTER-LIGAND FREE ENERGY PREDICTED BY IDOCK:   -2.49 KCAL/MOL
REMARK 924 INTRA-LIGAND FREE ENERGY PREDICTED BY IDOCK:   -0.17 KCAL/MOL
REMARK 927      BINDING AFFINITY PREDICTED BY RF-SCORE:    0.00 PKD
ROOT
HETATM    1  C   UNL     1      -8.331   4.539  64.186  1.00  0.00    -0.115 C  
HETATM    2  C   UNL     1      -9.356   4.473  65.284  1.00  0.00    -0.160 C  
HETATM    3  N   UNL     1      -9.671   5.703  65.813  1.00  0.00    -0.365 N  
HETATM    4  O   UNL     1      -9.848   3.417  65.669  1.00  0.00    -0.075 OA 
HETATM    5  H   UNL     1      -9.215   6.535  65.443  1.00  0.00     0.000 HD 
ENDROOT
BRANCH   3   6
HETATM    6  C   UNL     1     -10.635   5.844  66.883  1.00  0.00    -0.315 C  
BRANCH   6   7
HETATM    7  C   UNL     1      -9.974   5.773  68.253  1.00  0.00    -0.185 C  
BRANCH   7   8
HETATM    8  C   UNL     1     -10.968   6.155  69.340  1.00  0.00    -0.385 C  
HETATM    9  S   UNL     1     -10.502   7.673  70.151  1.00  0.00    -0.231 S  
HETATM   10  O   UNL     1     -10.650   8.788  69.247  1.00  0.00    -0.225 OA 
HETATM   11  O   UNL     1      -9.310   7.452  70.938  1.00  0.00    -0.155 OA 
HETATM   12  O   UNL     1     -11.717   7.721  71.213  1.00  0.00    -0.278 OA 
ENDBRANCH   7   8
ENDBRANCH   6   7
ENDBRANCH   3   6
TORSDOF 3
ENDMDL
MODEL      233
REMARK 921   NORMALIZED FREE ENERGY PREDICTED BY IDOCK:   -2.17 KCAL/MOL
REMARK 922        TOTAL FREE ENERGY PREDICTED BY IDOCK:   -2.66 KCAL/MOL
REMARK 923 INTER-LIGAND FREE ENERGY PREDICTED BY IDOCK:   -2.37 KCAL/MOL
REMARK 924 INTRA-LIGAND FREE ENERGY PREDICTED BY IDOCK:   -0.28 KCAL/MOL
REMARK 927      BINDING AFFINITY PREDICTED BY RF-SCORE:    0.00 PKD
ROOT
HETATM    1  C   UNL     1     -10.265   6.849  67.581  1.00  0.00    -0.235 C  
HETATM    2  C   UNL     1     -10.619   6.087  68.828  1.00  0.00    -0.282 C  
HETATM    3  N   UNL     1      -9.727   5.083  69.129  1.00  0.00    -0.158 N  
HETATM    4  O   UNL     1     -11.615   6.338  69.498  1.00  0.00    -0.423 OA 
HETATM    5  H   UNL     1      -8.925   4.932  68.519  1.00  0.00     0.000 HD 
ENDROOT
BRANCH   3   6
HETATM    6  C   UNL     1      -9.901   4.236  70.289  1.00  0.00    -0.193 C  
BRANCH   6   7
HETATM    7  C   UNL     1      -8.901   4.571  71.388  1.00  0.00    -0.153 C  
BRANCH   7   8
HETATM    8  C   UNL     1      -9.630   4.930  72.674  1.00  0.00    -0.138 C  
HETATM    9  S   UNL     1      -9.445   6.658  73.074  1.00  0.00    -0.144 S  
HETATM   10  O   UNL     1     -10.163   7.470  72.122  1.00  0.00    -0.187 OA 
HETATM   11  O   UNL     1      -8.075   6.919  73.455  1.00  0.00    -0.100 OA 
HETATM   12  O   UNL     1     -10.281   6.642  74.455  1.00  0.00    -0.360 OA 
ENDBRANCH   7   8
ENDBRANCH   6   7
ENDBRANCH   3   6
TORSDOF 3
ENDMDL
MODEL      234
REMARK 921   NORMALIZED FREE ENERGY PREDICTED BY IDOCK:   -2.14 KCAL/MOL
REMARK 922        TOTAL FREE ENERGY PREDICTED BY IDOCK:   -2.62 KCAL/MOL
REMARK 923 INTER-LIGAND FREE ENERGY PREDICTED BY IDOCK:   -2.15 KCAL/MOL
REMARK 924 INTRA-LIGAND FREE ENERGY PREDICTED BY IDOCK:   -0.48 KCAL/MOL
REMARK 927      BINDING AFFINITY PREDICTED BY RF-SCORE:    0.00 PKD
ROOT
HETATM    1  C   UNL     1      -8.897   7.689  66.516  1.00  0.00    -0.167 C  
HETATM    2  C   UNL     1      -8.942   6.552  67.499  1.00  0.00    -0.110 C  
HETATM    3  N   UNL     1      -8.285   6.820  68.678  1.00  0.00    -0.120 N  
HETATM    4  O   UNL     1      -9.505   5.489  67.258  1.00  0.00    -0.113 OA 
HETATM    5  H   UNL     1      -7.836   7.727  68.801  1.00  0.00     0.000 HD 
ENDROOT
BRANCH   3   6
HETATM    6  C   UNL     1      -8.215   5.847  69.746  1.00  0.00    -0.113 C  
BRANCH   6   7
HETATM    7  C   UNL     1      -8.725   6.416  71.064  1.00  0.00    -0.135 C  
BRANCH   7   8
HETATM    8  C   UNL     1     -10.234   6.248  71.163  1.00  0.00    -0.198 C  
HETATM    9  S   UNL     1     -11.078   7.814  71.041  1.00  0.00    -0.261 S  
HETATM   10  O   UNL     1     -10.954   8.345  69.706  1.00  0.00    -0.221 OA 
HETATM   11  O   UNL     1     -10.812   8.597  72.227  1.00  0.00    -0.354 OA 
HETATM   12  O   UNL     1     -12.581   7.253  71.223  1.00  0.00    -0.355 OA 
ENDBRANCH   7   8
ENDBRANCH   6   7
ENDBRANCH   3   6
TORSDOF 3
ENDMDL
MODEL      235
REMARK 921   NORMALIZED FREE ENERGY PREDICTED BY IDOCK:   -2.13 KCAL/MOL
REMARK 922        TOTAL FREE ENERGY PREDICTED BY IDOCK:   -2.62 KCAL/MOL
REMARK 923 INTER-LIGAND FREE ENERGY PREDICTED BY IDOCK:   -2.41 KCAL/MOL
REMARK 924 INTRA-LIGAND FREE ENERGY PREDICTED BY IDOCK:   -0.21 KCAL/MOL
REMARK 927      BINDING AFFINITY PREDICTED BY RF-SCORE:    0.00 PKD
ROOT
HETATM    1  C   UNL     1     -10.118   7.495  73.462  1.00  0.00    -0.378 C  
HETATM    2  C   UNL     1     -10.946   8.243  72.455  1.00  0.00    -0.368 C  
HETATM    3  N   UNL     1     -10.224   8.682  71.369  1.00  0.00    -0.230 N  
HETATM    4  O   UNL     1     -12.147   8.445  72.602  1.00  0.00    -0.390 OA 
HETATM    5  H   UNL     1      -9.226   8.479  71.321  1.00  0.00     0.000 HD 
ENDROOT
BRANCH   3   6
HETATM    6  C   UNL     1     -10.845   9.425  70.294  1.00  0.00    -0.258 C  
BRANCH   6   7
HETATM    7  C   UNL     1      -9.823  10.220  69.491  1.00  0.00    -0.244 C  
BRANCH   7   8
HETATM    8  C   UNL     1      -8.420   9.696  69.757  1.00  0.00    -0.190 C  
HETATM    9  S   UNL     1      -7.698   8.979  68.293  1.00  0.00    -0.096 S  
HETATM   10  O   UNL     1      -7.422  10.006  67.318  1.00  0.00    -0.090 OA 
HETATM   11  O   UNL     1      -8.390   7.752  67.967  1.00  0.00    -0.122 OA 
HETATM   12  O   UNL     1      -6.298   8.522  68.955  1.00  0.00    -0.043 OA 
ENDBRANCH   7   8
ENDBRANCH   6   7
ENDBRANCH   3   6
TORSDOF 3
ENDMDL
MODEL      236
REMARK 921   NORMALIZED FREE ENERGY PREDICTED BY IDOCK:   -2.13 KCAL/MOL
REMARK 922        TOTAL FREE ENERGY PREDICTED BY IDOCK:   -2.61 KCAL/MOL
REMARK 923 INTER-LIGAND FREE ENERGY PREDICTED BY IDOCK:   -2.26 KCAL/MOL
REMARK 924 INTRA-LIGAND FREE ENERGY PREDICTED BY IDOCK:   -0.35 KCAL/MOL
REMARK 927      BINDING AFFINITY PREDICTED BY RF-SCORE:    0.00 PKD
ROOT
HETATM    1  C   UNL     1      -9.935   8.748  66.619  1.00  0.00    -0.355 C  
HETATM    2  C   UNL     1      -8.640   9.378  67.050  1.00  0.00    -0.128 C  
HETATM    3  N   UNL     1      -8.749  10.722  67.326  1.00  0.00    -0.130 N  
HETATM    4  O   UNL     1      -7.591   8.747  67.132  1.00  0.00    -0.087 OA 
HETATM    5  H   UNL     1      -9.655  11.177  67.228  1.00  0.00     0.000 HD 
ENDROOT
BRANCH   3   6
HETATM    6  C   UNL     1      -7.608  11.504  67.751  1.00  0.00    -0.111 C  
BRANCH   6   7
HETATM    7  C   UNL     1      -7.960  12.977  67.910  1.00  0.00    -0.157 C  
BRANCH   7   8
HETATM    8  C   UNL     1      -9.133  13.340  67.012  1.00  0.00    -0.232 C  
HETATM    9  S   UNL     1     -10.602  13.692  67.960  1.00  0.00    -0.255 S  
HETATM   10  O   UNL     1     -10.437  14.922  68.696  1.00  0.00    -0.229 OA 
HETATM   11  O   UNL     1     -11.088  12.472  68.565  1.00  0.00    -0.232 OA 
HETATM   12  O   UNL     1     -11.589  13.978  66.715  1.00  0.00    -0.348 OA 
ENDBRANCH   7   8
ENDBRANCH   6   7
ENDBRANCH   3   6
TORSDOF 3
ENDMDL
MODEL      237
REMARK 921   NORMALIZED FREE ENERGY PREDICTED BY IDOCK:   -2.13 KCAL/MOL
REMARK 922        TOTAL FREE ENERGY PREDICTED BY IDOCK:   -2.61 KCAL/MOL
REMARK 923 INTER-LIGAND FREE ENERGY PREDICTED BY IDOCK:   -2.52 KCAL/MOL
REMARK 924 INTRA-LIGAND FREE ENERGY PREDICTED BY IDOCK:   -0.09 KCAL/MOL
REMARK 927      BINDING AFFINITY PREDICTED BY RF-SCORE:    0.00 PKD
ROOT
HETATM    1  C   UNL     1      -5.886  13.931  70.880  1.00  0.00    -0.199 C  
HETATM    2  C   UNL     1      -6.277  14.284  69.471  1.00  0.00    -0.122 C  
HETATM    3  N   UNL     1      -7.350  13.561  69.004  1.00  0.00    -0.267 N  
HETATM    4  O   UNL     1      -5.683  15.129  68.810  1.00  0.00    -0.087 OA 
HETATM    5  H   UNL     1      -7.789  12.871  69.613  1.00  0.00     0.000 HD 
ENDROOT
BRANCH   3   6
HETATM    6  C   UNL     1      -7.873  13.755  67.668  1.00  0.00    -0.178 C  
BRANCH   6   7
HETATM    7  C   UNL     1      -9.318  14.236  67.691  1.00  0.00    -0.201 C  
BRANCH   7   8
HETATM    8  C   UNL     1      -9.683  14.746  69.076  1.00  0.00    -0.190 C  
HETATM    9  S   UNL     1     -11.370  15.321  69.140  1.00  0.00    -0.320 S  
HETATM   10  O   UNL     1     -12.281  14.209  69.014  1.00  0.00    -0.332 OA 
HETATM   11  O   UNL     1     -11.496  16.533  68.362  1.00  0.00    -0.301 OA 
HETATM   12  O   UNL     1     -11.368  15.798  70.683  1.00  0.00    -0.324 OA 
ENDBRANCH   7   8
ENDBRANCH   6   7
ENDBRANCH   3   6
TORSDOF 3
ENDMDL
MODEL      238
REMARK 921   NORMALIZED FREE ENERGY PREDICTED BY IDOCK:   -2.13 KCAL/MOL
REMARK 922        TOTAL FREE ENERGY PREDICTED BY IDOCK:   -2.61 KCAL/MOL
REMARK 923 INTER-LIGAND FREE ENERGY PREDICTED BY IDOCK:   -2.47 KCAL/MOL
REMARK 924 INTRA-LIGAND FREE ENERGY PREDICTED BY IDOCK:   -0.14 KCAL/MOL
REMARK 927      BINDING AFFINITY PREDICTED BY RF-SCORE:    0.00 PKD
ROOT
HETATM    1  C   UNL     1      -7.259  10.127  65.517  1.00  0.00    -0.142 C  
HETATM    2  C   UNL     1      -7.785  10.784  66.763  1.00  0.00    -0.136 C  
HETATM    3  N   UNL     1      -8.704  11.777  66.513  1.00  0.00    -0.228 N  
HETATM    4  O   UNL     1      -7.416  10.464  67.888  1.00  0.00    -0.086 OA 
HETATM    5  H   UNL     1      -8.956  11.990  65.548  1.00  0.00     0.000 HD 
ENDROOT
BRANCH   3   6
HETATM    6  C   UNL     1      -9.321  12.529  67.585  1.00  0.00    -0.189 C  
BRANCH   6   7
HETATM    7  C   UNL     1      -8.773  13.947  67.670  1.00  0.00    -0.187 C  
BRANCH   7   8
HETATM    8  C   UNL     1      -9.590  14.771  68.653  1.00  0.00    -0.218 C  
HETATM    9  S   UNL     1     -10.923  15.632  67.839  1.00  0.00    -0.320 S  
HETATM   10  O   UNL     1     -11.919  14.693  67.382  1.00  0.00    -0.384 OA 
HETATM   11  O   UNL     1     -10.380  16.674  66.996  1.00  0.00    -0.296 OA 
HETATM   12  O   UNL     1     -11.505  16.390  69.140  1.00  0.00    -0.288 OA 
ENDBRANCH   7   8
ENDBRANCH   6   7
ENDBRANCH   3   6
TORSDOF 3
ENDMDL
MODEL      239
REMARK 921   NORMALIZED FREE ENERGY PREDICTED BY IDOCK:   -2.13 KCAL/MOL
REMARK 922        TOTAL FREE ENERGY PREDICTED BY IDOCK:   -2.61 KCAL/MOL
REMARK 923 INTER-LIGAND FREE ENERGY PREDICTED BY IDOCK:   -2.45 KCAL/MOL
REMARK 924 INTRA-LIGAND FREE ENERGY PREDICTED BY IDOCK:   -0.16 KCAL/MOL
REMARK 927      BINDING AFFINITY PREDICTED BY RF-SCORE:    0.00 PKD
ROOT
HETATM    1  C   UNL     1      -5.170  14.954  71.490  1.00  0.00    -0.117 C  
HETATM    2  C   UNL     1      -6.020  14.136  70.558  1.00  0.00    -0.182 C  
HETATM    3  N   UNL     1      -6.696  14.891  69.628  1.00  0.00    -0.161 N  
HETATM    4  O   UNL     1      -6.103  12.914  70.635  1.00  0.00    -0.146 OA 
HETATM    5  H   UNL     1      -6.580  15.904  69.631  1.00  0.00     0.000 HD 
ENDROOT
BRANCH   3   6
HETATM    6  C   UNL     1      -7.569  14.284  68.646  1.00  0.00    -0.126 C  
BRANCH   6   7
HETATM    7  C   UNL     1      -7.345  14.864  67.255  1.00  0.00    -0.174 C  
BRANCH   7   8
HETATM    8  C   UNL     1      -8.662  14.942  66.498  1.00  0.00    -0.169 C  
HETATM    9  S   UNL     1      -9.365  16.579  66.568  1.00  0.00    -0.289 S  
HETATM   10  O   UNL     1      -8.560  17.501  65.804  1.00  0.00    -0.521 OA 
HETATM   11  O   UNL     1      -9.809  16.854  67.916  1.00  0.00    -0.251 OA 
HETATM   12  O   UNL     1     -10.707  16.265  65.728  1.00  0.00    -0.318 OA 
ENDBRANCH   7   8
ENDBRANCH   6   7
ENDBRANCH   3   6
TORSDOF 3
ENDMDL
MODEL      240
REMARK 921   NORMALIZED FREE ENERGY PREDICTED BY IDOCK:   -2.13 KCAL/MOL
REMARK 922        TOTAL FREE ENERGY PREDICTED BY IDOCK:   -2.61 KCAL/MOL
REMARK 923 INTER-LIGAND FREE ENERGY PREDICTED BY IDOCK:   -2.43 KCAL/MOL
REMARK 924 INTRA-LIGAND FREE ENERGY PREDICTED BY IDOCK:   -0.18 KCAL/MOL
REMARK 927      BINDING AFFINITY PREDICTED BY RF-SCORE:    0.00 PKD
ROOT
HETATM    1  C   UNL     1      -8.047   2.996  70.451  1.00  0.00    -0.055 C  
HETATM    2  C   UNL     1      -9.016   3.762  69.595  1.00  0.00    -0.108 C  
HETATM    3  N   UNL     1      -9.526   4.881  70.211  1.00  0.00    -0.156 N  
HETATM    4  O   UNL     1      -9.324   3.408  68.461  1.00  0.00    -0.157 OA 
HETATM    5  H   UNL     1      -9.225   5.107  71.159  1.00  0.00     0.000 HD 
ENDROOT
BRANCH   3   6
HETATM    6  C   UNL     1     -10.478   5.746  69.549  1.00  0.00    -0.293 C  
BRANCH   6   7
HETATM    7  C   UNL     1     -11.521   6.287  70.518  1.00  0.00    -0.407 C  
BRANCH   7   8
HETATM    8  C   UNL     1     -10.893   6.550  71.878  1.00  0.00    -0.237 C  
HETATM    9  S   UNL     1     -10.279   8.219  72.006  1.00  0.00    -0.297 S  
HETATM   10  O   UNL     1     -11.378   9.154  72.032  1.00  0.00    -0.366 OA 
HETATM   11  O   UNL     1      -9.132   8.378  71.140  1.00  0.00    -0.149 OA 
HETATM   12  O   UNL     1      -9.679   8.105  73.500  1.00  0.00    -0.202 OA 
ENDBRANCH   7   8
ENDBRANCH   6   7
ENDBRANCH   3   6
TORSDOF 3
ENDMDL
MODEL      241
REMARK 921   NORMALIZED FREE ENERGY PREDICTED BY IDOCK:   -2.09 KCAL/MOL
REMARK 922        TOTAL FREE ENERGY PREDICTED BY IDOCK:   -2.57 KCAL/MOL
REMARK 923 INTER-LIGAND FREE ENERGY PREDICTED BY IDOCK:   -2.59 KCAL/MOL
REMARK 924 INTRA-LIGAND FREE ENERGY PREDICTED BY IDOCK:    0.02 KCAL/MOL
REMARK 927      BINDING AFFINITY PREDICTED BY RF-SCORE:    0.00 PKD
ROOT
HETATM    1  C   UNL     1     -12.639  12.528  63.330  1.00  0.00    -0.424 C  
HETATM    2  C   UNL     1     -11.407  12.296  64.162  1.00  0.00    -0.376 C  
HETATM    3  N   UNL     1     -11.651  12.304  65.516  1.00  0.00    -0.368 N  
HETATM    4  O   UNL     1     -10.297  12.128  63.669  1.00  0.00    -0.398 OA 
HETATM    5  H   UNL     1     -12.603  12.456  65.849  1.00  0.00     0.000 HD 
ENDROOT
BRANCH   3   6
HETATM    6  C   UNL     1     -10.591  12.102  66.479  1.00  0.00    -0.237 C  
BRANCH   6   7
HETATM    7  C   UNL     1     -10.042  10.682  66.427  1.00  0.00    -0.279 C  
BRANCH   7   8
HETATM    8  C   UNL     1      -8.657  10.629  67.055  1.00  0.00    -0.128 C  
HETATM    9  S   UNL     1      -7.647   9.362  66.309  1.00  0.00    -0.097 S  
HETATM   10  O   UNL     1      -7.314   9.724  64.952  1.00  0.00    -0.116 OA 
HETATM   11  O   UNL     1      -8.162   8.061  66.672  1.00  0.00    -0.104 OA 
HETATM   12  O   UNL     1      -6.335   9.577  67.225  1.00  0.00    -0.066 OA 
ENDBRANCH   7   8
ENDBRANCH   6   7
ENDBRANCH   3   6
TORSDOF 3
ENDMDL
MODEL      242
REMARK 921   NORMALIZED FREE ENERGY PREDICTED BY IDOCK:   -2.08 KCAL/MOL
REMARK 922        TOTAL FREE ENERGY PREDICTED BY IDOCK:   -2.56 KCAL/MOL
REMARK 923 INTER-LIGAND FREE ENERGY PREDICTED BY IDOCK:   -2.41 KCAL/MOL
REMARK 924 INTRA-LIGAND FREE ENERGY PREDICTED BY IDOCK:   -0.15 KCAL/MOL
REMARK 927      BINDING AFFINITY PREDICTED BY RF-SCORE:    0.00 PKD
ROOT
HETATM    1  C   UNL     1     -10.858   6.841  72.862  1.00  0.00    -0.304 C  
HETATM    2  C   UNL     1     -10.049   7.911  72.184  1.00  0.00    -0.220 C  
HETATM    3  N   UNL     1     -10.597   8.344  70.998  1.00  0.00    -0.208 N  
HETATM    4  O   UNL     1      -8.998   8.341  72.647  1.00  0.00    -0.205 OA 
HETATM    5  H   UNL     1     -11.473   7.933  70.676  1.00  0.00     0.000 HD 
ENDROOT
BRANCH   3   6
HETATM    6  C   UNL     1      -9.962   9.368  70.197  1.00  0.00    -0.229 C  
BRANCH   6   7
HETATM    7  C   UNL     1      -9.839   8.949  68.738  1.00  0.00    -0.182 C  
BRANCH   7   8
HETATM    8  C   UNL     1     -10.736   9.811  67.863  1.00  0.00    -0.258 C  
HETATM    9  S   UNL     1      -9.785  10.844  66.764  1.00  0.00    -0.195 S  
HETATM   10  O   UNL     1      -9.129  10.038  65.764  1.00  0.00    -0.148 OA 
HETATM   11  O   UNL     1      -9.098  11.859  67.532  1.00  0.00    -0.169 OA 
HETATM   12  O   UNL     1     -11.028  11.601  66.065  1.00  0.00    -0.289 OA 
ENDBRANCH   7   8
ENDBRANCH   6   7
ENDBRANCH   3   6
TORSDOF 3
ENDMDL
MODEL      243
REMARK 921   NORMALIZED FREE ENERGY PREDICTED BY IDOCK:   -2.08 KCAL/MOL
REMARK 922        TOTAL FREE ENERGY PREDICTED BY IDOCK:   -2.56 KCAL/MOL
REMARK 923 INTER-LIGAND FREE ENERGY PREDICTED BY IDOCK:   -2.63 KCAL/MOL
REMARK 924 INTRA-LIGAND FREE ENERGY PREDICTED BY IDOCK:    0.07 KCAL/MOL
REMARK 927      BINDING AFFINITY PREDICTED BY RF-SCORE:    0.00 PKD
ROOT
HETATM    1  C   UNL     1     -10.682  14.168  64.973  1.00  0.00    -0.429 C  
HETATM    2  C   UNL     1     -10.997  12.698  64.984  1.00  0.00    -0.289 C  
HETATM    3  N   UNL     1      -9.971  11.914  64.511  1.00  0.00    -0.335 N  
HETATM    4  O   UNL     1     -12.074  12.254  65.370  1.00  0.00    -0.479 OA 
HETATM    5  H   UNL     1      -9.107  12.359  64.203  1.00  0.00     0.000 HD 
ENDROOT
BRANCH   3   6
HETATM    6  C   UNL     1     -10.086  10.474  64.440  1.00  0.00    -0.325 C  
BRANCH   6   7
HETATM    7  C   UNL     1      -9.053   9.869  63.498  1.00  0.00    -0.289 C  
BRANCH   7   8
HETATM    8  C   UNL     1      -7.649  10.104  64.033  1.00  0.00    -0.128 C  
HETATM    9  S   UNL     1      -7.443   9.411  65.664  1.00  0.00    -0.097 S  
HETATM   10  O   UNL     1      -7.469   7.970  65.601  1.00  0.00    -0.077 OA 
HETATM   11  O   UNL     1      -8.227  10.171  66.612  1.00  0.00    -0.121 OA 
HETATM   12  O   UNL     1      -5.915   9.878  65.896  1.00  0.00    -0.064 OA 
ENDBRANCH   7   8
ENDBRANCH   6   7
ENDBRANCH   3   6
TORSDOF 3
ENDMDL
MODEL      244
REMARK 921   NORMALIZED FREE ENERGY PREDICTED BY IDOCK:   -2.08 KCAL/MOL
REMARK 922        TOTAL FREE ENERGY PREDICTED BY IDOCK:   -2.56 KCAL/MOL
REMARK 923 INTER-LIGAND FREE ENERGY PREDICTED BY IDOCK:   -2.42 KCAL/MOL
REMARK 924 INTRA-LIGAND FREE ENERGY PREDICTED BY IDOCK:   -0.14 KCAL/MOL
REMARK 927      BINDING AFFINITY PREDICTED BY RF-SCORE:    0.00 PKD
ROOT
HETATM    1  C   UNL     1     -12.914   7.128  71.158  1.00  0.00    -0.316 C  
HETATM    2  C   UNL     1     -11.572   7.703  70.800  1.00  0.00    -0.265 C  
HETATM    3  N   UNL     1     -11.652   8.890  70.108  1.00  0.00    -0.462 N  
HETATM    4  O   UNL     1     -10.515   7.152  71.091  1.00  0.00    -0.210 OA 
HETATM    5  H   UNL     1     -12.569   9.282  69.898  1.00  0.00     0.000 HD 
ENDROOT
BRANCH   3   6
HETATM    6  C   UNL     1     -10.466   9.595  69.672  1.00  0.00    -0.229 C  
BRANCH   6   7
HETATM    7  C   UNL     1     -10.358   9.634  68.153  1.00  0.00    -0.250 C  
BRANCH   7   8
HETATM    8  C   UNL     1      -8.961  10.065  67.733  1.00  0.00    -0.131 C  
HETATM    9  S   UNL     1      -8.428   9.217  66.257  1.00  0.00    -0.130 S  
HETATM   10  O   UNL     1      -9.198   9.662  65.121  1.00  0.00    -0.214 OA 
HETATM   11  O   UNL     1      -8.204   7.821  66.558  1.00  0.00    -0.117 OA 
HETATM   12  O   UNL     1      -6.958   9.878  66.159  1.00  0.00    -0.093 OA 
ENDBRANCH   7   8
ENDBRANCH   6   7
ENDBRANCH   3   6
TORSDOF 3
ENDMDL
MODEL      245
REMARK 921   NORMALIZED FREE ENERGY PREDICTED BY IDOCK:   -2.07 KCAL/MOL
REMARK 922        TOTAL FREE ENERGY PREDICTED BY IDOCK:   -2.54 KCAL/MOL
REMARK 923 INTER-LIGAND FREE ENERGY PREDICTED BY IDOCK:   -2.65 KCAL/MOL
REMARK 924 INTRA-LIGAND FREE ENERGY PREDICTED BY IDOCK:    0.11 KCAL/MOL
REMARK 927      BINDING AFFINITY PREDICTED BY RF-SCORE:    0.00 PKD
ROOT
HETATM    1  C   UNL     1     -10.488   8.776  67.456  1.00  0.00    -0.340 C  
HETATM    2  C   UNL     1     -10.575  10.015  68.304  1.00  0.00    -0.226 C  
HETATM    3  N   UNL     1     -10.845  11.155  67.583  1.00  0.00    -0.228 N  
HETATM    4  O   UNL     1     -10.408   9.999  69.520  1.00  0.00    -0.204 OA 
HETATM    5  H   UNL     1     -10.965  11.088  66.573  1.00  0.00     0.000 HD 
ENDROOT
BRANCH   3   6
HETATM    6  C   UNL     1     -10.962  12.448  68.223  1.00  0.00    -0.236 C  
BRANCH   6   7
HETATM    7  C   UNL     1      -9.657  13.231  68.158  1.00  0.00    -0.227 C  
BRANCH   7   8
HETATM    8  C   UNL     1      -9.867  14.546  67.423  1.00  0.00    -0.227 C  
HETATM    9  S   UNL     1     -10.867  15.677  68.373  1.00  0.00    -0.305 S  
HETATM   10  O   UNL     1     -10.141  16.131  69.533  1.00  0.00    -0.248 OA 
HETATM   11  O   UNL     1     -12.224  15.182  68.438  1.00  0.00    -0.153 OA 
HETATM   12  O   UNL     1     -10.899  16.880  67.296  1.00  0.00    -0.257 OA 
ENDBRANCH   7   8
ENDBRANCH   6   7
ENDBRANCH   3   6
TORSDOF 3
ENDMDL
MODEL      246
REMARK 921   NORMALIZED FREE ENERGY PREDICTED BY IDOCK:   -2.06 KCAL/MOL
REMARK 922        TOTAL FREE ENERGY PREDICTED BY IDOCK:   -2.54 KCAL/MOL
REMARK 923 INTER-LIGAND FREE ENERGY PREDICTED BY IDOCK:   -2.40 KCAL/MOL
REMARK 924 INTRA-LIGAND FREE ENERGY PREDICTED BY IDOCK:   -0.13 KCAL/MOL
REMARK 927      BINDING AFFINITY PREDICTED BY RF-SCORE:    0.00 PKD
ROOT
HETATM    1  C   UNL     1      -5.614  15.941  70.854  1.00  0.00     0.052 C  
HETATM    2  C   UNL     1      -6.461  16.061  69.617  1.00  0.00    -0.190 C  
HETATM    3  N   UNL     1      -7.430  15.090  69.521  1.00  0.00    -0.218 N  
HETATM    4  O   UNL     1      -6.288  16.939  68.778  1.00  0.00    -0.154 OA 
HETATM    5  H   UNL     1      -7.508  14.390  70.258  1.00  0.00     0.000 HD 
ENDROOT
BRANCH   3   6
HETATM    6  C   UNL     1      -8.342  15.036  68.398  1.00  0.00    -0.154 C  
BRANCH   6   7
HETATM    7  C   UNL     1      -8.456  13.628  67.828  1.00  0.00    -0.183 C  
BRANCH   7   8
HETATM    8  C   UNL     1      -9.872  13.101  68.003  1.00  0.00    -0.231 C  
HETATM    9  S   UNL     1     -10.484  12.357  66.502  1.00  0.00    -0.234 S  
HETATM   10  O   UNL     1      -9.774  11.132  66.226  1.00  0.00    -0.199 OA 
HETATM   11  O   UNL     1     -10.697  13.384  65.508  1.00  0.00    -0.283 OA 
HETATM   12  O   UNL     1     -11.956  11.974  67.047  1.00  0.00    -0.609 OA 
ENDBRANCH   7   8
ENDBRANCH   6   7
ENDBRANCH   3   6
TORSDOF 3
ENDMDL
MODEL      247
REMARK 921   NORMALIZED FREE ENERGY PREDICTED BY IDOCK:   -2.06 KCAL/MOL
REMARK 922        TOTAL FREE ENERGY PREDICTED BY IDOCK:   -2.53 KCAL/MOL
REMARK 923 INTER-LIGAND FREE ENERGY PREDICTED BY IDOCK:   -2.39 KCAL/MOL
REMARK 924 INTRA-LIGAND FREE ENERGY PREDICTED BY IDOCK:   -0.15 KCAL/MOL
REMARK 927      BINDING AFFINITY PREDICTED BY RF-SCORE:    0.00 PKD
ROOT
HETATM    1  C   UNL     1      -9.690  20.912  67.134  1.00  0.00    -0.331 C  
HETATM    2  C   UNL     1     -10.341  19.594  66.823  1.00  0.00    -0.476 C  
HETATM    3  N   UNL     1     -10.171  18.652  67.811  1.00  0.00    -0.366 N  
HETATM    4  O   UNL     1     -10.954  19.386  65.780  1.00  0.00    -0.362 OA 
HETATM    5  H   UNL     1      -9.644  18.899  68.648  1.00  0.00     0.000 HD 
ENDROOT
BRANCH   3   6
HETATM    6  C   UNL     1     -10.722  17.319  67.693  1.00  0.00    -0.307 C  
BRANCH   6   7
HETATM    7  C   UNL     1     -10.168  16.382  68.759  1.00  0.00    -0.258 C  
BRANCH   7   8
HETATM    8  C   UNL     1     -11.046  16.417  70.001  1.00  0.00    -0.294 C  
HETATM    9  S   UNL     1     -12.087  14.973  70.109  1.00  0.00    -0.350 S  
HETATM   10  O   UNL     1     -11.290  13.802  70.377  1.00  0.00    -0.041 OA 
HETATM   11  O   UNL     1     -13.088  15.023  69.067  1.00  0.00     0.758 OA 
HETATM   12  O   UNL     1     -12.860  15.378  71.468  1.00  0.00    -0.362 OA 
ENDBRANCH   7   8
ENDBRANCH   6   7
ENDBRANCH   3   6
TORSDOF 3
ENDMDL
MODEL      248
REMARK 921   NORMALIZED FREE ENERGY PREDICTED BY IDOCK:   -2.06 KCAL/MOL
REMARK 922        TOTAL FREE ENERGY PREDICTED BY IDOCK:   -2.53 KCAL/MOL
REMARK 923 INTER-LIGAND FREE ENERGY PREDICTED BY IDOCK:   -2.79 KCAL/MOL
REMARK 924 INTRA-LIGAND FREE ENERGY PREDICTED BY IDOCK:    0.27 KCAL/MOL
REMARK 927      BINDING AFFINITY PREDICTED BY RF-SCORE:    0.00 PKD
ROOT
HETATM    1  C   UNL     1      -8.216   9.629  62.823  1.00  0.00    -0.149 C  
HETATM    2  C   UNL     1      -8.839   9.928  64.158  1.00  0.00    -0.225 C  
HETATM    3  N   UNL     1      -9.503  11.133  64.195  1.00  0.00    -0.284 N  
HETATM    4  O   UNL     1      -8.747   9.169  65.118  1.00  0.00    -0.175 OA 
HETATM    5  H   UNL     1      -9.530  11.711  63.357  1.00  0.00     0.000 HD 
ENDROOT
BRANCH   3   6
HETATM    6  C   UNL     1     -10.164  11.598  65.395  1.00  0.00    -0.263 C  
BRANCH   6   7
HETATM    7  C   UNL     1      -9.166  11.967  66.485  1.00  0.00    -0.216 C  
BRANCH   7   8
HETATM    8  C   UNL     1      -9.562  11.322  67.805  1.00  0.00    -0.174 C  
HETATM    9  S   UNL     1     -11.089  11.996  68.432  1.00  0.00    -0.268 S  
HETATM   10  O   UNL     1     -12.193  11.595  67.595  1.00  0.00    -0.544 OA 
HETATM   11  O   UNL     1     -10.875  13.363  68.851  1.00  0.00    -0.246 OA 
HETATM   12  O   UNL     1     -11.151  11.133  69.796  1.00  0.00    -0.251 OA 
ENDBRANCH   7   8
ENDBRANCH   6   7
ENDBRANCH   3   6
TORSDOF 3
ENDMDL
MODEL      249
REMARK 921   NORMALIZED FREE ENERGY PREDICTED BY IDOCK:   -2.05 KCAL/MOL
REMARK 922        TOTAL FREE ENERGY PREDICTED BY IDOCK:   -2.52 KCAL/MOL
REMARK 923 INTER-LIGAND FREE ENERGY PREDICTED BY IDOCK:   -2.78 KCAL/MOL
REMARK 924 INTRA-LIGAND FREE ENERGY PREDICTED BY IDOCK:    0.26 KCAL/MOL
REMARK 927      BINDING AFFINITY PREDICTED BY RF-SCORE:    0.00 PKD
ROOT
HETATM    1  C   UNL     1     -10.578   5.915  68.947  1.00  0.00    -0.357 C  
HETATM    2  C   UNL     1     -10.586   7.308  68.379  1.00  0.00    -0.170 C  
HETATM    3  N   UNL     1     -10.117   8.259  69.256  1.00  0.00    -0.194 N  
HETATM    4  O   UNL     1     -10.985   7.560  67.247  1.00  0.00    -0.264 OA 
HETATM    5  H   UNL     1      -9.807   7.971  70.183  1.00  0.00     0.000 HD 
ENDROOT
BRANCH   3   6
HETATM    6  C   UNL     1     -10.051   9.658  68.893  1.00  0.00    -0.187 C  
BRANCH   6   7
HETATM    7  C   UNL     1      -8.795   9.977  68.092  1.00  0.00    -0.122 C  
BRANCH   7   8
HETATM    8  C   UNL     1      -8.990  11.256  67.292  1.00  0.00    -0.149 C  
HETATM    9  S   UNL     1     -10.514  11.226  66.366  1.00  0.00    -0.264 S  
HETATM   10  O   UNL     1     -11.643  11.294  67.260  1.00  0.00    -0.527 OA 
HETATM   11  O   UNL     1     -10.411  10.252  65.302  1.00  0.00    -0.278 OA 
HETATM   12  O   UNL     1     -10.349  12.664  65.650  1.00  0.00    -0.264 OA 
ENDBRANCH   7   8
ENDBRANCH   6   7
ENDBRANCH   3   6
TORSDOF 3
ENDMDL
MODEL      250
REMARK 921   NORMALIZED FREE ENERGY PREDICTED BY IDOCK:   -2.04 KCAL/MOL
REMARK 922        TOTAL FREE ENERGY PREDICTED BY IDOCK:   -2.50 KCAL/MOL
REMARK 923 INTER-LIGAND FREE ENERGY PREDICTED BY IDOCK:   -2.22 KCAL/MOL
REMARK 924 INTRA-LIGAND FREE ENERGY PREDICTED BY IDOCK:   -0.29 KCAL/MOL
REMARK 927      BINDING AFFINITY PREDICTED BY RF-SCORE:    0.00 PKD
ROOT
HETATM    1  C   UNL     1      -5.977  16.429  70.298  1.00  0.00    -0.064 C  
HETATM    2  C   UNL     1      -6.246  17.324  69.121  1.00  0.00    -0.225 C  
HETATM    3  N   UNL     1      -7.585  17.533  68.886  1.00  0.00    -0.255 N  
HETATM    4  O   UNL     1      -5.349  17.807  68.437  1.00  0.00    -0.150 OA 
HETATM    5  H   UNL     1      -8.272  17.092  69.496  1.00  0.00     0.000 HD 
ENDROOT
BRANCH   3   6
HETATM    6  C   UNL     1      -8.044  18.364  67.794  1.00  0.00    -0.254 C  
BRANCH   6   7
HETATM    7  C   UNL     1      -8.888  17.577  66.800  1.00  0.00    -0.275 C  
BRANCH   7   8
HETATM    8  C   UNL     1      -9.007  16.126  67.241  1.00  0.00    -0.196 C  
HETATM    9  S   UNL     1     -10.526  15.832  68.127  1.00  0.00    -0.271 S  
HETATM   10  O   UNL     1     -11.654  15.935  67.233  1.00  0.00    -0.002 OA 
HETATM   11  O   UNL     1     -10.474  16.503  69.407  1.00  0.00    -0.292 OA 
HETATM   12  O   UNL     1     -10.279  14.269  68.449  1.00  0.00    -0.232 OA 
ENDBRANCH   7   8
ENDBRANCH   6   7
ENDBRANCH   3   6
TORSDOF 3
ENDMDL
MODEL      251
REMARK 921   NORMALIZED FREE ENERGY PREDICTED BY IDOCK:   -2.03 KCAL/MOL
REMARK 922        TOTAL FREE ENERGY PREDICTED BY IDOCK:   -2.50 KCAL/MOL
REMARK 923 INTER-LIGAND FREE ENERGY PREDICTED BY IDOCK:   -2.14 KCAL/MOL
REMARK 924 INTRA-LIGAND FREE ENERGY PREDICTED BY IDOCK:   -0.36 KCAL/MOL
REMARK 927      BINDING AFFINITY PREDICTED BY RF-SCORE:    0.00 PKD
ROOT
HETATM    1  C   UNL     1      -8.314   9.908  69.575  1.00  0.00    -0.174 C  
HETATM    2  C   UNL     1      -7.770   9.495  70.915  1.00  0.00     0.018 C  
HETATM    3  N   UNL     1      -8.686   8.832  71.698  1.00  0.00    -0.203 N  
HETATM    4  O   UNL     1      -6.621   9.742  71.268  1.00  0.00    -0.301 OA 
HETATM    5  H   UNL     1      -9.625   8.669  71.335  1.00  0.00     0.000 HD 
ENDROOT
BRANCH   3   6
HETATM    6  C   UNL     1      -8.351   8.359  73.023  1.00  0.00    -0.130 C  
BRANCH   6   7
HETATM    7  C   UNL     1      -9.427   7.438  73.585  1.00  0.00    -0.321 C  
BRANCH   7   8
HETATM    8  C   UNL     1      -9.250   6.028  73.043  1.00  0.00    -0.133 C  
HETATM    9  S   UNL     1     -10.598   5.563  71.972  1.00  0.00    -0.229 S  
HETATM   10  O   UNL     1     -10.551   6.327  70.750  1.00  0.00    -0.221 OA 
HETATM   11  O   UNL     1     -11.803   5.405  72.756  1.00  0.00    -0.268 OA 
HETATM   12  O   UNL     1     -10.096   4.062  71.648  1.00  0.00    -0.178 OA 
ENDBRANCH   7   8
ENDBRANCH   6   7
ENDBRANCH   3   6
TORSDOF 3
ENDMDL
MODEL      252
REMARK 921   NORMALIZED FREE ENERGY PREDICTED BY IDOCK:   -2.03 KCAL/MOL
REMARK 922        TOTAL FREE ENERGY PREDICTED BY IDOCK:   -2.49 KCAL/MOL
REMARK 923 INTER-LIGAND FREE ENERGY PREDICTED BY IDOCK:   -2.34 KCAL/MOL
REMARK 924 INTRA-LIGAND FREE ENERGY PREDICTED BY IDOCK:   -0.16 KCAL/MOL
REMARK 927      BINDING AFFINITY PREDICTED BY RF-SCORE:    0.00 PKD
ROOT
HETATM    1  C   UNL     1      -7.534  13.178  67.690  1.00  0.00    -0.164 C  
HETATM    2  C   UNL     1      -7.595  11.792  68.269  1.00  0.00    -0.122 C  
HETATM    3  N   UNL     1      -8.810  11.490  68.840  1.00  0.00    -0.377 N  
HETATM    4  O   UNL     1      -6.644  11.018  68.238  1.00  0.00    -0.057 OA 
HETATM    5  H   UNL     1      -9.551  12.189  68.830  1.00  0.00     0.000 HD 
ENDROOT
BRANCH   3   6
HETATM    6  C   UNL     1      -9.061  10.204  69.454  1.00  0.00    -0.203 C  
BRANCH   6   7
HETATM    7  C   UNL     1      -9.957   9.328  68.587  1.00  0.00    -0.193 C  
BRANCH   7   8
HETATM    8  C   UNL     1     -10.549   8.196  69.413  1.00  0.00    -0.200 C  
HETATM    9  S   UNL     1     -10.423   6.632  68.567  1.00  0.00    -0.234 S  
HETATM   10  O   UNL     1      -9.044   6.215  68.489  1.00  0.00    -0.118 OA 
HETATM   11  O   UNL     1     -11.312   6.629  67.426  1.00  0.00    -0.299 OA 
HETATM   12  O   UNL     1     -11.159   5.731  69.688  1.00  0.00    -0.372 OA 
ENDBRANCH   7   8
ENDBRANCH   6   7
ENDBRANCH   3   6
TORSDOF 3
ENDMDL
MODEL      253
REMARK 921   NORMALIZED FREE ENERGY PREDICTED BY IDOCK:   -2.01 KCAL/MOL
REMARK 922        TOTAL FREE ENERGY PREDICTED BY IDOCK:   -2.47 KCAL/MOL
REMARK 923 INTER-LIGAND FREE ENERGY PREDICTED BY IDOCK:   -2.03 KCAL/MOL
REMARK 924 INTRA-LIGAND FREE ENERGY PREDICTED BY IDOCK:   -0.45 KCAL/MOL
REMARK 927      BINDING AFFINITY PREDICTED BY RF-SCORE:    0.00 PKD
ROOT
HETATM    1  C   UNL     1      -8.455   3.774  69.749  1.00  0.00    -0.092 C  
HETATM    2  C   UNL     1      -9.623   4.594  69.276  1.00  0.00    -0.181 C  
HETATM    3  N   UNL     1     -10.251   5.286  70.286  1.00  0.00    -0.256 N  
HETATM    4  O   UNL     1      -9.978   4.627  68.102  1.00  0.00    -0.133 OA 
HETATM    5  H   UNL     1      -9.899   5.203  71.239  1.00  0.00     0.000 HD 
ENDROOT
BRANCH   3   6
HETATM    6  C   UNL     1     -11.399   6.129  70.028  1.00  0.00    -0.373 C  
BRANCH   6   7
HETATM    7  C   UNL     1     -11.122   7.585  70.378  1.00  0.00    -0.277 C  
BRANCH   7   8
HETATM    8  C   UNL     1      -9.958   8.114  69.554  1.00  0.00    -0.187 C  
HETATM    9  S   UNL     1      -8.521   8.416  70.566  1.00  0.00    -0.141 S  
HETATM   10  O   UNL     1      -7.971   7.169  71.037  1.00  0.00    -0.100 OA 
HETATM   11  O   UNL     1      -8.773   9.543  71.436  1.00  0.00    -0.211 OA 
HETATM   12  O   UNL     1      -7.560   8.981  69.398  1.00  0.00    -0.074 OA 
ENDBRANCH   7   8
ENDBRANCH   6   7
ENDBRANCH   3   6
TORSDOF 3
ENDMDL
MODEL      254
REMARK 921   NORMALIZED FREE ENERGY PREDICTED BY IDOCK:   -2.00 KCAL/MOL
REMARK 922        TOTAL FREE ENERGY PREDICTED BY IDOCK:   -2.47 KCAL/MOL
REMARK 923 INTER-LIGAND FREE ENERGY PREDICTED BY IDOCK:   -2.08 KCAL/MOL
REMARK 924 INTRA-LIGAND FREE ENERGY PREDICTED BY IDOCK:   -0.38 KCAL/MOL
REMARK 927      BINDING AFFINITY PREDICTED BY RF-SCORE:    0.00 PKD
ROOT
HETATM    1  C   UNL     1     -10.712   8.461  72.576  1.00  0.00    -0.372 C  
HETATM    2  C   UNL     1     -10.886   8.223  71.102  1.00  0.00    -0.233 C  
HETATM    3  N   UNL     1     -10.893   6.890  70.759  1.00  0.00    -0.236 N  
HETATM    4  O   UNL     1     -11.000   9.137  70.291  1.00  0.00    -0.233 OA 
HETATM    5  H   UNL     1     -10.787   6.188  71.490  1.00  0.00     0.000 HD 
ENDROOT
BRANCH   3   6
HETATM    6  C   UNL     1     -11.045   6.460  69.386  1.00  0.00    -0.387 C  
BRANCH   6   7
HETATM    7  C   UNL     1      -9.847   5.649  68.910  1.00  0.00    -0.197 C  
BRANCH   7   8
HETATM    8  C   UNL     1      -8.551   6.329  69.325  1.00  0.00    -0.124 C  
HETATM    9  S   UNL     1      -7.677   5.380  70.555  1.00  0.00    -0.086 S  
HETATM   10  O   UNL     1      -7.167   4.160  69.977  1.00  0.00    -0.044 OA 
HETATM   11  O   UNL     1      -8.412   5.413  71.800  1.00  0.00    -0.124 OA 
HETATM   12  O   UNL     1      -6.438   6.396  70.759  1.00  0.00    -0.045 OA 
ENDBRANCH   7   8
ENDBRANCH   6   7
ENDBRANCH   3   6
TORSDOF 3
ENDMDL
MODEL      255
REMARK 921   NORMALIZED FREE ENERGY PREDICTED BY IDOCK:   -2.00 KCAL/MOL
REMARK 922        TOTAL FREE ENERGY PREDICTED BY IDOCK:   -2.46 KCAL/MOL
REMARK 923 INTER-LIGAND FREE ENERGY PREDICTED BY IDOCK:   -2.20 KCAL/MOL
REMARK 924 INTRA-LIGAND FREE ENERGY PREDICTED BY IDOCK:   -0.26 KCAL/MOL
REMARK 927      BINDING AFFINITY PREDICTED BY RF-SCORE:    0.00 PKD
ROOT
HETATM    1  C   UNL     1     -10.511   6.674  74.020  1.00  0.00    -0.309 C  
HETATM    2  C   UNL     1      -9.357   7.514  73.547  1.00  0.00    -0.263 C  
HETATM    3  N   UNL     1      -9.042   7.316  72.223  1.00  0.00    -0.131 N  
HETATM    4  O   UNL     1      -8.756   8.289  74.284  1.00  0.00    -0.129 OA 
HETATM    5  H   UNL     1      -9.586   6.650  71.677  1.00  0.00     0.000 HD 
ENDROOT
BRANCH   3   6
HETATM    6  C   UNL     1      -7.958   8.031  71.585  1.00  0.00    -0.112 C  
BRANCH   6   7
HETATM    7  C   UNL     1      -7.843   7.684  70.107  1.00  0.00    -0.097 C  
BRANCH   7   8
HETATM    8  C   UNL     1      -8.934   6.701  69.709  1.00  0.00    -0.143 C  
HETATM    9  S   UNL     1     -10.384   7.541  69.101  1.00  0.00    -0.213 S  
HETATM   10  O   UNL     1     -10.105   8.162  67.829  1.00  0.00    -0.181 OA 
HETATM   11  O   UNL     1     -11.029   8.238  70.191  1.00  0.00    -0.248 OA 
HETATM   12  O   UNL     1     -11.287   6.229  68.834  1.00  0.00    -0.373 OA 
ENDBRANCH   7   8
ENDBRANCH   6   7
ENDBRANCH   3   6
TORSDOF 3
ENDMDL
MODEL      256
REMARK 921   NORMALIZED FREE ENERGY PREDICTED BY IDOCK:   -2.00 KCAL/MOL
REMARK 922        TOTAL FREE ENERGY PREDICTED BY IDOCK:   -2.46 KCAL/MOL
REMARK 923 INTER-LIGAND FREE ENERGY PREDICTED BY IDOCK:   -2.24 KCAL/MOL
REMARK 924 INTRA-LIGAND FREE ENERGY PREDICTED BY IDOCK:   -0.22 KCAL/MOL
REMARK 927      BINDING AFFINITY PREDICTED BY RF-SCORE:    0.00 PKD
ROOT
HETATM    1  C   UNL     1     -10.754   7.091  73.478  1.00  0.00    -0.368 C  
HETATM    2  C   UNL     1     -10.082   5.770  73.222  1.00  0.00    -0.188 C  
HETATM    3  N   UNL     1     -10.283   5.291  71.948  1.00  0.00    -0.200 N  
HETATM    4  O   UNL     1      -9.430   5.182  74.078  1.00  0.00    -0.124 OA 
HETATM    5  H   UNL     1     -10.843   5.837  71.294  1.00  0.00     0.000 HD 
ENDROOT
BRANCH   3   6
HETATM    6  C   UNL     1      -9.719   4.032  71.513  1.00  0.00    -0.176 C  
BRANCH   6   7
HETATM    7  C   UNL     1      -9.604   3.957  69.996  1.00  0.00    -0.269 C  
BRANCH   7   8
HETATM    8  C   UNL     1      -9.111   5.284  69.438  1.00  0.00    -0.104 C  
HETATM    9  S   UNL     1     -10.195   5.902  68.164  1.00  0.00    -0.205 S  
HETATM   10  O   UNL     1     -11.458   6.303  68.734  1.00  0.00    -0.294 OA 
HETATM   11  O   UNL     1     -10.092   5.060  66.994  1.00  0.00    -0.186 OA 
HETATM   12  O   UNL     1      -9.356   7.236  67.809  1.00  0.00    -0.129 OA 
ENDBRANCH   7   8
ENDBRANCH   6   7
ENDBRANCH   3   6
TORSDOF 3
ENDMDL
MODEL      257
REMARK 921   NORMALIZED FREE ENERGY PREDICTED BY IDOCK:   -1.99 KCAL/MOL
REMARK 922        TOTAL FREE ENERGY PREDICTED BY IDOCK:   -2.45 KCAL/MOL
REMARK 923 INTER-LIGAND FREE ENERGY PREDICTED BY IDOCK:   -2.12 KCAL/MOL
REMARK 924 INTRA-LIGAND FREE ENERGY PREDICTED BY IDOCK:   -0.33 KCAL/MOL
REMARK 927      BINDING AFFINITY PREDICTED BY RF-SCORE:    0.00 PKD
ROOT
HETATM    1  C   UNL     1      -9.923   7.198  73.688  1.00  0.00    -0.367 C  
HETATM    2  C   UNL     1      -9.391   7.913  72.477  1.00  0.00    -0.197 C  
HETATM    3  N   UNL     1      -8.750   7.081  71.588  1.00  0.00    -0.117 N  
HETATM    4  O   UNL     1      -9.513   9.122  72.313  1.00  0.00    -0.229 OA 
HETATM    5  H   UNL     1      -8.684   6.085  71.797  1.00  0.00     0.000 HD 
ENDROOT
BRANCH   3   6
HETATM    6  C   UNL     1      -8.166   7.584  70.363  1.00  0.00    -0.123 C  
BRANCH   6   7
HETATM    7  C   UNL     1      -7.921   6.470  69.354  1.00  0.00    -0.114 C  
BRANCH   7   8
HETATM    8  C   UNL     1      -8.885   6.595  68.183  1.00  0.00    -0.119 C  
HETATM    9  S   UNL     1     -10.377   5.658  68.459  1.00  0.00    -0.191 S  
HETATM   10  O   UNL     1     -11.156   6.259  69.514  1.00  0.00    -0.338 OA 
HETATM   11  O   UNL     1     -10.073   4.245  68.412  1.00  0.00    -0.021 OA 
HETATM   12  O   UNL     1     -11.094   5.992  67.051  1.00  0.00    -0.303 OA 
ENDBRANCH   7   8
ENDBRANCH   6   7
ENDBRANCH   3   6
TORSDOF 3
ENDMDL
MODEL      258
REMARK 921   NORMALIZED FREE ENERGY PREDICTED BY IDOCK:   -1.97 KCAL/MOL
REMARK 922        TOTAL FREE ENERGY PREDICTED BY IDOCK:   -2.42 KCAL/MOL
REMARK 923 INTER-LIGAND FREE ENERGY PREDICTED BY IDOCK:   -2.94 KCAL/MOL
REMARK 924 INTRA-LIGAND FREE ENERGY PREDICTED BY IDOCK:    0.52 KCAL/MOL
REMARK 927      BINDING AFFINITY PREDICTED BY RF-SCORE:    0.00 PKD
ROOT
HETATM    1  C   UNL     1     -11.967  14.272  64.289  1.00  0.00    -0.449 C  
HETATM    2  C   UNL     1     -11.625  14.126  65.746  1.00  0.00    -0.343 C  
HETATM    3  N   UNL     1     -10.279  14.248  66.007  1.00  0.00    -0.303 N  
HETATM    4  O   UNL     1     -12.471  13.908  66.607  1.00  0.00    -0.407 OA 
HETATM    5  H   UNL     1      -9.637  14.423  65.235  1.00  0.00     0.000 HD 
ENDROOT
BRANCH   3   6
HETATM    6  C   UNL     1      -9.754  14.133  67.350  1.00  0.00    -0.232 C  
BRANCH   6   7
HETATM    7  C   UNL     1      -8.231  14.112  67.362  1.00  0.00    -0.207 C  
BRANCH   7   8
HETATM    8  C   UNL     1      -7.690  15.370  68.025  1.00  0.00    -0.125 C  
HETATM    9  S   UNL     1      -9.007  16.419  68.614  1.00  0.00    -0.242 S  
HETATM   10  O   UNL     1      -9.681  15.796  69.728  1.00  0.00    -0.275 OA 
HETATM   11  O   UNL     1      -9.712  16.986  67.486  1.00  0.00    -0.244 OA 
HETATM   12  O   UNL     1      -8.082  17.611  69.188  1.00  0.00    -0.117 OA 
ENDBRANCH   7   8
ENDBRANCH   6   7
ENDBRANCH   3   6
TORSDOF 3
ENDMDL
MODEL      259
REMARK 921   NORMALIZED FREE ENERGY PREDICTED BY IDOCK:   -1.97 KCAL/MOL
REMARK 922        TOTAL FREE ENERGY PREDICTED BY IDOCK:   -2.42 KCAL/MOL
REMARK 923 INTER-LIGAND FREE ENERGY PREDICTED BY IDOCK:   -2.25 KCAL/MOL
REMARK 924 INTRA-LIGAND FREE ENERGY PREDICTED BY IDOCK:   -0.17 KCAL/MOL
REMARK 927      BINDING AFFINITY PREDICTED BY RF-SCORE:    0.00 PKD
ROOT
HETATM    1  C   UNL     1      -5.953  11.319  70.024  1.00  0.00    -0.131 C  
HETATM    2  C   UNL     1      -6.565  10.030  70.498  1.00  0.00    -0.122 C  
HETATM    3  N   UNL     1      -7.534   9.540  69.653  1.00  0.00    -0.081 N  
HETATM    4  O   UNL     1      -6.232   9.483  71.544  1.00  0.00    -0.205 OA 
HETATM    5  H   UNL     1      -7.760  10.056  68.804  1.00  0.00     0.000 HD 
ENDROOT
BRANCH   3   6
HETATM    6  C   UNL     1      -8.242   8.311  69.941  1.00  0.00    -0.123 C  
BRANCH   6   7
HETATM    7  C   UNL     1      -9.575   8.573  70.629  1.00  0.00    -0.203 C  
BRANCH   7   8
HETATM    8  C   UNL     1      -9.901   7.445  71.596  1.00  0.00    -0.165 C  
HETATM    9  S   UNL     1     -11.661   7.198  71.747  1.00  0.00    -0.294 S  
HETATM   10  O   UNL     1     -12.197   6.663  70.519  1.00  0.00    -0.364 OA 
HETATM   11  O   UNL     1     -12.248   8.326  72.436  1.00  0.00    -0.361 OA 
HETATM   12  O   UNL     1     -11.610   6.007  72.836  1.00  0.00    -0.201 OA 
ENDBRANCH   7   8
ENDBRANCH   6   7
ENDBRANCH   3   6
TORSDOF 3
ENDMDL
MODEL      260
REMARK 921   NORMALIZED FREE ENERGY PREDICTED BY IDOCK:   -1.96 KCAL/MOL
REMARK 922        TOTAL FREE ENERGY PREDICTED BY IDOCK:   -2.41 KCAL/MOL
REMARK 923 INTER-LIGAND FREE ENERGY PREDICTED BY IDOCK:   -2.07 KCAL/MOL
REMARK 924 INTRA-LIGAND FREE ENERGY PREDICTED BY IDOCK:   -0.34 KCAL/MOL
REMARK 927      BINDING AFFINITY PREDICTED BY RF-SCORE:    0.00 PKD
ROOT
HETATM    1  C   UNL     1     -10.135   9.221  70.870  1.00  0.00    -0.373 C  
HETATM    2  C   UNL     1     -10.447   8.488  69.595  1.00  0.00    -0.221 C  
HETATM    3  N   UNL     1     -10.228   9.239  68.464  1.00  0.00    -0.194 N  
HETATM    4  O   UNL     1     -10.867   7.336  69.579  1.00  0.00    -0.240 OA 
HETATM    5  H   UNL     1      -9.883  10.194  68.560  1.00  0.00     0.000 HD 
ENDROOT
BRANCH   3   6
HETATM    6  C   UNL     1     -10.475   8.708  67.140  1.00  0.00    -0.289 C  
BRANCH   6   7
HETATM    7  C   UNL     1      -9.216   8.113  66.525  1.00  0.00    -0.237 C  
BRANCH   7   8
HETATM    8  C   UNL     1      -9.324   6.597  66.463  1.00  0.00    -0.159 C  
HETATM    9  S   UNL     1      -7.930   5.807  67.247  1.00  0.00    -0.102 S  
HETATM   10  O   UNL     1      -7.972   6.021  68.673  1.00  0.00    -0.101 OA 
HETATM   11  O   UNL     1      -6.743   6.028  66.453  1.00  0.00    -0.056 OA 
HETATM   12  O   UNL     1      -8.366   4.280  66.954  1.00  0.00    -0.101 OA 
ENDBRANCH   7   8
ENDBRANCH   6   7
ENDBRANCH   3   6
TORSDOF 3
ENDMDL
MODEL      261
REMARK 921   NORMALIZED FREE ENERGY PREDICTED BY IDOCK:   -1.95 KCAL/MOL
REMARK 922        TOTAL FREE ENERGY PREDICTED BY IDOCK:   -2.40 KCAL/MOL
REMARK 923 INTER-LIGAND FREE ENERGY PREDICTED BY IDOCK:   -2.29 KCAL/MOL
REMARK 924 INTRA-LIGAND FREE ENERGY PREDICTED BY IDOCK:   -0.10 KCAL/MOL
REMARK 927      BINDING AFFINITY PREDICTED BY RF-SCORE:    0.00 PKD
ROOT
HETATM    1  C   UNL     1      -8.471   8.342  66.069  1.00  0.00    -0.148 C  
HETATM    2  C   UNL     1      -8.138   9.009  67.374  1.00  0.00    -0.108 C  
HETATM    3  N   UNL     1      -9.167   9.771  67.878  1.00  0.00    -0.125 N  
HETATM    4  O   UNL     1      -7.047   8.887  67.922  1.00  0.00    -0.077 OA 
HETATM    5  H   UNL     1     -10.043   9.827  67.361  1.00  0.00     0.000 HD 
ENDROOT
BRANCH   3   6
HETATM    6  C   UNL     1      -9.036  10.494  69.125  1.00  0.00    -0.166 C  
BRANCH   6   7
HETATM    7  C   UNL     1      -9.324   9.605  70.328  1.00  0.00    -0.292 C  
BRANCH   7   8
HETATM    8  C   UNL     1     -10.483   8.667  70.026  1.00  0.00    -0.223 C  
HETATM    9  S   UNL     1     -10.797   7.554  71.383  1.00  0.00    -0.230 S  
HETATM   10  O   UNL     1     -11.325   8.280  72.513  1.00  0.00    -0.375 OA 
HETATM   11  O   UNL     1      -9.706   6.612  71.494  1.00  0.00    -0.165 OA 
HETATM   12  O   UNL     1     -12.008   6.733  70.701  1.00  0.00    -0.386 OA 
ENDBRANCH   7   8
ENDBRANCH   6   7
ENDBRANCH   3   6
TORSDOF 3
ENDMDL
MODEL      262
REMARK 921   NORMALIZED FREE ENERGY PREDICTED BY IDOCK:   -1.94 KCAL/MOL
REMARK 922        TOTAL FREE ENERGY PREDICTED BY IDOCK:   -2.39 KCAL/MOL
REMARK 923 INTER-LIGAND FREE ENERGY PREDICTED BY IDOCK:   -1.99 KCAL/MOL
REMARK 924 INTRA-LIGAND FREE ENERGY PREDICTED BY IDOCK:   -0.40 KCAL/MOL
REMARK 927      BINDING AFFINITY PREDICTED BY RF-SCORE:    0.00 PKD
ROOT
HETATM    1  C   UNL     1     -11.019   6.246  67.969  1.00  0.00    -0.418 C  
HETATM    2  C   UNL     1     -11.030   6.057  69.461  1.00  0.00    -0.397 C  
HETATM    3  N   UNL     1     -10.176   5.069  69.894  1.00  0.00    -0.276 N  
HETATM    4  O   UNL     1     -11.743   6.718  70.208  1.00  0.00    -0.363 OA 
HETATM    5  H   UNL     1      -9.618   4.559  69.210  1.00  0.00     0.000 HD 
ENDROOT
BRANCH   3   6
HETATM    6  C   UNL     1     -10.049   4.736  71.297  1.00  0.00    -0.188 C  
BRANCH   6   7
HETATM    7  C   UNL     1      -8.911   3.755  71.545  1.00  0.00    -0.143 C  
BRANCH   7   8
HETATM    8  C   UNL     1      -7.625   4.505  71.859  1.00  0.00    -0.083 C  
HETATM    9  S   UNL     1      -6.548   4.585  70.440  1.00  0.00    -0.036 S  
HETATM   10  O   UNL     1      -7.118   5.440  69.428  1.00  0.00    -0.060 OA 
HETATM   11  O   UNL     1      -6.031   3.265  70.154  1.00  0.00    -0.018 OA 
HETATM   12  O   UNL     1      -5.334   5.380  71.147  1.00  0.00    -0.008 OA 
ENDBRANCH   7   8
ENDBRANCH   6   7
ENDBRANCH   3   6
TORSDOF 3
ENDMDL
MODEL      263
REMARK 921   NORMALIZED FREE ENERGY PREDICTED BY IDOCK:   -1.94 KCAL/MOL
REMARK 922        TOTAL FREE ENERGY PREDICTED BY IDOCK:   -2.39 KCAL/MOL
REMARK 923 INTER-LIGAND FREE ENERGY PREDICTED BY IDOCK:   -2.13 KCAL/MOL
REMARK 924 INTRA-LIGAND FREE ENERGY PREDICTED BY IDOCK:   -0.25 KCAL/MOL
REMARK 927      BINDING AFFINITY PREDICTED BY RF-SCORE:    0.00 PKD
ROOT
HETATM    1  C   UNL     1      -9.414   7.774  67.300  1.00  0.00    -0.187 C  
HETATM    2  C   UNL     1     -10.079   9.011  66.765  1.00  0.00    -0.274 C  
HETATM    3  N   UNL     1     -10.813   9.691  67.709  1.00  0.00    -0.426 N  
HETATM    4  O   UNL     1      -9.979   9.364  65.594  1.00  0.00    -0.304 OA 
HETATM    5  H   UNL     1     -10.852   9.331  68.662  1.00  0.00     0.000 HD 
ENDROOT
BRANCH   3   6
HETATM    6  C   UNL     1     -11.530  10.905  67.384  1.00  0.00    -0.091 C  
BRANCH   6   7
HETATM    7  C   UNL     1     -10.999  12.102  68.163  1.00  0.00    -0.271 C  
BRANCH   7   8
HETATM    8  C   UNL     1      -9.694  11.743  68.857  1.00  0.00     0.021 C  
HETATM    9  S   UNL     1      -8.293  12.494  68.049  1.00  0.00    -0.179 S  
HETATM   10  O   UNL     1      -8.314  13.924  68.240  1.00  0.00    -0.151 OA 
HETATM   11  O   UNL     1      -8.093  11.876  66.758  1.00  0.00    -0.163 OA 
HETATM   12  O   UNL     1      -7.147  11.876  69.004  1.00  0.00    -0.111 OA 
ENDBRANCH   7   8
ENDBRANCH   6   7
ENDBRANCH   3   6
TORSDOF 3
ENDMDL
MODEL      264
REMARK 921   NORMALIZED FREE ENERGY PREDICTED BY IDOCK:   -1.94 KCAL/MOL
REMARK 922        TOTAL FREE ENERGY PREDICTED BY IDOCK:   -2.38 KCAL/MOL
REMARK 923 INTER-LIGAND FREE ENERGY PREDICTED BY IDOCK:   -2.24 KCAL/MOL
REMARK 924 INTRA-LIGAND FREE ENERGY PREDICTED BY IDOCK:   -0.14 KCAL/MOL
REMARK 927      BINDING AFFINITY PREDICTED BY RF-SCORE:    0.00 PKD
ROOT
HETATM    1  C   UNL     1      -9.787  15.631  69.255  1.00  0.00    -0.269 C  
HETATM    2  C   UNL     1     -10.357  14.560  68.367  1.00  0.00    -0.241 C  
HETATM    3  N   UNL     1      -9.842  13.309  68.620  1.00  0.00    -0.392 N  
HETATM    4  O   UNL     1     -11.191  14.793  67.499  1.00  0.00    -0.307 OA 
HETATM    5  H   UNL     1      -9.147  13.197  69.356  1.00  0.00     0.000 HD 
ENDROOT
BRANCH   3   6
HETATM    6  C   UNL     1     -10.265  12.148  67.866  1.00  0.00    -0.198 C  
BRANCH   6   7
HETATM    7  C   UNL     1      -9.107  11.518  67.102  1.00  0.00    -0.167 C  
BRANCH   7   8
HETATM    8  C   UNL     1      -9.433  10.074  66.748  1.00  0.00    -0.168 C  
HETATM    9  S   UNL     1      -8.794   8.939  67.966  1.00  0.00    -0.133 S  
HETATM   10  O   UNL     1      -9.517   9.081  69.207  1.00  0.00    -0.154 OA 
HETATM   11  O   UNL     1      -7.350   8.919  67.895  1.00  0.00    -0.083 OA 
HETATM   12  O   UNL     1      -9.280   7.575  67.252  1.00  0.00    -0.127 OA 
ENDBRANCH   7   8
ENDBRANCH   6   7
ENDBRANCH   3   6
TORSDOF 3
ENDMDL
MODEL      265
REMARK 921   NORMALIZED FREE ENERGY PREDICTED BY IDOCK:   -1.94 KCAL/MOL
REMARK 922        TOTAL FREE ENERGY PREDICTED BY IDOCK:   -2.38 KCAL/MOL
REMARK 923 INTER-LIGAND FREE ENERGY PREDICTED BY IDOCK:   -2.49 KCAL/MOL
REMARK 924 INTRA-LIGAND FREE ENERGY PREDICTED BY IDOCK:    0.11 KCAL/MOL
REMARK 927      BINDING AFFINITY PREDICTED BY RF-SCORE:    0.00 PKD
ROOT
HETATM    1  C   UNL     1     -10.512   7.221  66.863  1.00  0.00    -0.369 C  
HETATM    2  C   UNL     1      -9.684   7.957  67.881  1.00  0.00    -0.155 C  
HETATM    3  N   UNL     1      -8.986   7.124  68.725  1.00  0.00    -0.129 N  
HETATM    4  O   UNL     1      -9.652   9.181  67.948  1.00  0.00    -0.143 OA 
HETATM    5  H   UNL     1      -9.069   6.115  68.608  1.00  0.00     0.000 HD 
ENDROOT
BRANCH   3   6
HETATM    6  C   UNL     1      -8.137   7.646  69.773  1.00  0.00    -0.125 C  
BRANCH   6   7
HETATM    7  C   UNL     1      -7.933   6.633  70.893  1.00  0.00    -0.110 C  
BRANCH   7   8
HETATM    8  C   UNL     1      -9.166   6.575  71.783  1.00  0.00    -0.149 C  
HETATM    9  S   UNL     1      -9.646   8.198  72.345  1.00  0.00    -0.294 S  
HETATM   10  O   UNL     1     -10.148   8.980  71.242  1.00  0.00    -0.259 OA 
HETATM   11  O   UNL     1      -8.659   8.696  73.277  1.00  0.00    -0.375 OA 
HETATM   12  O   UNL     1     -10.902   7.740  73.250  1.00  0.00    -0.383 OA 
ENDBRANCH   7   8
ENDBRANCH   6   7
ENDBRANCH   3   6
TORSDOF 3
ENDMDL
MODEL      266
REMARK 921   NORMALIZED FREE ENERGY PREDICTED BY IDOCK:   -1.93 KCAL/MOL
REMARK 922        TOTAL FREE ENERGY PREDICTED BY IDOCK:   -2.38 KCAL/MOL
REMARK 923 INTER-LIGAND FREE ENERGY PREDICTED BY IDOCK:   -2.23 KCAL/MOL
REMARK 924 INTRA-LIGAND FREE ENERGY PREDICTED BY IDOCK:   -0.15 KCAL/MOL
REMARK 927      BINDING AFFINITY PREDICTED BY RF-SCORE:    0.00 PKD
ROOT
HETATM    1  C   UNL     1     -10.576   6.826  73.434  1.00  0.00    -0.351 C  
HETATM    2  C   UNL     1     -10.442   5.937  72.229  1.00  0.00    -0.205 C  
HETATM    3  N   UNL     1     -11.037   6.451  71.100  1.00  0.00    -0.277 N  
HETATM    4  O   UNL     1      -9.865   4.855  72.264  1.00  0.00    -0.158 OA 
HETATM    5  H   UNL     1     -11.503   7.356  71.152  1.00  0.00     0.000 HD 
ENDROOT
BRANCH   3   6
HETATM    6  C   UNL     1     -11.018   5.739  69.840  1.00  0.00    -0.319 C  
BRANCH   6   7
HETATM    7  C   UNL     1     -10.931   6.690  68.654  1.00  0.00    -0.317 C  
BRANCH   7   8
HETATM    8  C   UNL     1     -10.122   6.060  67.530  1.00  0.00    -0.159 C  
HETATM    9  S   UNL     1      -8.481   6.751  67.436  1.00  0.00    -0.121 S  
HETATM   10  O   UNL     1      -7.704   6.350  68.583  1.00  0.00    -0.098 OA 
HETATM   11  O   UNL     1      -8.561   8.120  66.979  1.00  0.00    -0.120 OA 
HETATM   12  O   UNL     1      -7.972   5.901  66.161  1.00  0.00    -0.102 OA 
ENDBRANCH   7   8
ENDBRANCH   6   7
ENDBRANCH   3   6
TORSDOF 3
ENDMDL
MODEL      267
REMARK 921   NORMALIZED FREE ENERGY PREDICTED BY IDOCK:   -1.92 KCAL/MOL
REMARK 922        TOTAL FREE ENERGY PREDICTED BY IDOCK:   -2.36 KCAL/MOL
REMARK 923 INTER-LIGAND FREE ENERGY PREDICTED BY IDOCK:   -2.14 KCAL/MOL
REMARK 924 INTRA-LIGAND FREE ENERGY PREDICTED BY IDOCK:   -0.22 KCAL/MOL
REMARK 927      BINDING AFFINITY PREDICTED BY RF-SCORE:    0.00 PKD
ROOT
HETATM    1  C   UNL     1      -7.338  10.762  68.240  1.00  0.00    -0.086 C  
HETATM    2  C   UNL     1      -7.840  10.282  69.574  1.00  0.00    -0.168 C  
HETATM    3  N   UNL     1      -9.133   9.814  69.535  1.00  0.00    -0.200 N  
HETATM    4  O   UNL     1      -7.157  10.320  70.592  1.00  0.00    -0.322 OA 
HETATM    5  H   UNL     1      -9.638   9.820  68.650  1.00  0.00     0.000 HD 
ENDROOT
BRANCH   3   6
HETATM    6  C   UNL     1      -9.794   9.312  70.721  1.00  0.00    -0.283 C  
BRANCH   6   7
HETATM    7  C   UNL     1     -10.887   8.309  70.377  1.00  0.00    -0.241 C  
BRANCH   7   8
HETATM    8  C   UNL     1     -10.581   7.627  69.052  1.00  0.00    -0.174 C  
HETATM    9  S   UNL     1      -9.683   6.105  69.290  1.00  0.00    -0.140 S  
HETATM   10  O   UNL     1     -10.531   5.116  69.910  1.00  0.00    -0.295 OA 
HETATM   11  O   UNL     1      -8.348   6.402  69.758  1.00  0.00    -0.123 OA 
HETATM   12  O   UNL     1      -9.516   5.718  67.731  1.00  0.00    -0.111 OA 
ENDBRANCH   7   8
ENDBRANCH   6   7
ENDBRANCH   3   6
TORSDOF 3
ENDMDL
MODEL      268
REMARK 921   NORMALIZED FREE ENERGY PREDICTED BY IDOCK:   -1.92 KCAL/MOL
REMARK 922        TOTAL FREE ENERGY PREDICTED BY IDOCK:   -2.36 KCAL/MOL
REMARK 923 INTER-LIGAND FREE ENERGY PREDICTED BY IDOCK:   -2.19 KCAL/MOL
REMARK 924 INTRA-LIGAND FREE ENERGY PREDICTED BY IDOCK:   -0.17 KCAL/MOL
REMARK 927      BINDING AFFINITY PREDICTED BY RF-SCORE:    0.00 PKD
ROOT
HETATM    1  C   UNL     1      -9.826   4.632  68.262  1.00  0.00    -0.168 C  
HETATM    2  C   UNL     1      -9.212   5.824  67.582  1.00  0.00    -0.105 C  
HETATM    3  N   UNL     1      -9.756   7.023  67.982  1.00  0.00    -0.128 N  
HETATM    4  O   UNL     1      -8.321   5.724  66.745  1.00  0.00    -0.108 OA 
HETATM    5  H   UNL     1     -10.499   7.024  68.679  1.00  0.00     0.000 HD 
ENDROOT
BRANCH   3   6
HETATM    6  C   UNL     1      -9.299   8.283  67.436  1.00  0.00    -0.141 C  
BRANCH   6   7
HETATM    7  C   UNL     1      -9.241   9.372  68.500  1.00  0.00    -0.131 C  
BRANCH   7   8
HETATM    8  C   UNL     1     -10.614   9.574  69.124  1.00  0.00    -0.222 C  
HETATM    9  S   UNL     1     -11.403  11.051  68.512  1.00  0.00    -0.312 S  
HETATM   10  O   UNL     1     -11.760  10.888  67.124  1.00  0.00    -0.393 OA 
HETATM   11  O   UNL     1     -10.703  12.213  69.012  1.00  0.00    -0.200 OA 
HETATM   12  O   UNL     1     -12.751  10.947  69.395  1.00  0.00    -0.284 OA 
ENDBRANCH   7   8
ENDBRANCH   6   7
ENDBRANCH   3   6
TORSDOF 3
ENDMDL
MODEL      269
REMARK 921   NORMALIZED FREE ENERGY PREDICTED BY IDOCK:   -1.90 KCAL/MOL
REMARK 922        TOTAL FREE ENERGY PREDICTED BY IDOCK:   -2.34 KCAL/MOL
REMARK 923 INTER-LIGAND FREE ENERGY PREDICTED BY IDOCK:   -1.86 KCAL/MOL
REMARK 924 INTRA-LIGAND FREE ENERGY PREDICTED BY IDOCK:   -0.49 KCAL/MOL
REMARK 927      BINDING AFFINITY PREDICTED BY RF-SCORE:    0.00 PKD
ROOT
HETATM    1  C   UNL     1     -10.864   5.989  66.965  1.00  0.00    -0.413 C  
HETATM    2  C   UNL     1     -10.240   4.776  66.333  1.00  0.00    -0.275 C  
HETATM    3  N   UNL     1     -10.194   4.836  64.959  1.00  0.00    -0.411 N  
HETATM    4  O   UNL     1      -9.826   3.826  66.989  1.00  0.00    -0.179 OA 
HETATM    5  H   UNL     1     -10.563   5.659  64.485  1.00  0.00     0.000 HD 
ENDROOT
BRANCH   3   6
HETATM    6  C   UNL     1      -9.633   3.761  64.170  1.00  0.00    -0.163 C  
BRANCH   6   7
HETATM    7  C   UNL     1      -8.479   4.240  63.298  1.00  0.00    -0.104 C  
BRANCH   7   8
HETATM    8  C   UNL     1      -7.305   4.668  64.165  1.00  0.00    -0.059 C  
HETATM    9  S   UNL     1      -7.037   6.429  64.084  1.00  0.00    -0.061 S  
HETATM   10  O   UNL     1      -8.118   7.129  64.733  1.00  0.00    -0.125 OA 
HETATM   11  O   UNL     1      -6.548   6.782  62.770  1.00  0.00    -0.041 OA 
HETATM   12  O   UNL     1      -5.746   6.487  65.053  1.00  0.00    -0.025 OA 
ENDBRANCH   7   8
ENDBRANCH   6   7
ENDBRANCH   3   6
TORSDOF 3
ENDMDL
MODEL      270
REMARK 921   NORMALIZED FREE ENERGY PREDICTED BY IDOCK:   -1.88 KCAL/MOL
REMARK 922        TOTAL FREE ENERGY PREDICTED BY IDOCK:   -2.32 KCAL/MOL
REMARK 923 INTER-LIGAND FREE ENERGY PREDICTED BY IDOCK:   -2.15 KCAL/MOL
REMARK 924 INTRA-LIGAND FREE ENERGY PREDICTED BY IDOCK:   -0.17 KCAL/MOL
REMARK 927      BINDING AFFINITY PREDICTED BY RF-SCORE:    0.00 PKD
ROOT
HETATM    1  C   UNL     1     -10.596   7.133  73.356  1.00  0.00    -0.424 C  
HETATM    2  C   UNL     1      -9.376   7.642  72.640  1.00  0.00    -0.172 C  
HETATM    3  N   UNL     1      -8.742   6.681  71.887  1.00  0.00    -0.129 N  
HETATM    4  O   UNL     1      -8.986   8.802  72.735  1.00  0.00    -0.361 OA 
HETATM    5  H   UNL     1      -9.124   5.737  71.863  1.00  0.00     0.000 HD 
ENDROOT
BRANCH   3   6
HETATM    6  C   UNL     1      -7.546   6.978  71.128  1.00  0.00    -0.086 C  
BRANCH   6   7
HETATM    7  C   UNL     1      -7.797   6.908  69.627  1.00  0.00    -0.119 C  
BRANCH   7   8
HETATM    8  C   UNL     1      -8.603   8.115  69.170  1.00  0.00    -0.136 C  
HETATM    9  S   UNL     1      -9.674   7.709  67.803  1.00  0.00    -0.155 S  
HETATM   10  O   UNL     1     -10.731   6.830  68.242  1.00  0.00    -0.214 OA 
HETATM   11  O   UNL     1      -8.876   7.452  66.625  1.00  0.00    -0.130 OA 
HETATM   12  O   UNL     1     -10.300   9.181  67.586  1.00  0.00    -0.224 OA 
ENDBRANCH   7   8
ENDBRANCH   6   7
ENDBRANCH   3   6
TORSDOF 3
ENDMDL
MODEL      271
REMARK 921   NORMALIZED FREE ENERGY PREDICTED BY IDOCK:   -1.87 KCAL/MOL
REMARK 922        TOTAL FREE ENERGY PREDICTED BY IDOCK:   -2.31 KCAL/MOL
REMARK 923 INTER-LIGAND FREE ENERGY PREDICTED BY IDOCK:   -2.14 KCAL/MOL
REMARK 924 INTRA-LIGAND FREE ENERGY PREDICTED BY IDOCK:   -0.17 KCAL/MOL
REMARK 927      BINDING AFFINITY PREDICTED BY RF-SCORE:    0.00 PKD
ROOT
HETATM    1  C   UNL     1     -11.460   5.574  72.599  1.00  0.00    -0.331 C  
HETATM    2  C   UNL     1     -10.121   6.031  72.091  1.00  0.00    -0.181 C  
HETATM    3  N   UNL     1     -10.135   6.398  70.765  1.00  0.00    -0.185 N  
HETATM    4  O   UNL     1      -9.118   6.061  72.797  1.00  0.00    -0.131 OA 
HETATM    5  H   UNL     1     -11.008   6.340  70.242  1.00  0.00     0.000 HD 
ENDROOT
BRANCH   3   6
HETATM    6  C   UNL     1      -8.940   6.862  70.093  1.00  0.00    -0.149 C  
BRANCH   6   7
HETATM    7  C   UNL     1      -9.190   7.130  68.614  1.00  0.00    -0.135 C  
BRANCH   7   8
HETATM    8  C   UNL     1     -10.407   8.026  68.438  1.00  0.00    -0.199 C  
HETATM    9  S   UNL     1      -9.936   9.719  68.137  1.00  0.00    -0.160 S  
HETATM   10  O   UNL     1      -9.320   9.844  66.839  1.00  0.00    -0.147 OA 
HETATM   11  O   UNL     1      -9.357  10.278  69.339  1.00  0.00    -0.204 OA 
HETATM   12  O   UNL     1     -11.426  10.336  68.050  1.00  0.00    -0.314 OA 
ENDBRANCH   7   8
ENDBRANCH   6   7
ENDBRANCH   3   6
TORSDOF 3
ENDMDL
MODEL      272
REMARK 921   NORMALIZED FREE ENERGY PREDICTED BY IDOCK:   -1.86 KCAL/MOL
REMARK 922        TOTAL FREE ENERGY PREDICTED BY IDOCK:   -2.30 KCAL/MOL
REMARK 923 INTER-LIGAND FREE ENERGY PREDICTED BY IDOCK:   -1.87 KCAL/MOL
REMARK 924 INTRA-LIGAND FREE ENERGY PREDICTED BY IDOCK:   -0.43 KCAL/MOL
REMARK 927      BINDING AFFINITY PREDICTED BY RF-SCORE:    0.00 PKD
ROOT
HETATM    1  C   UNL     1      -9.302   9.633  68.674  1.00  0.00    -0.143 C  
HETATM    2  C   UNL     1     -10.015   8.856  67.603  1.00  0.00    -0.196 C  
HETATM    3  N   UNL     1     -10.316   7.565  67.971  1.00  0.00    -0.198 N  
HETATM    4  O   UNL     1     -10.286   9.334  66.506  1.00  0.00    -0.269 OA 
HETATM    5  H   UNL     1     -10.052   7.239  68.901  1.00  0.00     0.000 HD 
ENDROOT
BRANCH   3   6
HETATM    6  C   UNL     1     -10.998   6.659  67.073  1.00  0.00    -0.393 C  
BRANCH   6   7
HETATM    7  C   UNL     1     -10.469   5.235  67.196  1.00  0.00    -0.261 C  
BRANCH   7   8
HETATM    8  C   UNL     1      -8.982   5.195  66.878  1.00  0.00    -0.109 C  
HETATM    9  S   UNL     1      -8.016   4.763  68.313  1.00  0.00    -0.085 S  
HETATM   10  O   UNL     1      -8.250   3.386  68.676  1.00  0.00    -0.067 OA 
HETATM   11  O   UNL     1      -8.061   5.847  69.268  1.00  0.00    -0.103 OA 
HETATM   12  O   UNL     1      -6.561   4.860  67.619  1.00  0.00    -0.047 OA 
ENDBRANCH   7   8
ENDBRANCH   6   7
ENDBRANCH   3   6
TORSDOF 3
ENDMDL
MODEL      273
REMARK 921   NORMALIZED FREE ENERGY PREDICTED BY IDOCK:   -1.79 KCAL/MOL
REMARK 922        TOTAL FREE ENERGY PREDICTED BY IDOCK:   -2.21 KCAL/MOL
REMARK 923 INTER-LIGAND FREE ENERGY PREDICTED BY IDOCK:   -2.16 KCAL/MOL
REMARK 924 INTRA-LIGAND FREE ENERGY PREDICTED BY IDOCK:   -0.05 KCAL/MOL
REMARK 927      BINDING AFFINITY PREDICTED BY RF-SCORE:    0.00 PKD
ROOT
HETATM    1  C   UNL     1     -13.756  15.058  71.907  1.00  0.00    -0.548 C  
HETATM    2  C   UNL     1     -12.815  15.254  70.751  1.00  0.00    -0.437 C  
HETATM    3  N   UNL     1     -12.071  14.135  70.455  1.00  0.00    -0.329 N  
HETATM    4  O   UNL     1     -12.720  16.316  70.145  1.00  0.00     0.055 OA 
HETATM    5  H   UNL     1     -12.203  13.290  71.009  1.00  0.00     0.000 HD 
ENDROOT
BRANCH   3   6
HETATM    6  C   UNL     1     -11.106  14.129  69.377  1.00  0.00    -0.221 C  
BRANCH   6   7
HETATM    7  C   UNL     1      -9.873  14.956  69.717  1.00  0.00     0.056 C  
BRANCH   7   8
HETATM    8  C   UNL     1      -9.193  15.438  68.444  1.00  0.00    -0.192 C  
HETATM    9  S   UNL     1      -7.588  14.691  68.233  1.00  0.00    -0.130 S  
HETATM   10  O   UNL     1      -7.727  13.283  67.947  1.00  0.00    -0.122 OA 
HETATM   11  O   UNL     1      -6.683  15.204  69.236  1.00  0.00    -0.123 OA 
HETATM   12  O   UNL     1      -7.187  15.446  66.863  1.00  0.00    -0.172 OA 
ENDBRANCH   7   8
ENDBRANCH   6   7
ENDBRANCH   3   6
TORSDOF 3
ENDMDL
MODEL      274
REMARK 921   NORMALIZED FREE ENERGY PREDICTED BY IDOCK:   -1.77 KCAL/MOL
REMARK 922        TOTAL FREE ENERGY PREDICTED BY IDOCK:   -2.19 KCAL/MOL
REMARK 923 INTER-LIGAND FREE ENERGY PREDICTED BY IDOCK:   -1.85 KCAL/MOL
REMARK 924 INTRA-LIGAND FREE ENERGY PREDICTED BY IDOCK:   -0.33 KCAL/MOL
REMARK 927      BINDING AFFINITY PREDICTED BY RF-SCORE:    0.00 PKD
ROOT
HETATM    1  C   UNL     1      -7.419   5.784  68.873  1.00  0.00    -0.085 C  
HETATM    2  C   UNL     1      -8.447   6.586  69.621  1.00  0.00    -0.131 C  
HETATM    3  N   UNL     1      -9.056   7.550  68.850  1.00  0.00    -0.140 N  
HETATM    4  O   UNL     1      -8.702   6.398  70.805  1.00  0.00    -0.137 OA 
HETATM    5  H   UNL     1      -8.785   7.649  67.873  1.00  0.00     0.000 HD 
ENDROOT
BRANCH   3   6
HETATM    6  C   UNL     1     -10.071   8.427  69.394  1.00  0.00    -0.198 C  
BRANCH   6   7
HETATM    7  C   UNL     1     -10.617   9.382  68.340  1.00  0.00    -0.247 C  
BRANCH   7   8
HETATM    8  C   UNL     1     -10.294   8.869  66.944  1.00  0.00    -0.262 C  
HETATM    9  S   UNL     1      -9.055   9.873  66.147  1.00  0.00    -0.166 S  
HETATM   10  O   UNL     1      -7.779   9.702  66.798  1.00  0.00    -0.097 OA 
HETATM   11  O   UNL     1      -9.613  11.170  65.838  1.00  0.00    -0.201 OA 
HETATM   12  O   UNL     1      -9.015   9.076  64.743  1.00  0.00    -0.188 OA 
ENDBRANCH   7   8
ENDBRANCH   6   7
ENDBRANCH   3   6
TORSDOF 3
ENDMDL
MODEL      275
REMARK 921   NORMALIZED FREE ENERGY PREDICTED BY IDOCK:   -1.77 KCAL/MOL
REMARK 922        TOTAL FREE ENERGY PREDICTED BY IDOCK:   -2.19 KCAL/MOL
REMARK 923 INTER-LIGAND FREE ENERGY PREDICTED BY IDOCK:   -2.14 KCAL/MOL
REMARK 924 INTRA-LIGAND FREE ENERGY PREDICTED BY IDOCK:   -0.05 KCAL/MOL
REMARK 927      BINDING AFFINITY PREDICTED BY RF-SCORE:    0.00 PKD
ROOT
HETATM    1  C   UNL     1      -8.071   9.417  70.035  1.00  0.00    -0.159 C  
HETATM    2  C   UNL     1      -8.611   8.939  68.716  1.00  0.00    -0.136 C  
HETATM    3  N   UNL     1      -8.730   9.939  67.779  1.00  0.00    -0.128 N  
HETATM    4  O   UNL     1      -8.922   7.771  68.511  1.00  0.00    -0.134 OA 
HETATM    5  H   UNL     1      -8.455  10.889  68.027  1.00  0.00     0.000 HD 
ENDROOT
BRANCH   3   6
HETATM    6  C   UNL     1      -9.235   9.677  66.448  1.00  0.00    -0.163 C  
BRANCH   6   7
HETATM    7  C   UNL     1      -9.185  10.919  65.569  1.00  0.00    -0.232 C  
BRANCH   7   8
HETATM    8  C   UNL     1     -10.331  11.859  65.916  1.00  0.00    -0.242 C  
HETATM    9  S   UNL     1      -9.849  13.052  67.151  1.00  0.00    -0.235 S  
HETATM   10  O   UNL     1      -8.896  13.984  66.600  1.00  0.00    -0.196 OA 
HETATM   11  O   UNL     1      -9.653  12.382  68.417  1.00  0.00    -0.216 OA 
HETATM   12  O   UNL     1     -11.273  13.804  67.277  1.00  0.00    -0.293 OA 
ENDBRANCH   7   8
ENDBRANCH   6   7
ENDBRANCH   3   6
TORSDOF 3
ENDMDL
MODEL      276
REMARK 921   NORMALIZED FREE ENERGY PREDICTED BY IDOCK:   -1.76 KCAL/MOL
REMARK 922        TOTAL FREE ENERGY PREDICTED BY IDOCK:   -2.18 KCAL/MOL
REMARK 923 INTER-LIGAND FREE ENERGY PREDICTED BY IDOCK:   -2.00 KCAL/MOL
REMARK 924 INTRA-LIGAND FREE ENERGY PREDICTED BY IDOCK:   -0.18 KCAL/MOL
REMARK 927      BINDING AFFINITY PREDICTED BY RF-SCORE:    0.00 PKD
ROOT
HETATM    1  C   UNL     1     -10.541   5.865  72.589  1.00  0.00    -0.255 C  
HETATM    2  C   UNL     1      -9.819   4.772  71.852  1.00  0.00    -0.176 C  
HETATM    3  N   UNL     1     -10.080   4.756  70.501  1.00  0.00    -0.235 N  
HETATM    4  O   UNL     1      -9.079   3.970  72.413  1.00  0.00    -0.111 OA 
HETATM    5  H   UNL     1     -10.712   5.454  70.109  1.00  0.00     0.000 HD 
ENDROOT
BRANCH   3   6
HETATM    6  C   UNL     1      -9.481   3.775  69.623  1.00  0.00    -0.188 C  
BRANCH   6   7
HETATM    7  C   UNL     1      -9.207   4.347  68.238  1.00  0.00    -0.182 C  
BRANCH   7   8
HETATM    8  C   UNL     1     -10.285   5.351  67.859  1.00  0.00    -0.165 C  
HETATM    9  S   UNL     1      -9.596   6.775  67.036  1.00  0.00    -0.159 S  
HETATM   10  O   UNL     1      -9.101   6.407  65.732  1.00  0.00    -0.112 OA 
HETATM   11  O   UNL     1      -8.822   7.549  67.981  1.00  0.00    -0.128 OA 
HETATM   12  O   UNL     1     -10.976   7.589  66.840  1.00  0.00    -0.292 OA 
ENDBRANCH   7   8
ENDBRANCH   6   7
ENDBRANCH   3   6
TORSDOF 3
ENDMDL
MODEL      277
REMARK 921   NORMALIZED FREE ENERGY PREDICTED BY IDOCK:   -1.76 KCAL/MOL
REMARK 922        TOTAL FREE ENERGY PREDICTED BY IDOCK:   -2.18 KCAL/MOL
REMARK 923 INTER-LIGAND FREE ENERGY PREDICTED BY IDOCK:   -1.95 KCAL/MOL
REMARK 924 INTRA-LIGAND FREE ENERGY PREDICTED BY IDOCK:   -0.23 KCAL/MOL
REMARK 927      BINDING AFFINITY PREDICTED BY RF-SCORE:    0.00 PKD
ROOT
HETATM    1  C   UNL     1      -9.368   8.600  66.460  1.00  0.00    -0.257 C  
HETATM    2  C   UNL     1      -8.512   7.912  67.487  1.00  0.00    -0.123 C  
HETATM    3  N   UNL     1      -7.572   8.738  68.059  1.00  0.00    -0.096 N  
HETATM    4  O   UNL     1      -8.641   6.726  67.772  1.00  0.00    -0.121 OA 
HETATM    5  H   UNL     1      -7.523   9.713  67.766  1.00  0.00     0.000 HD 
ENDROOT
BRANCH   3   6
HETATM    6  C   UNL     1      -6.651   8.258  69.067  1.00  0.00    -0.048 C  
BRANCH   6   7
HETATM    7  C   UNL     1      -6.769   9.048  70.364  1.00  0.00    -0.052 C  
BRANCH   7   8
HETATM    8  C   UNL     1      -8.167   9.633  70.501  1.00  0.00    -0.098 C  
HETATM    9  S   UNL     1      -9.209   8.609  71.524  1.00  0.00    -0.266 S  
HETATM   10  O   UNL     1      -8.763   8.655  72.895  1.00  0.00    -0.384 OA 
HETATM   11  O   UNL     1      -9.497   7.373  70.831  1.00  0.00    -0.165 OA 
HETATM   12  O   UNL     1     -10.554   9.495  71.401  1.00  0.00    -0.336 OA 
ENDBRANCH   7   8
ENDBRANCH   6   7
ENDBRANCH   3   6
TORSDOF 3
ENDMDL
MODEL      278
REMARK 921   NORMALIZED FREE ENERGY PREDICTED BY IDOCK:   -1.70 KCAL/MOL
REMARK 922        TOTAL FREE ENERGY PREDICTED BY IDOCK:   -2.11 KCAL/MOL
REMARK 923 INTER-LIGAND FREE ENERGY PREDICTED BY IDOCK:   -2.01 KCAL/MOL
REMARK 924 INTRA-LIGAND FREE ENERGY PREDICTED BY IDOCK:   -0.09 KCAL/MOL
REMARK 927      BINDING AFFINITY PREDICTED BY RF-SCORE:    0.00 PKD
ROOT
HETATM    1  C   UNL     1     -10.091   7.257  73.623  1.00  0.00    -0.387 C  
HETATM    2  C   UNL     1      -9.279   8.252  72.841  1.00  0.00    -0.259 C  
HETATM    3  N   UNL     1      -9.757   8.471  71.570  1.00  0.00    -0.209 N  
HETATM    4  O   UNL     1      -8.282   8.801  73.300  1.00  0.00    -0.402 OA 
HETATM    5  H   UNL     1     -10.590   7.972  71.259  1.00  0.00     0.000 HD 
ENDROOT
BRANCH   3   6
HETATM    6  C   UNL     1      -9.108   9.393  70.663  1.00  0.00    -0.233 C  
BRANCH   6   7
HETATM    7  C   UNL     1      -8.635   8.698  69.393  1.00  0.00    -0.127 C  
BRANCH   7   8
HETATM    8  C   UNL     1      -8.071   7.324  69.721  1.00  0.00    -0.128 C  
HETATM    9  S   UNL     1      -7.080   6.685  68.384  1.00  0.00    -0.085 S  
HETATM   10  O   UNL     1      -5.864   7.450  68.254  1.00  0.00    -0.025 OA 
HETATM   11  O   UNL     1      -7.934   6.368  67.261  1.00  0.00    -0.110 OA 
HETATM   12  O   UNL     1      -6.712   5.265  69.059  1.00  0.00    -0.049 OA 
ENDBRANCH   7   8
ENDBRANCH   6   7
ENDBRANCH   3   6
TORSDOF 3
ENDMDL
MODEL      279
REMARK 921   NORMALIZED FREE ENERGY PREDICTED BY IDOCK:   -1.70 KCAL/MOL
REMARK 922        TOTAL FREE ENERGY PREDICTED BY IDOCK:   -2.10 KCAL/MOL
REMARK 923 INTER-LIGAND FREE ENERGY PREDICTED BY IDOCK:   -1.95 KCAL/MOL
REMARK 924 INTRA-LIGAND FREE ENERGY PREDICTED BY IDOCK:   -0.15 KCAL/MOL
REMARK 927      BINDING AFFINITY PREDICTED BY RF-SCORE:    0.00 PKD
ROOT
HETATM    1  C   UNL     1      -8.944  10.312  67.451  1.00  0.00    -0.141 C  
HETATM    2  C   UNL     1      -9.227   9.763  68.822  1.00  0.00    -0.143 C  
HETATM    3  N   UNL     1     -10.248   8.841  68.842  1.00  0.00    -0.203 N  
HETATM    4  O   UNL     1      -8.608  10.119  69.819  1.00  0.00    -0.184 OA 
HETATM    5  H   UNL     1     -10.719   8.601  67.971  1.00  0.00     0.000 HD 
ENDROOT
BRANCH   3   6
HETATM    6  C   UNL     1     -10.671   8.203  70.071  1.00  0.00    -0.243 C  
BRANCH   6   7
HETATM    7  C   UNL     1      -9.856   6.951  70.367  1.00  0.00    -0.187 C  
BRANCH   7   8
HETATM    8  C   UNL     1      -9.345   6.980  71.800  1.00  0.00    -0.144 C  
HETATM    9  S   UNL     1     -10.507   6.232  72.926  1.00  0.00    -0.231 S  
HETATM   10  O   UNL     1     -10.581   4.810  72.696  1.00  0.00    -0.203 OA 
HETATM   11  O   UNL     1     -11.679   7.072  73.037  1.00  0.00    -0.048 OA 
HETATM   12  O   UNL     1      -9.669   6.480  74.284  1.00  0.00    -0.227 OA 
ENDBRANCH   7   8
ENDBRANCH   6   7
ENDBRANCH   3   6
TORSDOF 3
ENDMDL
MODEL      280
REMARK 921   NORMALIZED FREE ENERGY PREDICTED BY IDOCK:   -1.69 KCAL/MOL
REMARK 922        TOTAL FREE ENERGY PREDICTED BY IDOCK:   -2.10 KCAL/MOL
REMARK 923 INTER-LIGAND FREE ENERGY PREDICTED BY IDOCK:   -1.89 KCAL/MOL
REMARK 924 INTRA-LIGAND FREE ENERGY PREDICTED BY IDOCK:   -0.21 KCAL/MOL
REMARK 927      BINDING AFFINITY PREDICTED BY RF-SCORE:    0.00 PKD
ROOT
HETATM    1  C   UNL     1      -7.138   2.709  69.324  1.00  0.00    -0.044 C  
HETATM    2  C   UNL     1      -7.777   3.754  70.195  1.00  0.00    -0.048 C  
HETATM    3  N   UNL     1      -7.240   5.010  70.027  1.00  0.00    -0.057 N  
HETATM    4  O   UNL     1      -8.682   3.498  70.982  1.00  0.00    -0.070 OA 
HETATM    5  H   UNL     1      -6.485   5.142  69.356  1.00  0.00     0.000 HD 
ENDROOT
BRANCH   3   6
HETATM    6  C   UNL     1      -7.721   6.148  70.781  1.00  0.00    -0.102 C  
BRANCH   6   7
HETATM    7  C   UNL     1      -8.921   6.804  70.110  1.00  0.00    -0.149 C  
BRANCH   7   8
HETATM    8  C   UNL     1      -9.719   7.607  71.126  1.00  0.00    -0.162 C  
HETATM    9  S   UNL     1     -11.192   6.741  71.636  1.00  0.00    -0.268 S  
HETATM   10  O   UNL     1     -10.843   5.584  72.424  1.00  0.00    -0.227 OA 
HETATM   11  O   UNL     1     -12.127   6.689  70.534  1.00  0.00    -0.390 OA 
HETATM   12  O   UNL     1     -11.764   7.875  72.633  1.00  0.00    -0.370 OA 
ENDBRANCH   7   8
ENDBRANCH   6   7
ENDBRANCH   3   6
TORSDOF 3
ENDMDL
MODEL      281
REMARK 921   NORMALIZED FREE ENERGY PREDICTED BY IDOCK:   -1.67 KCAL/MOL
REMARK 922        TOTAL FREE ENERGY PREDICTED BY IDOCK:   -2.07 KCAL/MOL
REMARK 923 INTER-LIGAND FREE ENERGY PREDICTED BY IDOCK:   -1.79 KCAL/MOL
REMARK 924 INTRA-LIGAND FREE ENERGY PREDICTED BY IDOCK:   -0.28 KCAL/MOL
REMARK 927      BINDING AFFINITY PREDICTED BY RF-SCORE:    0.00 PKD
ROOT
HETATM    1  C   UNL     1      -7.089   6.180  68.704  1.00  0.00    -0.082 C  
HETATM    2  C   UNL     1      -8.590   6.203  68.799  1.00  0.00    -0.120 C  
HETATM    3  N   UNL     1      -9.084   5.456  69.844  1.00  0.00    -0.133 N  
HETATM    4  O   UNL     1      -9.295   6.822  68.009  1.00  0.00    -0.121 OA 
HETATM    5  H   UNL     1      -8.433   4.965  70.455  1.00  0.00     0.000 HD 
ENDROOT
BRANCH   3   6
HETATM    6  C   UNL     1     -10.505   5.352  70.097  1.00  0.00    -0.290 C  
BRANCH   6   7
HETATM    7  C   UNL     1     -10.881   5.925  71.457  1.00  0.00    -0.325 C  
BRANCH   7   8
HETATM    8  C   UNL     1      -9.675   5.916  72.385  1.00  0.00    -0.159 C  
HETATM    9  S   UNL     1      -9.535   4.371  73.264  1.00  0.00    -0.119 S  
HETATM   10  O   UNL     1      -9.181   3.309  72.353  1.00  0.00    -0.097 OA 
HETATM   11  O   UNL     1     -10.615   4.261  74.219  1.00  0.00    -0.240 OA 
HETATM   12  O   UNL     1      -8.227   4.745  74.134  1.00  0.00    -0.100 OA 
ENDBRANCH   7   8
ENDBRANCH   6   7
ENDBRANCH   3   6
TORSDOF 3
ENDMDL
MODEL      282
REMARK 921   NORMALIZED FREE ENERGY PREDICTED BY IDOCK:   -1.65 KCAL/MOL
REMARK 922        TOTAL FREE ENERGY PREDICTED BY IDOCK:   -2.04 KCAL/MOL
REMARK 923 INTER-LIGAND FREE ENERGY PREDICTED BY IDOCK:   -1.77 KCAL/MOL
REMARK 924 INTRA-LIGAND FREE ENERGY PREDICTED BY IDOCK:   -0.27 KCAL/MOL
REMARK 927      BINDING AFFINITY PREDICTED BY RF-SCORE:    0.00 PKD
ROOT
HETATM    1  C   UNL     1      -8.387   8.292  72.414  1.00  0.00    -0.231 C  
HETATM    2  C   UNL     1      -9.358   7.972  71.312  1.00  0.00    -0.150 C  
HETATM    3  N   UNL     1      -9.917   6.719  71.421  1.00  0.00    -0.179 N  
HETATM    4  O   UNL     1      -9.612   8.755  70.403  1.00  0.00    -0.166 OA 
HETATM    5  H   UNL     1      -9.651   6.123  72.204  1.00  0.00     0.000 HD 
ENDROOT
BRANCH   3   6
HETATM    6  C   UNL     1     -10.873   6.227  70.453  1.00  0.00    -0.299 C  
BRANCH   6   7
HETATM    7  C   UNL     1     -10.305   5.078  69.630  1.00  0.00    -0.260 C  
BRANCH   7   8
HETATM    8  C   UNL     1      -9.087   4.486  70.322  1.00  0.00    -0.101 C  
HETATM    9  S   UNL     1      -9.516   3.054  71.294  1.00  0.00    -0.155 S  
HETATM   10  O   UNL     1      -9.894   1.960  70.433  1.00  0.00    -0.022 OA 
HETATM   11  O   UNL     1     -10.303   3.465  72.435  1.00  0.00    -0.155 OA 
HETATM   12  O   UNL     1      -8.041   2.750  71.876  1.00  0.00    -0.056 OA 
ENDBRANCH   7   8
ENDBRANCH   6   7
ENDBRANCH   3   6
TORSDOF 3
ENDMDL
MODEL      283
REMARK 921   NORMALIZED FREE ENERGY PREDICTED BY IDOCK:   -1.62 KCAL/MOL
REMARK 922        TOTAL FREE ENERGY PREDICTED BY IDOCK:   -2.01 KCAL/MOL
REMARK 923 INTER-LIGAND FREE ENERGY PREDICTED BY IDOCK:   -1.88 KCAL/MOL
REMARK 924 INTRA-LIGAND FREE ENERGY PREDICTED BY IDOCK:   -0.13 KCAL/MOL
REMARK 927      BINDING AFFINITY PREDICTED BY RF-SCORE:    0.00 PKD
ROOT
HETATM    1  C   UNL     1      -8.079   8.397  71.690  1.00  0.00    -0.184 C  
HETATM    2  C   UNL     1      -9.123   8.490  70.612  1.00  0.00    -0.160 C  
HETATM    3  N   UNL     1      -9.908   7.365  70.512  1.00  0.00    -0.180 N  
HETATM    4  O   UNL     1      -9.246   9.475  69.891  1.00  0.00    -0.187 OA 
HETATM    5  H   UNL     1      -9.741   6.584  71.145  1.00  0.00     0.000 HD 
ENDROOT
BRANCH   3   6
HETATM    6  C   UNL     1     -10.967   7.263  69.530  1.00  0.00    -0.164 C  
BRANCH   6   7
HETATM    7  C   UNL     1     -10.817   6.020  68.663  1.00  0.00    -0.379 C  
BRANCH   7   8
HETATM    8  C   UNL     1      -9.367   5.559  68.647  1.00  0.00    -0.125 C  
HETATM    9  S   UNL     1      -9.234   3.821  68.273  1.00  0.00    -0.171 S  
HETATM   10  O   UNL     1      -9.610   3.575  66.902  1.00  0.00    -0.197 OA 
HETATM   11  O   UNL     1      -9.752   3.050  69.381  1.00  0.00    -0.080 OA 
HETATM   12  O   UNL     1      -7.627   3.707  68.383  1.00  0.00    -0.057 OA 
ENDBRANCH   7   8
ENDBRANCH   6   7
ENDBRANCH   3   6
TORSDOF 3
ENDMDL
MODEL      284
REMARK 921   NORMALIZED FREE ENERGY PREDICTED BY IDOCK:   -1.61 KCAL/MOL
REMARK 922        TOTAL FREE ENERGY PREDICTED BY IDOCK:   -2.00 KCAL/MOL
REMARK 923 INTER-LIGAND FREE ENERGY PREDICTED BY IDOCK:   -1.59 KCAL/MOL
REMARK 924 INTRA-LIGAND FREE ENERGY PREDICTED BY IDOCK:   -0.41 KCAL/MOL
REMARK 927      BINDING AFFINITY PREDICTED BY RF-SCORE:    0.00 PKD
ROOT
HETATM    1  C   UNL     1      -7.502   8.189  73.480  1.00  0.00    -0.197 C  
HETATM    2  C   UNL     1      -8.670   7.948  72.564  1.00  0.00    -0.154 C  
HETATM    3  N   UNL     1      -9.253   6.713  72.734  1.00  0.00    -0.136 N  
HETATM    4  O   UNL     1      -9.050   8.775  71.743  1.00  0.00    -0.234 OA 
HETATM    5  H   UNL     1      -8.875   6.077  73.435  1.00  0.00     0.000 HD 
ENDROOT
BRANCH   3   6
HETATM    6  C   UNL     1     -10.388   6.294  71.941  1.00  0.00    -0.204 C  
BRANCH   6   7
HETATM    7  C   UNL     1      -9.959   5.710  70.601  1.00  0.00    -0.260 C  
BRANCH   7   8
HETATM    8  C   UNL     1      -9.793   4.202  70.711  1.00  0.00    -0.178 C  
HETATM    9  S   UNL     1      -8.075   3.736  70.816  1.00  0.00    -0.062 S  
HETATM   10  O   UNL     1      -7.519   4.160  72.078  1.00  0.00    -0.065 OA 
HETATM   11  O   UNL     1      -7.430   3.989  69.547  1.00  0.00    -0.052 OA 
HETATM   12  O   UNL     1      -8.297   2.138  70.875  1.00  0.00    -0.049 OA 
ENDBRANCH   7   8
ENDBRANCH   6   7
ENDBRANCH   3   6
TORSDOF 3
ENDMDL
MODEL      285
REMARK 921   NORMALIZED FREE ENERGY PREDICTED BY IDOCK:   -1.60 KCAL/MOL
REMARK 922        TOTAL FREE ENERGY PREDICTED BY IDOCK:   -1.99 KCAL/MOL
REMARK 923 INTER-LIGAND FREE ENERGY PREDICTED BY IDOCK:   -1.70 KCAL/MOL
REMARK 924 INTRA-LIGAND FREE ENERGY PREDICTED BY IDOCK:   -0.29 KCAL/MOL
REMARK 927      BINDING AFFINITY PREDICTED BY RF-SCORE:    0.00 PKD
ROOT
HETATM    1  C   UNL     1      -7.477   7.641  64.215  1.00  0.00    -0.101 C  
HETATM    2  C   UNL     1      -8.284   6.617  64.964  1.00  0.00    -0.105 C  
HETATM    3  N   UNL     1      -8.739   7.064  66.183  1.00  0.00    -0.142 N  
HETATM    4  O   UNL     1      -8.501   5.493  64.524  1.00  0.00    -0.139 OA 
HETATM    5  H   UNL     1      -8.512   8.011  66.482  1.00  0.00     0.000 HD 
ENDROOT
BRANCH   3   6
HETATM    6  C   UNL     1      -9.531   6.221  67.053  1.00  0.00    -0.131 C  
BRANCH   6   7
HETATM    7  C   UNL     1     -10.530   7.031  67.870  1.00  0.00    -0.267 C  
BRANCH   7   8
HETATM    8  C   UNL     1     -10.290   8.520  67.671  1.00  0.00    -0.253 C  
HETATM    9  S   UNL     1      -9.199   9.181  68.917  1.00  0.00    -0.140 S  
HETATM   10  O   UNL     1      -7.863   8.667  68.735  1.00  0.00    -0.102 OA 
HETATM   11  O   UNL     1      -9.874   9.182  70.196  1.00  0.00    -0.175 OA 
HETATM   12  O   UNL     1      -9.220  10.716  68.418  1.00  0.00    -0.146 OA 
ENDBRANCH   7   8
ENDBRANCH   6   7
ENDBRANCH   3   6
TORSDOF 3
ENDMDL
MODEL      286
REMARK 921   NORMALIZED FREE ENERGY PREDICTED BY IDOCK:   -1.60 KCAL/MOL
REMARK 922        TOTAL FREE ENERGY PREDICTED BY IDOCK:   -1.99 KCAL/MOL
REMARK 923 INTER-LIGAND FREE ENERGY PREDICTED BY IDOCK:   -3.07 KCAL/MOL
REMARK 924 INTRA-LIGAND FREE ENERGY PREDICTED BY IDOCK:    1.07 KCAL/MOL
REMARK 927      BINDING AFFINITY PREDICTED BY RF-SCORE:    0.00 PKD
ROOT
HETATM    1  C   UNL     1     -12.941  13.940  70.468  1.00  0.00    -0.160 C  
HETATM    2  C   UNL     1     -11.845  14.578  69.661  1.00  0.00    -0.318 C  
HETATM    3  N   UNL     1     -11.756  15.940  69.838  1.00  0.00    -0.336 N  
HETATM    4  O   UNL     1     -11.114  13.938  68.912  1.00  0.00    -0.248 OA 
HETATM    5  H   UNL     1     -12.404  16.402  70.475  1.00  0.00     0.000 HD 
ENDROOT
BRANCH   3   6
HETATM    6  C   UNL     1     -10.765  16.733  69.142  1.00  0.00    -0.329 C  
BRANCH   6   7
HETATM    7  C   UNL     1     -10.864  16.563  67.631  1.00  0.00    -0.269 C  
BRANCH   7   8
HETATM    8  C   UNL     1      -9.739  17.320  66.941  1.00  0.00    -0.273 C  
HETATM    9  S   UNL     1      -8.684  18.145  68.118  1.00  0.00    -0.282 S  
HETATM   10  O   UNL     1      -7.930  17.177  68.877  1.00  0.00    -0.256 OA 
HETATM   11  O   UNL     1      -9.409  19.235  68.732  1.00  0.00    -0.367 OA 
HETATM   12  O   UNL     1      -7.687  18.837  67.052  1.00  0.00    -0.228 OA 
ENDBRANCH   7   8
ENDBRANCH   6   7
ENDBRANCH   3   6
TORSDOF 3
ENDMDL
MODEL      287
REMARK 921   NORMALIZED FREE ENERGY PREDICTED BY IDOCK:   -1.58 KCAL/MOL
REMARK 922        TOTAL FREE ENERGY PREDICTED BY IDOCK:   -1.97 KCAL/MOL
REMARK 923 INTER-LIGAND FREE ENERGY PREDICTED BY IDOCK:   -1.84 KCAL/MOL
REMARK 924 INTRA-LIGAND FREE ENERGY PREDICTED BY IDOCK:   -0.13 KCAL/MOL
REMARK 927      BINDING AFFINITY PREDICTED BY RF-SCORE:    0.00 PKD
ROOT
HETATM    1  C   UNL     1      -9.887   5.454  71.230  1.00  0.00    -0.235 C  
HETATM    2  C   UNL     1      -9.247   5.625  69.881  1.00  0.00    -0.146 C  
HETATM    3  N   UNL     1     -10.156   5.754  68.856  1.00  0.00    -0.170 N  
HETATM    4  O   UNL     1      -8.031   5.635  69.720  1.00  0.00    -0.094 OA 
HETATM    5  H   UNL     1     -11.152   5.730  69.069  1.00  0.00     0.000 HD 
ENDROOT
BRANCH   3   6
HETATM    6  C   UNL     1      -9.732   5.924  67.483  1.00  0.00    -0.115 C  
BRANCH   6   7
HETATM    7  C   UNL     1     -10.000   7.337  66.979  1.00  0.00    -0.293 C  
BRANCH   7   8
HETATM    8  C   UNL     1     -10.425   8.236  68.130  1.00  0.00    -0.171 C  
HETATM    9  S   UNL     1      -9.352   9.651  68.288  1.00  0.00    -0.132 S  
HETATM   10  O   UNL     1      -9.533  10.543  67.169  1.00  0.00    -0.156 OA 
HETATM   11  O   UNL     1      -8.050   9.219  68.747  1.00  0.00    -0.101 OA 
HETATM   12  O   UNL     1     -10.066  10.310  69.578  1.00  0.00    -0.221 OA 
ENDBRANCH   7   8
ENDBRANCH   6   7
ENDBRANCH   3   6
TORSDOF 3
ENDMDL
MODEL      288
REMARK 921   NORMALIZED FREE ENERGY PREDICTED BY IDOCK:   -1.58 KCAL/MOL
REMARK 922        TOTAL FREE ENERGY PREDICTED BY IDOCK:   -1.96 KCAL/MOL
REMARK 923 INTER-LIGAND FREE ENERGY PREDICTED BY IDOCK:   -1.95 KCAL/MOL
REMARK 924 INTRA-LIGAND FREE ENERGY PREDICTED BY IDOCK:   -0.01 KCAL/MOL
REMARK 927      BINDING AFFINITY PREDICTED BY RF-SCORE:    0.00 PKD
ROOT
HETATM    1  C   UNL     1     -10.438   6.478  69.478  1.00  0.00    -0.265 C  
HETATM    2  C   UNL     1     -10.520   7.175  68.148  1.00  0.00    -0.200 C  
HETATM    3  N   UNL     1     -10.567   8.546  68.249  1.00  0.00    -0.393 N  
HETATM    4  O   UNL     1     -10.551   6.568  67.082  1.00  0.00    -0.242 OA 
HETATM    5  H   UNL     1     -10.542   8.977  69.173  1.00  0.00     0.000 HD 
ENDROOT
BRANCH   3   6
HETATM    6  C   UNL     1     -10.652   9.391  67.078  1.00  0.00    -0.201 C  
BRANCH   6   7
HETATM    7  C   UNL     1      -9.297   9.982  66.708  1.00  0.00    -0.193 C  
BRANCH   7   8
HETATM    8  C   UNL     1      -8.175   9.124  67.272  1.00  0.00    -0.114 C  
HETATM    9  S   UNL     1      -7.202  10.020  68.469  1.00  0.00    -0.077 S  
HETATM   10  O   UNL     1      -7.978  10.265  69.660  1.00  0.00    -0.160 OA 
HETATM   11  O   UNL     1      -6.445  11.052  67.797  1.00  0.00    -0.061 OA 
HETATM   12  O   UNL     1      -6.140   8.847  68.791  1.00  0.00    -0.044 OA 
ENDBRANCH   7   8
ENDBRANCH   6   7
ENDBRANCH   3   6
TORSDOF 3
ENDMDL
MODEL      289
REMARK 921   NORMALIZED FREE ENERGY PREDICTED BY IDOCK:   -1.57 KCAL/MOL
REMARK 922        TOTAL FREE ENERGY PREDICTED BY IDOCK:   -1.96 KCAL/MOL
REMARK 923 INTER-LIGAND FREE ENERGY PREDICTED BY IDOCK:   -1.82 KCAL/MOL
REMARK 924 INTRA-LIGAND FREE ENERGY PREDICTED BY IDOCK:   -0.14 KCAL/MOL
REMARK 927      BINDING AFFINITY PREDICTED BY RF-SCORE:    0.00 PKD
ROOT
HETATM    1  C   UNL     1     -10.912  18.287  67.167  1.00  0.00    -0.085 C  
HETATM    2  C   UNL     1     -10.688  17.342  66.019  1.00  0.00    -0.122 C  
HETATM    3  N   UNL     1     -10.665  16.019  66.396  1.00  0.00    -0.275 N  
HETATM    4  O   UNL     1     -10.531  17.726  64.865  1.00  0.00    -0.155 OA 
HETATM    5  H   UNL     1     -10.798  15.779  67.378  1.00  0.00     0.000 HD 
ENDROOT
BRANCH   3   6
HETATM    6  C   UNL     1     -10.457  14.959  65.434  1.00  0.00    -0.384 C  
BRANCH   6   7
HETATM    7  C   UNL     1      -9.317  14.036  65.845  1.00  0.00    -0.006 C  
BRANCH   7   8
HETATM    8  C   UNL     1      -9.785  13.065  66.919  1.00  0.00    -0.238 C  
HETATM    9  S   UNL     1      -8.447  12.583  67.995  1.00  0.00    -0.180 S  
HETATM   10  O   UNL     1      -8.032  13.701  68.807  1.00  0.00    -0.117 OA 
HETATM   11  O   UNL     1      -7.516  11.753  67.264  1.00  0.00    -0.133 OA 
HETATM   12  O   UNL     1      -9.288  11.568  68.928  1.00  0.00    -0.121 OA 
ENDBRANCH   7   8
ENDBRANCH   6   7
ENDBRANCH   3   6
TORSDOF 3
ENDMDL
MODEL      290
REMARK 921   NORMALIZED FREE ENERGY PREDICTED BY IDOCK:   -1.56 KCAL/MOL
REMARK 922        TOTAL FREE ENERGY PREDICTED BY IDOCK:   -1.94 KCAL/MOL
REMARK 923 INTER-LIGAND FREE ENERGY PREDICTED BY IDOCK:   -1.55 KCAL/MOL
REMARK 924 INTRA-LIGAND FREE ENERGY PREDICTED BY IDOCK:   -0.38 KCAL/MOL
REMARK 927      BINDING AFFINITY PREDICTED BY RF-SCORE:    0.00 PKD
ROOT
HETATM    1  C   UNL     1     -11.556   5.610  72.674  1.00  0.00    -0.307 C  
HETATM    2  C   UNL     1     -10.069   5.692  72.874  1.00  0.00    -0.176 C  
HETATM    3  N   UNL     1      -9.369   5.890  71.706  1.00  0.00    -0.149 N  
HETATM    4  O   UNL     1      -9.541   5.581  73.976  1.00  0.00    -0.134 OA 
HETATM    5  H   UNL     1      -9.880   5.967  70.828  1.00  0.00     0.000 HD 
ENDROOT
BRANCH   3   6
HETATM    6  C   UNL     1      -7.926   5.992  71.694  1.00  0.00    -0.110 C  
BRANCH   6   7
HETATM    7  C   UNL     1      -7.364   5.909  70.280  1.00  0.00    -0.080 C  
BRANCH   7   8
HETATM    8  C   UNL     1      -7.244   7.301  69.678  1.00  0.00    -0.079 C  
HETATM    9  S   UNL     1      -8.589   7.650  68.560  1.00  0.00    -0.128 S  
HETATM   10  O   UNL     1      -9.825   7.780  69.291  1.00  0.00    -0.168 OA 
HETATM   11  O   UNL     1      -8.457   6.829  67.377  1.00  0.00    -0.120 OA 
HETATM   12  O   UNL     1      -8.109   9.126  68.114  1.00  0.00    -0.103 OA 
ENDBRANCH   7   8
ENDBRANCH   6   7
ENDBRANCH   3   6
TORSDOF 3
ENDMDL
MODEL      291
REMARK 921   NORMALIZED FREE ENERGY PREDICTED BY IDOCK:   -1.55 KCAL/MOL
REMARK 922        TOTAL FREE ENERGY PREDICTED BY IDOCK:   -1.93 KCAL/MOL
REMARK 923 INTER-LIGAND FREE ENERGY PREDICTED BY IDOCK:   -1.83 KCAL/MOL
REMARK 924 INTRA-LIGAND FREE ENERGY PREDICTED BY IDOCK:   -0.11 KCAL/MOL
REMARK 927      BINDING AFFINITY PREDICTED BY RF-SCORE:    0.00 PKD
ROOT
HETATM    1  C   UNL     1      -6.353   1.993  70.278  1.00  0.00    -0.024 C  
HETATM    2  C   UNL     1      -7.639   2.316  70.986  1.00  0.00    -0.032 C  
HETATM    3  N   UNL     1      -7.980   3.648  70.921  1.00  0.00    -0.057 N  
HETATM    4  O   UNL     1      -8.305   1.468  71.570  1.00  0.00    -0.043 OA 
HETATM    5  H   UNL     1      -7.371   4.293  70.420  1.00  0.00     0.000 HD 
ENDROOT
BRANCH   3   6
HETATM    6  C   UNL     1      -9.183   4.154  71.546  1.00  0.00    -0.134 C  
BRANCH   6   7
HETATM    7  C   UNL     1      -9.546   5.542  71.033  1.00  0.00    -0.217 C  
BRANCH   7   8
HETATM    8  C   UNL     1     -10.954   5.915  71.470  1.00  0.00    -0.262 C  
HETATM    9  S   UNL     1     -11.221   7.677  71.391  1.00  0.00    -0.251 S  
HETATM   10  O   UNL     1     -11.240   8.118  70.017  1.00  0.00    -0.205 OA 
HETATM   11  O   UNL     1     -10.436   8.329  72.415  1.00  0.00    -0.289 OA 
HETATM   12  O   UNL     1     -12.738   7.681  71.943  1.00  0.00    -0.312 OA 
ENDBRANCH   7   8
ENDBRANCH   6   7
ENDBRANCH   3   6
TORSDOF 3
ENDMDL
MODEL      292
REMARK 921   NORMALIZED FREE ENERGY PREDICTED BY IDOCK:   -1.53 KCAL/MOL
REMARK 922        TOTAL FREE ENERGY PREDICTED BY IDOCK:   -1.91 KCAL/MOL
REMARK 923 INTER-LIGAND FREE ENERGY PREDICTED BY IDOCK:   -1.80 KCAL/MOL
REMARK 924 INTRA-LIGAND FREE ENERGY PREDICTED BY IDOCK:   -0.11 KCAL/MOL
REMARK 927      BINDING AFFINITY PREDICTED BY RF-SCORE:    0.00 PKD
ROOT
HETATM    1  C   UNL     1      -8.341   8.118  65.633  1.00  0.00    -0.148 C  
HETATM    2  C   UNL     1      -7.989   8.764  66.944  1.00  0.00    -0.098 C  
HETATM    3  N   UNL     1      -8.711   8.274  68.007  1.00  0.00    -0.135 N  
HETATM    4  O   UNL     1      -7.144   9.648  67.041  1.00  0.00    -0.084 OA 
HETATM    5  H   UNL     1      -9.400   7.541  67.845  1.00  0.00     0.000 HD 
ENDROOT
BRANCH   3   6
HETATM    6  C   UNL     1      -8.517   8.774  69.351  1.00  0.00    -0.125 C  
BRANCH   6   7
HETATM    7  C   UNL     1      -9.173   7.874  70.390  1.00  0.00    -0.158 C  
BRANCH   7   8
HETATM    8  C   UNL     1      -8.720   8.264  71.789  1.00  0.00    -0.164 C  
HETATM    9  S   UNL     1      -9.654   7.407  73.044  1.00  0.00    -0.217 S  
HETATM   10  O   UNL     1      -9.327   6.002  73.038  1.00  0.00    -0.141 OA 
HETATM   11  O   UNL     1     -11.014   7.898  73.051  1.00  0.00    -0.393 OA 
HETATM   12  O   UNL     1      -8.945   8.084  74.327  1.00  0.00    -0.136 OA 
ENDBRANCH   7   8
ENDBRANCH   6   7
ENDBRANCH   3   6
TORSDOF 3
ENDMDL
MODEL      293
REMARK 921   NORMALIZED FREE ENERGY PREDICTED BY IDOCK:   -1.48 KCAL/MOL
REMARK 922        TOTAL FREE ENERGY PREDICTED BY IDOCK:   -1.85 KCAL/MOL
REMARK 923 INTER-LIGAND FREE ENERGY PREDICTED BY IDOCK:   -1.95 KCAL/MOL
REMARK 924 INTRA-LIGAND FREE ENERGY PREDICTED BY IDOCK:    0.11 KCAL/MOL
REMARK 927      BINDING AFFINITY PREDICTED BY RF-SCORE:    0.00 PKD
ROOT
HETATM    1  C   UNL     1      -8.669   8.106  68.409  1.00  0.00    -0.134 C  
HETATM    2  C   UNL     1      -9.768   8.318  69.413  1.00  0.00    -0.177 C  
HETATM    3  N   UNL     1      -9.889   7.288  70.318  1.00  0.00    -0.179 N  
HETATM    4  O   UNL     1     -10.487   9.311  69.409  1.00  0.00    -0.208 OA 
HETATM    5  H   UNL     1      -9.256   6.492  70.253  1.00  0.00     0.000 HD 
ENDROOT
BRANCH   3   6
HETATM    6  C   UNL     1     -10.893   7.308  71.360  1.00  0.00    -0.230 C  
BRANCH   6   7
HETATM    7  C   UNL     1     -10.390   8.005  72.617  1.00  0.00    -0.398 C  
BRANCH   7   8
HETATM    8  C   UNL     1      -8.874   8.129  72.581  1.00  0.00    -0.219 C  
HETATM    9  S   UNL     1      -8.080   6.594  73.024  1.00  0.00    -0.105 S  
HETATM   10  O   UNL     1      -8.293   5.607  71.994  1.00  0.00    -0.120 OA 
HETATM   11  O   UNL     1      -8.298   6.327  74.428  1.00  0.00    -0.121 OA 
HETATM   12  O   UNL     1      -6.554   7.113  72.916  1.00  0.00    -0.063 OA 
ENDBRANCH   7   8
ENDBRANCH   6   7
ENDBRANCH   3   6
TORSDOF 3
ENDMDL
MODEL      294
REMARK 921   NORMALIZED FREE ENERGY PREDICTED BY IDOCK:   -1.48 KCAL/MOL
REMARK 922        TOTAL FREE ENERGY PREDICTED BY IDOCK:   -1.85 KCAL/MOL
REMARK 923 INTER-LIGAND FREE ENERGY PREDICTED BY IDOCK:   -2.27 KCAL/MOL
REMARK 924 INTRA-LIGAND FREE ENERGY PREDICTED BY IDOCK:    0.42 KCAL/MOL
REMARK 927      BINDING AFFINITY PREDICTED BY RF-SCORE:    0.00 PKD
ROOT
HETATM    1  C   UNL     1      -8.592   4.556  64.602  1.00  0.00    -0.139 C  
HETATM    2  C   UNL     1      -8.887   5.412  65.801  1.00  0.00    -0.151 C  
HETATM    3  N   UNL     1     -10.215   5.754  65.916  1.00  0.00    -0.403 N  
HETATM    4  O   UNL     1      -8.019   5.774  66.588  1.00  0.00    -0.100 OA 
HETATM    5  H   UNL     1     -10.877   5.418  65.218  1.00  0.00     0.000 HD 
ENDROOT
BRANCH   3   6
HETATM    6  C   UNL     1     -10.695   6.578  67.005  1.00  0.00    -0.364 C  
BRANCH   6   7
HETATM    7  C   UNL     1      -9.796   7.785  67.240  1.00  0.00    -0.249 C  
BRANCH   7   8
HETATM    8  C   UNL     1     -10.420   9.034  66.636  1.00  0.00    -0.165 C  
HETATM    9  S   UNL     1      -9.551  10.509  67.136  1.00  0.00    -0.171 S  
HETATM   10  O   UNL     1      -8.241  10.545  66.533  1.00  0.00    -0.124 OA 
HETATM   11  O   UNL     1      -9.776  10.745  68.545  1.00  0.00    -0.167 OA 
HETATM   12  O   UNL     1     -10.490  11.573  66.366  1.00  0.00    -0.233 OA 
ENDBRANCH   7   8
ENDBRANCH   6   7
ENDBRANCH   3   6
TORSDOF 3
ENDMDL
MODEL      295
REMARK 921   NORMALIZED FREE ENERGY PREDICTED BY IDOCK:   -1.44 KCAL/MOL
REMARK 922        TOTAL FREE ENERGY PREDICTED BY IDOCK:   -1.80 KCAL/MOL
REMARK 923 INTER-LIGAND FREE ENERGY PREDICTED BY IDOCK:   -1.57 KCAL/MOL
REMARK 924 INTRA-LIGAND FREE ENERGY PREDICTED BY IDOCK:   -0.23 KCAL/MOL
REMARK 927      BINDING AFFINITY PREDICTED BY RF-SCORE:    0.00 PKD
ROOT
HETATM    1  C   UNL     1      -7.921   5.482  64.638  1.00  0.00    -0.115 C  
HETATM    2  C   UNL     1      -7.969   6.406  65.824  1.00  0.00    -0.117 C  
HETATM    3  N   UNL     1      -9.248   6.700  66.237  1.00  0.00    -0.234 N  
HETATM    4  O   UNL     1      -6.959   6.856  66.355  1.00  0.00    -0.065 OA 
HETATM    5  H   UNL     1     -10.038   6.290  65.740  1.00  0.00     0.000 HD 
ENDROOT
BRANCH   3   6
HETATM    6  C   UNL     1      -9.500   7.576  67.362  1.00  0.00    -0.142 C  
BRANCH   6   7
HETATM    7  C   UNL     1     -10.048   6.813  68.561  1.00  0.00    -0.166 C  
BRANCH   7   8
HETATM    8  C   UNL     1      -8.941   6.549  69.570  1.00  0.00    -0.137 C  
HETATM    9  S   UNL     1      -9.047   7.654  70.966  1.00  0.00    -0.148 S  
HETATM   10  O   UNL     1     -10.212   7.346  71.758  1.00  0.00    -0.190 OA 
HETATM   11  O   UNL     1      -8.715   8.996  70.543  1.00  0.00    -0.166 OA 
HETATM   12  O   UNL     1      -7.745   7.116  71.754  1.00  0.00    -0.090 OA 
ENDBRANCH   7   8
ENDBRANCH   6   7
ENDBRANCH   3   6
TORSDOF 3
ENDMDL
MODEL      296
REMARK 921   NORMALIZED FREE ENERGY PREDICTED BY IDOCK:   -1.39 KCAL/MOL
REMARK 922        TOTAL FREE ENERGY PREDICTED BY IDOCK:   -1.75 KCAL/MOL
REMARK 923 INTER-LIGAND FREE ENERGY PREDICTED BY IDOCK:   -1.61 KCAL/MOL
REMARK 924 INTRA-LIGAND FREE ENERGY PREDICTED BY IDOCK:   -0.14 KCAL/MOL
REMARK 927      BINDING AFFINITY PREDICTED BY RF-SCORE:    0.00 PKD
ROOT
HETATM    1  C   UNL     1      -7.458  11.555  66.799  1.00  0.00    -0.118 C  
HETATM    2  C   UNL     1      -7.353  11.294  68.276  1.00  0.00    -0.095 C  
HETATM    3  N   UNL     1      -8.099  10.217  68.696  1.00  0.00    -0.104 N  
HETATM    4  O   UNL     1      -6.673  11.988  69.025  1.00  0.00    -0.088 OA 
HETATM    5  H   UNL     1      -8.643   9.692  68.012  1.00  0.00     0.000 HD 
ENDROOT
BRANCH   3   6
HETATM    6  C   UNL     1      -8.129   9.810  70.084  1.00  0.00    -0.182 C  
BRANCH   6   7
HETATM    7  C   UNL     1      -7.740   8.347  70.254  1.00  0.00    -0.080 C  
BRANCH   7   8
HETATM    8  C   UNL     1      -8.948   7.450  70.025  1.00  0.00    -0.144 C  
HETATM    9  S   UNL     1      -9.785   7.074  71.554  1.00  0.00    -0.163 S  
HETATM   10  O   UNL     1     -10.425   8.257  72.076  1.00  0.00    -0.234 OA 
HETATM   11  O   UNL     1      -8.952   6.209  72.359  1.00  0.00    -0.137 OA 
HETATM   12  O   UNL     1     -10.928   6.116  70.933  1.00  0.00    -0.267 OA 
ENDBRANCH   7   8
ENDBRANCH   6   7
ENDBRANCH   3   6
TORSDOF 3
ENDMDL
MODEL      297
REMARK 921   NORMALIZED FREE ENERGY PREDICTED BY IDOCK:   -1.39 KCAL/MOL
REMARK 922        TOTAL FREE ENERGY PREDICTED BY IDOCK:   -1.74 KCAL/MOL
REMARK 923 INTER-LIGAND FREE ENERGY PREDICTED BY IDOCK:   -1.59 KCAL/MOL
REMARK 924 INTRA-LIGAND FREE ENERGY PREDICTED BY IDOCK:   -0.15 KCAL/MOL
REMARK 927      BINDING AFFINITY PREDICTED BY RF-SCORE:    0.00 PKD
ROOT
HETATM    1  C   UNL     1      -5.942   6.893  69.884  1.00  0.00    -0.023 C  
HETATM    2  C   UNL     1      -7.318   6.579  69.365  1.00  0.00    -0.092 C  
HETATM    3  N   UNL     1      -7.474   6.854  68.026  1.00  0.00    -0.097 N  
HETATM    4  O   UNL     1      -8.210   6.132  70.079  1.00  0.00    -0.119 OA 
HETATM    5  H   UNL     1      -6.685   7.229  67.501  1.00  0.00     0.000 HD 
ENDROOT
BRANCH   3   6
HETATM    6  C   UNL     1      -8.729   6.622  67.345  1.00  0.00    -0.118 C  
BRANCH   6   7
HETATM    7  C   UNL     1      -8.950   7.616  66.212  1.00  0.00    -0.203 C  
BRANCH   7   8
HETATM    8  C   UNL     1      -8.691   9.035  66.697  1.00  0.00    -0.128 C  
HETATM    9  S   UNL     1      -8.977  10.232  65.406  1.00  0.00    -0.191 S  
HETATM   10  O   UNL     1     -10.385  10.306  65.097  1.00  0.00    -0.286 OA 
HETATM   11  O   UNL     1      -7.955  10.100  64.392  1.00  0.00    -0.151 OA 
HETATM   12  O   UNL     1      -8.577  11.548  66.252  1.00  0.00    -0.180 OA 
ENDBRANCH   7   8
ENDBRANCH   6   7
ENDBRANCH   3   6
TORSDOF 3
ENDMDL
MODEL      298
REMARK 921   NORMALIZED FREE ENERGY PREDICTED BY IDOCK:   -1.35 KCAL/MOL
REMARK 922        TOTAL FREE ENERGY PREDICTED BY IDOCK:   -1.69 KCAL/MOL
REMARK 923 INTER-LIGAND FREE ENERGY PREDICTED BY IDOCK:   -1.49 KCAL/MOL
REMARK 924 INTRA-LIGAND FREE ENERGY PREDICTED BY IDOCK:   -0.20 KCAL/MOL
REMARK 927      BINDING AFFINITY PREDICTED BY RF-SCORE:    0.00 PKD
ROOT
HETATM    1  C   UNL     1      -6.618  12.978  67.772  1.00  0.00    -0.146 C  
HETATM    2  C   UNL     1      -7.628  11.912  67.449  1.00  0.00    -0.151 C  
HETATM    3  N   UNL     1      -7.938  11.840  66.110  1.00  0.00    -0.369 N  
HETATM    4  O   UNL     1      -8.128  11.191  68.305  1.00  0.00    -0.117 OA 
HETATM    5  H   UNL     1      -7.483  12.479  65.459  1.00  0.00     0.000 HD 
ENDROOT
BRANCH   3   6
HETATM    6  C   UNL     1      -8.893  10.879  65.603  1.00  0.00    -0.190 C  
BRANCH   6   7
HETATM    7  C   UNL     1      -8.252   9.906  64.622  1.00  0.00    -0.153 C  
BRANCH   7   8
HETATM    8  C   UNL     1      -8.836   8.513  64.801  1.00  0.00     0.062 C  
HETATM    9  S   UNL     1      -7.871   7.539  65.941  1.00  0.00    -0.114 S  
HETATM   10  O   UNL     1      -8.005   8.059  67.279  1.00  0.00    -0.117 OA 
HETATM   11  O   UNL     1      -6.593   7.223  65.343  1.00  0.00    -0.046 OA 
HETATM   12  O   UNL     1      -8.740   6.181  65.839  1.00  0.00    -0.150 OA 
ENDBRANCH   7   8
ENDBRANCH   6   7
ENDBRANCH   3   6
TORSDOF 3
ENDMDL
MODEL      299
REMARK 921   NORMALIZED FREE ENERGY PREDICTED BY IDOCK:   -1.31 KCAL/MOL
REMARK 922        TOTAL FREE ENERGY PREDICTED BY IDOCK:   -1.65 KCAL/MOL
REMARK 923 INTER-LIGAND FREE ENERGY PREDICTED BY IDOCK:   -1.48 KCAL/MOL
REMARK 924 INTRA-LIGAND FREE ENERGY PREDICTED BY IDOCK:   -0.17 KCAL/MOL
REMARK 927      BINDING AFFINITY PREDICTED BY RF-SCORE:    0.00 PKD
ROOT
HETATM    1  C   UNL     1      -6.523   3.208  69.317  1.00  0.00    -0.029 C  
HETATM    2  C   UNL     1      -7.980   3.534  69.497  1.00  0.00    -0.050 C  
HETATM    3  N   UNL     1      -8.283   4.850  69.236  1.00  0.00    -0.081 N  
HETATM    4  O   UNL     1      -8.807   2.700  69.853  1.00  0.00    -0.068 OA 
HETATM    5  H   UNL     1      -7.538   5.484  68.950  1.00  0.00     0.000 HD 
ENDROOT
BRANCH   3   6
HETATM    6  C   UNL     1      -9.633   5.357  69.358  1.00  0.00    -0.149 C  
BRANCH   6   7
HETATM    7  C   UNL     1      -9.662   6.741  69.995  1.00  0.00    -0.170 C  
BRANCH   7   8
HETATM    8  C   UNL     1      -8.816   7.712  69.185  1.00  0.00    -0.139 C  
HETATM    9  S   UNL     1      -9.830   8.823  68.226  1.00  0.00    -0.170 S  
HETATM   10  O   UNL     1     -10.530   9.736  69.095  1.00  0.00    -0.197 OA 
HETATM   11  O   UNL     1     -10.484   8.085  67.169  1.00  0.00    -0.298 OA 
HETATM   12  O   UNL     1      -8.629   9.630  67.509  1.00  0.00    -0.125 OA 
ENDBRANCH   7   8
ENDBRANCH   6   7
ENDBRANCH   3   6
TORSDOF 3
ENDMDL
MODEL      300
REMARK 921   NORMALIZED FREE ENERGY PREDICTED BY IDOCK:   -1.29 KCAL/MOL
REMARK 922        TOTAL FREE ENERGY PREDICTED BY IDOCK:   -1.62 KCAL/MOL
REMARK 923 INTER-LIGAND FREE ENERGY PREDICTED BY IDOCK:   -1.50 KCAL/MOL
REMARK 924 INTRA-LIGAND FREE ENERGY PREDICTED BY IDOCK:   -0.12 KCAL/MOL
REMARK 927      BINDING AFFINITY PREDICTED BY RF-SCORE:    0.00 PKD
ROOT
HETATM    1  C   UNL     1      -5.125  13.258  71.258  1.00  0.00    -0.164 C  
HETATM    2  C   UNL     1      -6.050  13.462  70.091  1.00  0.00    -0.112 C  
HETATM    3  N   UNL     1      -6.415  12.290  69.469  1.00  0.00    -0.207 N  
HETATM    4  O   UNL     1      -6.428  14.572  69.731  1.00  0.00    -0.133 OA 
HETATM    5  H   UNL     1      -6.054  11.405  69.825  1.00  0.00     0.000 HD 
ENDROOT
BRANCH   3   6
HETATM    6  C   UNL     1      -7.297  12.282  68.322  1.00  0.00    -0.108 C  
BRANCH   6   7
HETATM    7  C   UNL     1      -7.946  10.919  68.118  1.00  0.00    -0.117 C  
BRANCH   7   8
HETATM    8  C   UNL     1      -9.049  11.010  67.074  1.00  0.00    -0.147 C  
HETATM    9  S   UNL     1     -10.546  10.215  67.629  1.00  0.00    -0.283 S  
HETATM   10  O   UNL     1     -11.137  10.964  68.711  1.00  0.00    -0.216 OA 
HETATM   11  O   UNL     1     -10.339   8.785  67.682  1.00  0.00    -0.226 OA 
HETATM   12  O   UNL     1     -11.423  10.474  66.298  1.00  0.00     0.212 OA 
ENDBRANCH   7   8
ENDBRANCH   6   7
ENDBRANCH   3   6
TORSDOF 3
ENDMDL
MODEL      301
REMARK 921   NORMALIZED FREE ENERGY PREDICTED BY IDOCK:   -1.28 KCAL/MOL
REMARK 922        TOTAL FREE ENERGY PREDICTED BY IDOCK:   -1.62 KCAL/MOL
REMARK 923 INTER-LIGAND FREE ENERGY PREDICTED BY IDOCK:   -1.38 KCAL/MOL
REMARK 924 INTRA-LIGAND FREE ENERGY PREDICTED BY IDOCK:   -0.24 KCAL/MOL
REMARK 927      BINDING AFFINITY PREDICTED BY RF-SCORE:    0.00 PKD
ROOT
HETATM    1  C   UNL     1      -8.021   5.819  64.612  1.00  0.00    -0.122 C  
HETATM    2  C   UNL     1      -7.782   5.243  65.980  1.00  0.00    -0.091 C  
HETATM    3  N   UNL     1      -7.129   6.105  66.831  1.00  0.00    -0.071 N  
HETATM    4  O   UNL     1      -8.132   4.110  66.293  1.00  0.00    -0.098 OA 
HETATM    5  H   UNL     1      -6.866   7.031  66.495  1.00  0.00     0.000 HD 
ENDROOT
BRANCH   3   6
HETATM    6  C   UNL     1      -6.805   5.730  68.190  1.00  0.00    -0.067 C  
BRANCH   6   7
HETATM    7  C   UNL     1      -7.513   6.618  69.206  1.00  0.00    -0.095 C  
BRANCH   7   8
HETATM    8  C   UNL     1      -8.982   6.236  69.308  1.00  0.00    -0.125 C  
HETATM    9  S   UNL     1     -10.039   7.671  69.245  1.00  0.00    -0.194 S  
HETATM   10  O   UNL     1     -10.005   8.259  67.928  1.00  0.00    -0.166 OA 
HETATM   11  O   UNL     1      -9.873   8.444  70.456  1.00  0.00    -0.180 OA 
HETATM   12  O   UNL     1     -11.446   6.899  69.417  1.00  0.00    -0.173 OA 
ENDBRANCH   7   8
ENDBRANCH   6   7
ENDBRANCH   3   6
TORSDOF 3
ENDMDL
MODEL      302
REMARK 921   NORMALIZED FREE ENERGY PREDICTED BY IDOCK:   -1.25 KCAL/MOL
REMARK 922        TOTAL FREE ENERGY PREDICTED BY IDOCK:   -1.58 KCAL/MOL
REMARK 923 INTER-LIGAND FREE ENERGY PREDICTED BY IDOCK:   -1.47 KCAL/MOL
REMARK 924 INTRA-LIGAND FREE ENERGY PREDICTED BY IDOCK:   -0.10 KCAL/MOL
REMARK 927      BINDING AFFINITY PREDICTED BY RF-SCORE:    0.00 PKD
ROOT
HETATM    1  C   UNL     1      -5.856   1.796  69.976  1.00  0.00    -0.018 C  
HETATM    2  C   UNL     1      -7.190   2.357  70.385  1.00  0.00    -0.033 C  
HETATM    3  N   UNL     1      -7.195   3.728  70.502  1.00  0.00    -0.040 N  
HETATM    4  O   UNL     1      -8.169   1.650  70.601  1.00  0.00    -0.041 OA 
HETATM    5  H   UNL     1      -6.339   4.246  70.310  1.00  0.00     0.000 HD 
ENDROOT
BRANCH   3   6
HETATM    6  C   UNL     1      -8.386   4.452  70.889  1.00  0.00    -0.087 C  
BRANCH   6   7
HETATM    7  C   UNL     1      -8.162   5.959  70.875  1.00  0.00    -0.125 C  
BRANCH   7   8
HETATM    8  C   UNL     1      -8.154   6.505  72.295  1.00  0.00    -0.106 C  
HETATM    9  S   UNL     1      -8.448   8.264  72.323  1.00  0.00    -0.187 S  
HETATM   10  O   UNL     1      -9.807   8.549  71.933  1.00  0.00    -0.231 OA 
HETATM   11  O   UNL     1      -7.307   8.951  71.761  1.00  0.00    -0.256 OA 
HETATM   12  O   UNL     1      -8.329   8.468  73.921  1.00  0.00    -0.351 OA 
ENDBRANCH   7   8
ENDBRANCH   6   7
ENDBRANCH   3   6
TORSDOF 3
ENDMDL
MODEL      303
REMARK 921   NORMALIZED FREE ENERGY PREDICTED BY IDOCK:   -1.24 KCAL/MOL
REMARK 922        TOTAL FREE ENERGY PREDICTED BY IDOCK:   -1.56 KCAL/MOL
REMARK 923 INTER-LIGAND FREE ENERGY PREDICTED BY IDOCK:   -1.42 KCAL/MOL
REMARK 924 INTRA-LIGAND FREE ENERGY PREDICTED BY IDOCK:   -0.15 KCAL/MOL
REMARK 927      BINDING AFFINITY PREDICTED BY RF-SCORE:    0.00 PKD
ROOT
HETATM    1  C   UNL     1      -6.109   2.299  69.502  1.00  0.00    -0.024 C  
HETATM    2  C   UNL     1      -7.174   3.243  69.988  1.00  0.00    -0.041 C  
HETATM    3  N   UNL     1      -6.686   4.473  70.364  1.00  0.00    -0.035 N  
HETATM    4  O   UNL     1      -8.358   2.930  70.048  1.00  0.00    -0.044 OA 
HETATM    5  H   UNL     1      -5.686   4.655  70.289  1.00  0.00     0.000 HD 
ENDROOT
BRANCH   3   6
HETATM    6  C   UNL     1      -7.557   5.515  70.863  1.00  0.00    -0.090 C  
BRANCH   6   7
HETATM    7  C   UNL     1      -7.219   6.872  70.261  1.00  0.00    -0.076 C  
BRANCH   7   8
HETATM    8  C   UNL     1      -8.483   7.564  69.773  1.00  0.00    -0.135 C  
HETATM    9  S   UNL     1      -8.712   9.146  70.565  1.00  0.00    -0.236 S  
HETATM   10  O   UNL     1      -7.706  10.078  70.117  1.00  0.00    -0.171 OA 
HETATM   11  O   UNL     1      -9.032   8.944  71.960  1.00  0.00    -0.365 OA 
HETATM   12  O   UNL     1     -10.109   9.532  69.853  1.00  0.00    -0.202 OA 
ENDBRANCH   7   8
ENDBRANCH   6   7
ENDBRANCH   3   6
TORSDOF 3
ENDMDL
MODEL      304
REMARK 921   NORMALIZED FREE ENERGY PREDICTED BY IDOCK:   -1.21 KCAL/MOL
REMARK 922        TOTAL FREE ENERGY PREDICTED BY IDOCK:   -1.53 KCAL/MOL
REMARK 923 INTER-LIGAND FREE ENERGY PREDICTED BY IDOCK:   -1.37 KCAL/MOL
REMARK 924 INTRA-LIGAND FREE ENERGY PREDICTED BY IDOCK:   -0.16 KCAL/MOL
REMARK 927      BINDING AFFINITY PREDICTED BY RF-SCORE:    0.00 PKD
ROOT
HETATM    1  C   UNL     1      -5.708  13.851  70.771  1.00  0.00    -0.199 C  
HETATM    2  C   UNL     1      -5.741  13.697  69.276  1.00  0.00    -0.084 C  
HETATM    3  N   UNL     1      -5.983  12.407  68.863  1.00  0.00    -0.066 N  
HETATM    4  O   UNL     1      -5.560  14.636  68.509  1.00  0.00    -0.089 OA 
HETATM    5  H   UNL     1      -6.119  11.678  69.563  1.00  0.00     0.000 HD 
ENDROOT
BRANCH   3   6
HETATM    6  C   UNL     1      -6.049  12.058  67.461  1.00  0.00    -0.114 C  
BRANCH   6   7
HETATM    7  C   UNL     1      -7.116  11.006  67.189  1.00  0.00    -0.104 C  
BRANCH   7   8
HETATM    8  C   UNL     1      -7.761  10.559  68.492  1.00  0.00    -0.104 C  
HETATM    9  S   UNL     1      -9.042   9.350  68.209  1.00  0.00    -0.127 S  
HETATM   10  O   UNL     1      -8.465   8.109  67.755  1.00  0.00    -0.129 OA 
HETATM   11  O   UNL     1     -10.164   9.983  67.553  1.00  0.00    -0.186 OA 
HETATM   12  O   UNL     1      -9.493   9.164  69.749  1.00  0.00    -0.165 OA 
ENDBRANCH   7   8
ENDBRANCH   6   7
ENDBRANCH   3   6
TORSDOF 3
ENDMDL
MODEL      305
REMARK 921   NORMALIZED FREE ENERGY PREDICTED BY IDOCK:   -1.20 KCAL/MOL
REMARK 922        TOTAL FREE ENERGY PREDICTED BY IDOCK:   -1.52 KCAL/MOL
REMARK 923 INTER-LIGAND FREE ENERGY PREDICTED BY IDOCK:   -1.30 KCAL/MOL
REMARK 924 INTRA-LIGAND FREE ENERGY PREDICTED BY IDOCK:   -0.21 KCAL/MOL
REMARK 927      BINDING AFFINITY PREDICTED BY RF-SCORE:    0.00 PKD
ROOT
HETATM    1  C   UNL     1      -6.392   9.545  67.244  1.00  0.00    -0.069 C  
HETATM    2  C   UNL     1      -6.434   8.709  68.493  1.00  0.00    -0.055 C  
HETATM    3  N   UNL     1      -7.470   7.804  68.511  1.00  0.00    -0.101 N  
HETATM    4  O   UNL     1      -5.623   8.837  69.404  1.00  0.00    -0.034 OA 
HETATM    5  H   UNL     1      -8.106   7.760  67.716  1.00  0.00     0.000 HD 
ENDROOT
BRANCH   3   6
HETATM    6  C   UNL     1      -7.679   6.911  69.631  1.00  0.00    -0.110 C  
BRANCH   6   7
HETATM    7  C   UNL     1      -8.025   5.500  69.173  1.00  0.00    -0.095 C  
BRANCH   7   8
HETATM    8  C   UNL     1      -8.035   5.425  67.654  1.00  0.00    -0.100 C  
HETATM    9  S   UNL     1      -9.599   4.831  67.036  1.00  0.00    -0.187 S  
HETATM   10  O   UNL     1     -10.631   5.812  67.264  1.00  0.00    -0.236 OA 
HETATM   11  O   UNL     1      -9.751   3.434  67.379  1.00  0.00    -0.163 OA 
HETATM   12  O   UNL     1      -9.222   4.850  65.466  1.00  0.00    -0.153 OA 
ENDBRANCH   7   8
ENDBRANCH   6   7
ENDBRANCH   3   6
TORSDOF 3
ENDMDL
MODEL      306
REMARK 921   NORMALIZED FREE ENERGY PREDICTED BY IDOCK:   -1.19 KCAL/MOL
REMARK 922        TOTAL FREE ENERGY PREDICTED BY IDOCK:   -1.51 KCAL/MOL
REMARK 923 INTER-LIGAND FREE ENERGY PREDICTED BY IDOCK:   -1.30 KCAL/MOL
REMARK 924 INTRA-LIGAND FREE ENERGY PREDICTED BY IDOCK:   -0.21 KCAL/MOL
REMARK 927      BINDING AFFINITY PREDICTED BY RF-SCORE:    0.00 PKD
ROOT
HETATM    1  C   UNL     1      -6.226   9.561  67.218  1.00  0.00    -0.064 C  
HETATM    2  C   UNL     1      -6.154   8.149  67.729  1.00  0.00    -0.047 C  
HETATM    3  N   UNL     1      -6.973   7.278  67.048  1.00  0.00    -0.079 N  
HETATM    4  O   UNL     1      -5.437   7.819  68.668  1.00  0.00    -0.025 OA 
HETATM    5  H   UNL     1      -7.544   7.629  66.280  1.00  0.00     0.000 HD 
ENDROOT
BRANCH   3   6
HETATM    6  C   UNL     1      -7.045   5.875  67.396  1.00  0.00    -0.074 C  
BRANCH   6   7
HETATM    7  C   UNL     1      -8.365   5.526  68.072  1.00  0.00    -0.099 C  
BRANCH   7   8
HETATM    8  C   UNL     1      -8.200   5.527  69.584  1.00  0.00    -0.101 C  
HETATM    9  S   UNL     1      -9.556   4.697  70.392  1.00  0.00    -0.219 S  
HETATM   10  O   UNL     1      -9.509   3.281  70.118  1.00  0.00    -0.166 OA 
HETATM   11  O   UNL     1     -10.758   5.486  70.249  1.00  0.00    -0.294 OA 
HETATM   12  O   UNL     1      -9.065   4.931  71.913  1.00  0.00    -0.133 OA 
ENDBRANCH   7   8
ENDBRANCH   6   7
ENDBRANCH   3   6
TORSDOF 3
ENDMDL
MODEL      307
REMARK 921   NORMALIZED FREE ENERGY PREDICTED BY IDOCK:   -1.18 KCAL/MOL
REMARK 922        TOTAL FREE ENERGY PREDICTED BY IDOCK:   -1.49 KCAL/MOL
REMARK 923 INTER-LIGAND FREE ENERGY PREDICTED BY IDOCK:   -1.36 KCAL/MOL
REMARK 924 INTRA-LIGAND FREE ENERGY PREDICTED BY IDOCK:   -0.14 KCAL/MOL
REMARK 927      BINDING AFFINITY PREDICTED BY RF-SCORE:    0.00 PKD
ROOT
HETATM    1  C   UNL     1      -8.592   4.905  63.640  1.00  0.00    -0.124 C  
HETATM    2  C   UNL     1      -9.310   4.132  64.711  1.00  0.00    -0.164 C  
HETATM    3  N   UNL     1      -9.180   4.682  65.965  1.00  0.00    -0.136 N  
HETATM    4  O   UNL     1      -9.940   3.105  64.478  1.00  0.00    -0.151 OA 
HETATM    5  H   UNL     1      -8.635   5.536  66.079  1.00  0.00     0.000 HD 
ENDROOT
BRANCH   3   6
HETATM    6  C   UNL     1      -9.797   4.079  67.126  1.00  0.00    -0.098 C  
BRANCH   6   7
HETATM    7  C   UNL     1      -8.853   4.057  68.322  1.00  0.00    -0.138 C  
BRANCH   7   8
HETATM    8  C   UNL     1      -9.270   2.973  69.304  1.00  0.00    -0.149 C  
HETATM    9  S   UNL     1      -9.487   3.627  70.949  1.00  0.00    -0.173 S  
HETATM   10  O   UNL     1     -10.642   4.490  70.995  1.00  0.00    -0.000 OA 
HETATM   11  O   UNL     1      -8.201   4.005  71.490  1.00  0.00    -0.075 OA 
HETATM   12  O   UNL     1      -9.868   2.236  71.676  1.00  0.00    -0.149 OA 
ENDBRANCH   7   8
ENDBRANCH   6   7
ENDBRANCH   3   6
TORSDOF 3
ENDMDL
MODEL      308
REMARK 921   NORMALIZED FREE ENERGY PREDICTED BY IDOCK:   -1.11 KCAL/MOL
REMARK 922        TOTAL FREE ENERGY PREDICTED BY IDOCK:   -1.42 KCAL/MOL
REMARK 923 INTER-LIGAND FREE ENERGY PREDICTED BY IDOCK:   -1.28 KCAL/MOL
REMARK 924 INTRA-LIGAND FREE ENERGY PREDICTED BY IDOCK:   -0.14 KCAL/MOL
REMARK 927      BINDING AFFINITY PREDICTED BY RF-SCORE:    0.00 PKD
ROOT
HETATM    1  C   UNL     1      -5.732   7.269  70.669  1.00  0.00    -0.027 C  
HETATM    2  C   UNL     1      -6.730   6.285  70.124  1.00  0.00    -0.050 C  
HETATM    3  N   UNL     1      -6.763   6.243  68.749  1.00  0.00    -0.058 N  
HETATM    4  O   UNL     1      -7.447   5.599  70.845  1.00  0.00    -0.084 OA 
HETATM    5  H   UNL     1      -6.139   6.849  68.218  1.00  0.00     0.000 HD 
ENDROOT
BRANCH   3   6
HETATM    6  C   UNL     1      -7.663   5.360  68.038  1.00  0.00    -0.091 C  
BRANCH   6   7
HETATM    7  C   UNL     1      -7.885   5.816  66.602  1.00  0.00    -0.101 C  
BRANCH   7   8
HETATM    8  C   UNL     1      -9.325   5.558  66.183  1.00  0.00    -0.157 C  
HETATM    9  S   UNL     1      -9.433   4.246  64.980  1.00  0.00    -0.177 S  
HETATM   10  O   UNL     1      -9.100   2.982  65.589  1.00  0.00    -0.145 OA 
HETATM   11  O   UNL     1      -8.862   4.692  63.729  1.00  0.00    -0.138 OA 
HETATM   12  O   UNL     1     -11.033   4.296  64.764  1.00  0.00    -0.249 OA 
ENDBRANCH   7   8
ENDBRANCH   6   7
ENDBRANCH   3   6
TORSDOF 3
ENDMDL
MODEL      309
REMARK 921   NORMALIZED FREE ENERGY PREDICTED BY IDOCK:   -1.09 KCAL/MOL
REMARK 922        TOTAL FREE ENERGY PREDICTED BY IDOCK:   -1.39 KCAL/MOL
REMARK 923 INTER-LIGAND FREE ENERGY PREDICTED BY IDOCK:   -1.20 KCAL/MOL
REMARK 924 INTRA-LIGAND FREE ENERGY PREDICTED BY IDOCK:   -0.19 KCAL/MOL
REMARK 927      BINDING AFFINITY PREDICTED BY RF-SCORE:    0.00 PKD
ROOT
HETATM    1  C   UNL     1      -6.044   1.943  69.853  1.00  0.00    -0.024 C  
HETATM    2  C   UNL     1      -7.435   2.485  70.023  1.00  0.00    -0.043 C  
HETATM    3  N   UNL     1      -7.515   3.849  69.860  1.00  0.00    -0.048 N  
HETATM    4  O   UNL     1      -8.396   1.773  70.293  1.00  0.00    -0.041 OA 
HETATM    5  H   UNL     1      -6.669   4.374  69.642  1.00  0.00     0.000 HD 
ENDROOT
BRANCH   3   6
HETATM    6  C   UNL     1      -8.771   4.557  69.989  1.00  0.00    -0.080 C  
BRANCH   6   7
HETATM    7  C   UNL     1      -8.826   5.781  69.084  1.00  0.00    -0.112 C  
BRANCH   7   8
HETATM    8  C   UNL     1      -8.259   5.450  67.712  1.00  0.00    -0.100 C  
HETATM    9  S   UNL     1      -9.440   4.566  66.710  1.00  0.00    -0.190 S  
HETATM   10  O   UNL     1     -10.534   5.434  66.346  1.00  0.00    -0.254 OA 
HETATM   11  O   UNL     1      -9.635   3.240  67.252  1.00  0.00    -0.193 OA 
HETATM   12  O   UNL     1      -8.502   4.367  65.411  1.00  0.00    -0.116 OA 
ENDBRANCH   7   8
ENDBRANCH   6   7
ENDBRANCH   3   6
TORSDOF 3
ENDMDL
MODEL      310
REMARK 921   NORMALIZED FREE ENERGY PREDICTED BY IDOCK:   -1.09 KCAL/MOL
REMARK 922        TOTAL FREE ENERGY PREDICTED BY IDOCK:   -1.39 KCAL/MOL
REMARK 923 INTER-LIGAND FREE ENERGY PREDICTED BY IDOCK:   -1.93 KCAL/MOL
REMARK 924 INTRA-LIGAND FREE ENERGY PREDICTED BY IDOCK:    0.54 KCAL/MOL
REMARK 927      BINDING AFFINITY PREDICTED BY RF-SCORE:    0.00 PKD
ROOT
HETATM    1  C   UNL     1      -9.284   5.649  65.878  1.00  0.00    -0.145 C  
HETATM    2  C   UNL     1      -9.616   5.824  67.334  1.00  0.00    -0.115 C  
HETATM    3  N   UNL     1      -8.722   6.626  68.007  1.00  0.00    -0.118 N  
HETATM    4  O   UNL     1     -10.585   5.289  67.862  1.00  0.00    -0.135 OA 
HETATM    5  H   UNL     1      -7.937   7.030  67.499  1.00  0.00     0.000 HD 
ENDROOT
BRANCH   3   6
HETATM    6  C   UNL     1      -8.870   6.909  69.418  1.00  0.00    -0.136 C  
BRANCH   6   7
HETATM    7  C   UNL     1      -8.852   8.406  69.699  1.00  0.00    -0.141 C  
BRANCH   7   8
HETATM    8  C   UNL     1      -9.823   8.745  70.820  1.00  0.00    -0.205 C  
HETATM    9  S   UNL     1     -10.074   7.359  71.913  1.00  0.00    -0.179 S  
HETATM   10  O   UNL     1      -8.874   7.095  72.668  1.00  0.00    -0.122 OA 
HETATM   11  O   UNL     1     -10.809   6.325  71.218  1.00  0.00    -0.244 OA 
HETATM   12  O   UNL     1     -11.145   8.061  72.896  1.00  0.00    -0.392 OA 
ENDBRANCH   7   8
ENDBRANCH   6   7
ENDBRANCH   3   6
TORSDOF 3
ENDMDL
