MODEL        1
REMARK 921   NORMALIZED FREE ENERGY PREDICTED BY IDOCK:   -7.97 KCAL/MOL
REMARK 922        TOTAL FREE ENERGY PREDICTED BY IDOCK:  -16.75 KCAL/MOL
REMARK 923 INTER-LIGAND FREE ENERGY PREDICTED BY IDOCK:  -13.56 KCAL/MOL
REMARK 924 INTRA-LIGAND FREE ENERGY PREDICTED BY IDOCK:   -3.19 KCAL/MOL
REMARK 927      BINDING AFFINITY PREDICTED BY RF-SCORE:    0.00 PKD
ROOT
HETATM    1  C   UNL     1     -12.274  11.160  71.168  1.00  0.00    -0.282 C  
HETATM    2  H   UNL     1     -13.148   9.686  72.073  1.00  0.00     0.000 HD 
HETATM    3  O   UNL     1     -13.422  10.542  71.764  1.00  0.00    -0.338 OA 
ENDROOT
BRANCH   1   4
HETATM    4  C   UNL     1     -11.622  10.280  70.060  1.00  0.00    -0.276 C  
BRANCH   4   5
HETATM    5  C   UNL     1     -11.185   8.877  70.586  1.00  0.00    -0.266 C  
HETATM    6  O   UNL     1     -12.224   7.902  70.409  1.00  0.00    -0.473 OA 
HETATM    7  H   UNL     1     -11.958   7.048  70.729  1.00  0.00     0.000 HD 
BRANCH   5   8
HETATM    8  C   UNL     1     -10.784   8.842  72.067  1.00  0.00    -0.347 C  
HETATM    9  C   UNL     1      -9.412   8.231  72.249  1.00  0.00    -0.271 C  
HETATM   10  O   UNL     1     -11.742   8.027  72.760  1.00  0.00    -0.512 OA 
HETATM   11  O   UNL     1      -8.381   8.901  72.245  1.00  0.00    -0.384 OA 
HETATM   12  H   UNL     1     -11.494   8.006  73.677  1.00  0.00     0.000 HD 
ENDBRANCH   5   8
ENDBRANCH   4   5
BRANCH   4  13
HETATM   13  O   UNL     1     -10.493  10.927  69.424  1.00  0.00    -0.219 OA 
BRANCH  13  14
HETATM   14  C   UNL     1      -9.587  10.038  68.750  1.00  0.00    -0.168 C  
HETATM   15  H   UNL     1      -6.260  12.227  69.044  1.00  0.00     0.000 HD 
HETATM   16  O   UNL     1      -7.696  10.653  70.244  1.00  0.00    -0.416 OA 
HETATM   17  C   UNL     1      -8.142  10.546  68.883  1.00  0.00    -0.138 C  
HETATM   18  O   UNL     1      -9.868   9.880  67.366  1.00  0.00    -0.166 OA 
HETATM   19  O   UNL     1      -6.611  12.253  68.161  1.00  0.00    -0.058 OA 
HETATM   20  C   UNL     1      -9.849  11.102  66.623  1.00  0.00    -0.199 C  
HETATM   21  H   UNL     1      -6.803  10.967  70.327  1.00  0.00     0.000 HD 
HETATM   22  C   UNL     1      -8.011  11.912  68.223  1.00  0.00    -0.148 C  
HETATM   23  C   UNL     1      -8.579  11.955  66.796  1.00  0.00    -0.181 C  
BRANCH  20  24
HETATM   24  C   UNL     1     -10.115  10.744  65.143  1.00  0.00    -0.299 C  
HETATM   25  O   UNL     1      -9.150  11.278  64.235  1.00  0.00    -0.371 OA 
HETATM   26  H   UNL     1      -9.314  11.057  63.325  1.00  0.00     0.000 HD 
ENDBRANCH  20  24
BRANCH  23  27
HETATM   27  O   UNL     1      -8.952  13.312  66.427  1.00  0.00    -0.125 OA 
BRANCH  27  28
HETATM   28  C   UNL     1     -10.352  13.579  66.576  1.00  0.00    -0.282 C  
HETATM   29  O   UNL     1     -10.612  14.200  67.825  1.00  0.00    -0.240 OA 
HETATM   30  C   UNL     1      -9.935  15.452  67.961  1.00  0.00    -0.221 C  
HETATM   31  C   UNL     1     -10.495  16.458  66.924  1.00  0.00    -0.289 C  
HETATM   32  C   UNL     1     -10.112  15.862  69.421  1.00  0.00    -0.267 C  
HETATM   33  C   UNL     1     -10.310  15.870  65.498  1.00  0.00    -0.400 C  
HETATM   34  H   UNL     1     -10.911  16.296  63.657  1.00  0.00     0.000 HD 
HETATM   35  C   UNL     1     -10.863  14.445  65.414  1.00  0.00    -0.344 C  
HETATM   36  O   UNL     1     -11.023  16.656  64.528  1.00  0.00    -0.885 OA 
HETATM   37  O   UNL     1     -10.542  13.866  64.136  1.00  0.00    -0.559 OA 
HETATM   38  H   UNL     1     -10.858  14.401  63.418  1.00  0.00     0.000 HD 
BRANCH  31  39
HETATM   39  N   UNL     1      -9.862  17.785  67.119  1.00  0.00    -0.299 NA 
HETATM   40  H   UNL     1     -10.388  18.654  67.020  1.00  0.00     0.000 HD 
BRANCH  39  41
HETATM   41  C   UNL     1      -8.411  17.775  67.469  1.00  0.00    -0.227 C  
HETATM   42  C   UNL     1      -6.789  19.181  66.127  1.00  0.00    -0.254 C  
HETATM   43  C   UNL     1      -7.592  18.125  66.263  1.00  0.00    -0.299 C  
HETATM   44  C   UNL     1      -6.531  20.123  67.271  1.00  0.00    -0.204 C  
HETATM   45  H   UNL     1      -9.275  20.166  69.571  1.00  0.00     0.000 HD 
HETATM   46  O   UNL     1      -9.389  19.582  68.831  1.00  0.00    -0.380 OA 
HETATM   47  C   UNL     1      -6.966  19.620  68.671  1.00  0.00    -0.326 C  
HETATM   48  O   UNL     1      -7.161  21.363  66.963  1.00  0.00    -0.801 OA 
HETATM   49  H   UNL     1      -6.155  18.594  70.151  1.00  0.00     0.000 HD 
HETATM   50  O   UNL     1      -5.888  18.902  69.293  1.00  0.00    -0.213 OA 
HETATM   51  C   UNL     1      -8.224  18.738  68.688  1.00  0.00    -0.329 C  
HETATM   52  H   UNL     1      -6.998  21.958  67.685  1.00  0.00     0.000 HD 
BRANCH  42  53
HETATM   53  C   UNL     1      -6.093  19.530  64.829  1.00  0.00    -0.273 C  
HETATM   54  O   UNL     1      -6.018  20.936  64.619  1.00  0.00    -0.254 OA 
HETATM   55  H   UNL     1      -5.581  21.155  63.804  1.00  0.00     0.000 HD 
ENDBRANCH  42  53
ENDBRANCH  39  41
ENDBRANCH  31  39
ENDBRANCH  27  28
ENDBRANCH  23  27
ENDBRANCH  13  14
ENDBRANCH   4  13
ENDBRANCH   1   4
BRANCH   1  56
HETATM   56  C   UNL     1     -12.715  12.539  70.670  1.00  0.00    -0.052 C  
HETATM   57  O   UNL     1     -11.556  13.352  70.470  1.00  0.00    -0.523 OA 
HETATM   58  H   UNL     1     -11.829  14.208  70.161  1.00  0.00     0.000 HD 
ENDBRANCH   1  56
TORSDOF 12
ENDMDL
MODEL        2
REMARK 921   NORMALIZED FREE ENERGY PREDICTED BY IDOCK:   -7.78 KCAL/MOL
REMARK 922        TOTAL FREE ENERGY PREDICTED BY IDOCK:  -16.42 KCAL/MOL
REMARK 923 INTER-LIGAND FREE ENERGY PREDICTED BY IDOCK:  -13.08 KCAL/MOL
REMARK 924 INTRA-LIGAND FREE ENERGY PREDICTED BY IDOCK:   -3.34 KCAL/MOL
REMARK 927      BINDING AFFINITY PREDICTED BY RF-SCORE:    0.00 PKD
ROOT
HETATM    1  C   UNL     1     -10.431   8.604  70.816  1.00  0.00    -0.204 C  
HETATM    2  H   UNL     1     -11.781   7.693  69.765  1.00  0.00     0.000 HD 
HETATM    3  O   UNL     1     -11.430   7.590  70.642  1.00  0.00    -0.283 OA 
ENDROOT
BRANCH   1   4
HETATM    4  C   UNL     1     -10.969  10.037  70.527  1.00  0.00    -0.326 C  
BRANCH   4   5
HETATM    5  C   UNL     1     -12.502  10.056  70.233  1.00  0.00    -0.032 C  
HETATM    6  O   UNL     1     -12.817  10.928  69.137  1.00  0.00    -0.517 OA 
HETATM    7  H   UNL     1     -13.750  10.939  68.959  1.00  0.00     0.000 HD 
BRANCH   5   8
HETATM    8  C   UNL     1     -13.378  10.486  71.417  1.00  0.00    -0.246 C  
HETATM    9  C   UNL     1     -12.923  11.813  71.983  1.00  0.00    -0.265 C  
HETATM   10  O   UNL     1     -13.253   9.486  72.440  1.00  0.00    -0.463 OA 
HETATM   11  O   UNL     1     -13.365  12.891  71.588  1.00  0.00    -0.369 OA 
HETATM   12  H   UNL     1     -13.795   9.753  73.173  1.00  0.00     0.000 HD 
ENDBRANCH   5   8
ENDBRANCH   4   5
BRANCH   4  13
HETATM   13  O   UNL     1     -10.265  10.689  69.442  1.00  0.00    -0.220 OA 
BRANCH  13  14
HETATM   14  C   UNL     1      -9.258   9.886  68.805  1.00  0.00    -0.147 C  
HETATM   15  H   UNL     1      -6.145  12.346  69.259  1.00  0.00     0.000 HD 
HETATM   16  O   UNL     1      -7.494  10.646  70.386  1.00  0.00    -0.442 OA 
HETATM   17  C   UNL     1      -7.868  10.513  69.006  1.00  0.00    -0.129 C  
HETATM   18  O   UNL     1      -9.461   9.716  67.410  1.00  0.00    -0.139 OA 
HETATM   19  O   UNL     1      -6.457  12.349  68.362  1.00  0.00    -0.052 OA 
HETATM   20  C   UNL     1      -9.514  10.942  66.674  1.00  0.00    -0.179 C  
HETATM   21  H   UNL     1      -6.635  11.034  70.510  1.00  0.00     0.000 HD 
HETATM   22  C   UNL     1      -7.825  11.891  68.359  1.00  0.00    -0.141 C  
HETATM   23  C   UNL     1      -8.330  11.897  66.907  1.00  0.00    -0.169 C  
BRANCH  20  24
HETATM   24  C   UNL     1      -9.682  10.574  65.181  1.00  0.00    -0.282 C  
HETATM   25  O   UNL     1      -8.716  11.182  64.322  1.00  0.00    -0.375 OA 
HETATM   26  H   UNL     1      -8.819  10.955  63.405  1.00  0.00     0.000 HD 
ENDBRANCH  20  24
BRANCH  23  27
HETATM   27  O   UNL     1      -8.800  13.221  66.528  1.00  0.00    -0.130 OA 
BRANCH  27  28
HETATM   28  C   UNL     1     -10.225  13.358  66.586  1.00  0.00    -0.274 C  
HETATM   29  O   UNL     1     -10.624  13.908  67.832  1.00  0.00    -0.239 OA 
HETATM   30  C   UNL     1     -10.073  15.209  68.053  1.00  0.00    -0.222 C  
HETATM   31  C   UNL     1     -10.650  16.199  67.009  1.00  0.00    -0.292 C  
HETATM   32  C   UNL     1     -10.385  15.549  69.509  1.00  0.00    -0.271 C  
HETATM   33  C   UNL     1     -10.318  15.681  65.583  1.00  0.00    -0.385 C  
HETATM   34  H   UNL     1     -10.828  16.120  63.718  1.00  0.00     0.000 HD 
HETATM   35  C   UNL     1     -10.732  14.217  65.417  1.00  0.00    -0.342 C  
HETATM   36  O   UNL     1     -11.032  16.437  64.590  1.00  0.00    -0.707 OA 
HETATM   37  O   UNL     1     -10.275  13.715  64.149  1.00  0.00    -0.718 OA 
HETATM   38  H   UNL     1     -10.589  14.246  63.426  1.00  0.00     0.000 HD 
BRANCH  31  39
HETATM   39  N   UNL     1     -10.155  17.569  67.289  1.00  0.00    -0.316 NA 
HETATM   40  H   UNL     1     -10.760  18.387  67.218  1.00  0.00     0.000 HD 
BRANCH  39  41
HETATM   41  C   UNL     1      -8.719  17.680  67.679  1.00  0.00    -0.232 C  
HETATM   42  C   UNL     1      -7.190  19.243  66.402  1.00  0.00    -0.252 C  
HETATM   43  C   UNL     1      -7.901  18.119  66.502  1.00  0.00    -0.287 C  
HETATM   44  C   UNL     1      -7.046  20.186  67.566  1.00  0.00    -0.276 C  
HETATM   45  H   UNL     1      -9.845  19.953  69.787  1.00  0.00     0.000 HD 
HETATM   46  O   UNL     1      -9.888  19.373  69.036  1.00  0.00    -0.428 OA 
HETATM   47  C   UNL     1      -7.474  19.624  68.946  1.00  0.00    -0.323 C  
HETATM   48  O   UNL     1      -7.774  21.371  67.256  1.00  0.00    -0.729 OA 
HETATM   49  H   UNL     1      -6.617  18.650  70.434  1.00  0.00     0.000 HD 
HETATM   50  O   UNL     1      -6.354  18.994  69.588  1.00  0.00    -0.276 OA 
HETATM   51  C   UNL     1      -8.649  18.636  68.916  1.00  0.00    -0.170 C  
HETATM   52  H   UNL     1      -7.684  21.966  67.991  1.00  0.00     0.000 HD 
BRANCH  42  53
HETATM   53  C   UNL     1      -6.492  19.671  65.130  1.00  0.00    -0.282 C  
HETATM   54  O   UNL     1      -7.042  20.868  64.590  1.00  0.00    -0.492 OA 
HETATM   55  H   UNL     1      -6.604  21.137  63.791  1.00  0.00     0.000 HD 
ENDBRANCH  42  53
ENDBRANCH  39  41
ENDBRANCH  31  39
ENDBRANCH  27  28
ENDBRANCH  23  27
ENDBRANCH  13  14
ENDBRANCH   4  13
ENDBRANCH   1   4
BRANCH   1  56
HETATM   56  C   UNL     1      -9.867   8.439  72.230  1.00  0.00    -0.313 C  
HETATM   57  O   UNL     1      -8.443   8.334  72.150  1.00  0.00    -0.148 OA 
HETATM   58  H   UNL     1      -8.092   8.232  73.028  1.00  0.00     0.000 HD 
ENDBRANCH   1  56
TORSDOF 12
ENDMDL
MODEL        3
REMARK 921   NORMALIZED FREE ENERGY PREDICTED BY IDOCK:   -7.50 KCAL/MOL
REMARK 922        TOTAL FREE ENERGY PREDICTED BY IDOCK:  -15.95 KCAL/MOL
REMARK 923 INTER-LIGAND FREE ENERGY PREDICTED BY IDOCK:  -12.55 KCAL/MOL
REMARK 924 INTRA-LIGAND FREE ENERGY PREDICTED BY IDOCK:   -3.40 KCAL/MOL
REMARK 927      BINDING AFFINITY PREDICTED BY RF-SCORE:    0.00 PKD
ROOT
HETATM    1  C   UNL     1     -10.567   6.930  68.782  1.00  0.00    -0.220 C  
HETATM    2  H   UNL     1     -11.637   5.333  69.033  1.00  0.00     0.000 HD 
HETATM    3  O   UNL     1     -11.608   6.193  69.437  1.00  0.00    -0.372 OA 
ENDROOT
BRANCH   1   4
HETATM    4  C   UNL     1     -10.742   6.977  67.235  1.00  0.00    -0.342 C  
BRANCH   4   5
HETATM    5  C   UNL     1     -10.161   5.712  66.526  1.00  0.00    -0.211 C  
HETATM    6  O   UNL     1     -11.173   5.013  65.787  1.00  0.00    -0.804 OA 
HETATM    7  H   UNL     1     -10.820   4.243  65.355  1.00  0.00     0.000 HD 
BRANCH   5   8
HETATM    8  C   UNL     1      -9.505   4.692  67.466  1.00  0.00    -0.153 C  
HETATM    9  C   UNL     1      -7.997   4.805  67.432  1.00  0.00    -0.094 C  
HETATM   10  O   UNL     1      -9.875   3.380  67.013  1.00  0.00    -0.371 OA 
HETATM   11  O   UNL     1      -7.368   5.536  68.195  1.00  0.00    -0.071 OA 
HETATM   12  H   UNL     1      -9.469   2.749  67.596  1.00  0.00     0.000 HD 
ENDBRANCH   5   8
ENDBRANCH   4   5
BRANCH   4  13
HETATM   13  O   UNL     1     -10.165   8.166  66.643  1.00  0.00    -0.292 OA 
BRANCH  13  14
HETATM   14  C   UNL     1      -8.898   7.965  65.993  1.00  0.00    -0.158 C  
HETATM   15  H   UNL     1      -6.780  10.745  67.925  1.00  0.00     0.000 HD 
HETATM   16  O   UNL     1      -7.627   8.456  68.075  1.00  0.00    -0.095 OA 
HETATM   17  C   UNL     1      -7.804   8.791  66.689  1.00  0.00    -0.100 C  
HETATM   18  O   UNL     1      -8.901   8.316  64.617  1.00  0.00     0.028 OA 
HETATM   19  O   UNL     1      -6.988  11.024  67.041  1.00  0.00    -0.101 OA 
HETATM   20  C   UNL     1      -9.265   9.676  64.363  1.00  0.00    -0.200 C  
HETATM   21  H   UNL     1      -6.951   8.967  68.505  1.00  0.00     0.000 HD 
HETATM   22  C   UNL     1      -8.134  10.274  66.589  1.00  0.00    -0.119 C  
HETATM   23  C   UNL     1      -8.471  10.727  65.160  1.00  0.00    -0.101 C  
BRANCH  20  24
HETATM   24  C   UNL     1      -9.162   9.901  62.836  1.00  0.00    -0.261 C  
HETATM   25  O   UNL     1      -8.446  11.082  62.471  1.00  0.00    -0.322 OA 
HETATM   26  H   UNL     1      -8.382  11.219  61.533  1.00  0.00     0.000 HD 
ENDBRANCH  20  24
BRANCH  23  27
HETATM   27  O   UNL     1      -9.295  11.926  65.177  1.00  0.00    -0.111 OA 
BRANCH  27  28
HETATM   28  C   UNL     1     -10.695  11.654  65.312  1.00  0.00    -0.291 C  
HETATM   29  O   UNL     1     -11.081  11.687  66.678  1.00  0.00    -0.287 OA 
HETATM   30  C   UNL     1     -10.847  12.963  67.278  1.00  0.00    -0.255 C  
HETATM   31  C   UNL     1     -11.759  14.023  66.610  1.00  0.00    -0.399 C  
HETATM   32  C   UNL     1     -11.074  12.766  68.775  1.00  0.00    -0.303 C  
HETATM   33  C   UNL     1     -11.465  14.055  65.085  1.00  0.00    -0.328 C  
HETATM   34  H   UNL     1     -12.265  14.868  63.463  1.00  0.00     0.000 HD 
HETATM   35  C   UNL     1     -11.521  12.649  64.483  1.00  0.00    -0.339 C  
HETATM   36  O   UNL     1     -12.445  14.849  64.395  1.00  0.00    -0.558 OA 
HETATM   37  O   UNL     1     -11.094  12.683  63.110  1.00  0.00    -0.702 OA 
HETATM   38  H   UNL     1     -11.604  13.298  62.597  1.00  0.00     0.000 HD 
BRANCH  31  39
HETATM   39  N   UNL     1     -11.589  15.332  67.288  1.00  0.00    -0.231 NA 
HETATM   40  H   UNL     1     -12.349  15.774  67.806  1.00  0.00     0.000 HD 
BRANCH  39  41
HETATM   41  C   UNL     1     -10.242  15.962  67.168  1.00  0.00    -0.278 C  
HETATM   42  C   UNL     1     -10.057  18.440  66.682  1.00  0.00    -0.399 C  
HETATM   43  C   UNL     1     -10.326  17.188  66.310  1.00  0.00    -0.315 C  
HETATM   44  C   UNL     1      -9.513  18.752  68.050  1.00  0.00    -0.312 C  
HETATM   45  H   UNL     1     -10.500  16.276  70.442  1.00  0.00     0.000 HD 
HETATM   46  O   UNL     1     -10.817  16.122  69.559  1.00  0.00    -0.280 OA 
HETATM   47  C   UNL     1      -8.976  17.540  68.855  1.00  0.00    -0.144 C  
HETATM   48  O   UNL     1     -10.533  19.429  68.779  1.00  0.00    -0.506 OA 
HETATM   49  H   UNL     1      -7.252  16.601  69.068  1.00  0.00     0.000 HD 
HETATM   50  O   UNL     1      -7.581  17.343  68.574  1.00  0.00    -0.233 OA 
HETATM   51  C   UNL     1      -9.721  16.218  68.622  1.00  0.00    -0.235 C  
HETATM   52  H   UNL     1     -10.190  19.625  69.643  1.00  0.00     0.000 HD 
BRANCH  42  53
HETATM   53  C   UNL     1     -10.286  19.638  65.787  1.00  0.00    -0.412 C  
HETATM   54  O   UNL     1      -9.670  20.817  66.295  1.00  0.00    -0.597 OA 
HETATM   55  H   UNL     1      -9.815  21.570  65.733  1.00  0.00     0.000 HD 
ENDBRANCH  42  53
ENDBRANCH  39  41
ENDBRANCH  31  39
ENDBRANCH  27  28
ENDBRANCH  23  27
ENDBRANCH  13  14
ENDBRANCH   4  13
ENDBRANCH   1   4
BRANCH   1  56
HETATM   56  C   UNL     1     -10.521   8.315  69.432  1.00  0.00    -0.220 C  
HETATM   57  O   UNL     1     -11.208   9.244  68.591  1.00  0.00    -0.458 OA 
HETATM   58  H   UNL     1     -11.180  10.104  68.994  1.00  0.00     0.000 HD 
ENDBRANCH   1  56
TORSDOF 12
ENDMDL
MODEL        4
REMARK 921   NORMALIZED FREE ENERGY PREDICTED BY IDOCK:   -7.47 KCAL/MOL
REMARK 922        TOTAL FREE ENERGY PREDICTED BY IDOCK:  -15.90 KCAL/MOL
REMARK 923 INTER-LIGAND FREE ENERGY PREDICTED BY IDOCK:  -12.43 KCAL/MOL
REMARK 924 INTRA-LIGAND FREE ENERGY PREDICTED BY IDOCK:   -3.47 KCAL/MOL
REMARK 927      BINDING AFFINITY PREDICTED BY RF-SCORE:    0.00 PKD
ROOT
HETATM    1  C   UNL     1      -6.843  16.039  68.016  1.00  0.00    -0.129 C  
HETATM    2  H   UNL     1      -5.283  16.737  67.102  1.00  0.00     0.000 HD 
HETATM    3  O   UNL     1      -5.479  15.943  67.586  1.00  0.00    -0.135 OA 
ENDROOT
BRANCH   1   4
HETATM    4  C   UNL     1      -7.829  16.308  66.840  1.00  0.00    -0.243 C  
BRANCH   4   5
HETATM    5  C   UNL     1      -8.368  17.773  66.833  1.00  0.00    -0.238 C  
HETATM    6  O   UNL     1      -7.873  18.510  65.704  1.00  0.00    -0.491 OA 
HETATM    7  H   UNL     1      -8.201  19.402  65.699  1.00  0.00     0.000 HD 
BRANCH   5   8
HETATM    8  C   UNL     1      -8.030  18.590  68.086  1.00  0.00    -0.289 C  
HETATM    9  C   UNL     1      -9.187  19.475  68.494  1.00  0.00    -0.356 C  
HETATM   10  O   UNL     1      -6.904  19.426  67.773  1.00  0.00    -0.223 OA 
HETATM   11  O   UNL     1     -10.062  19.108  69.276  1.00  0.00    -0.339 OA 
HETATM   12  H   UNL     1      -6.695  19.931  68.550  1.00  0.00     0.000 HD 
ENDBRANCH   5   8
ENDBRANCH   4   5
BRANCH   4  13
HETATM   13  O   UNL     1      -8.946  15.386  66.825  1.00  0.00    -0.219 OA 
BRANCH  13  14
HETATM   14  C   UNL     1     -10.224  15.989  66.565  1.00  0.00    -0.293 C  
HETATM   15  H   UNL     1     -12.162  14.724  69.820  1.00  0.00     0.000 HD 
HETATM   16  O   UNL     1     -10.629  16.434  68.979  1.00  0.00    -0.265 OA 
HETATM   17  C   UNL     1     -11.148  15.828  67.784  1.00  0.00    -0.313 C  
HETATM   18  O   UNL     1     -10.893  15.444  65.437  1.00  0.00    -0.346 OA 
HETATM   19  O   UNL     1     -12.433  14.239  69.049  1.00  0.00    -0.200 OA 
HETATM   20  C   UNL     1     -11.130  14.035  65.523  1.00  0.00    -0.309 C  
HETATM   21  H   UNL     1     -11.200  16.334  69.732  1.00  0.00     0.000 HD 
HETATM   22  C   UNL     1     -11.391  14.350  68.057  1.00  0.00    -0.294 C  
HETATM   23  C   UNL     1     -11.829  13.566  66.811  1.00  0.00    -0.406 C  
BRANCH  20  24
HETATM   24  C   UNL     1     -11.908  13.622  64.252  1.00  0.00    -0.425 C  
HETATM   25  O   UNL     1     -12.421  14.725  63.503  1.00  0.00    -1.053 OA 
HETATM   26  H   UNL     1     -12.899  14.471  62.722  1.00  0.00     0.000 HD 
ENDBRANCH  20  24
BRANCH  23  27
HETATM   27  O   UNL     1     -11.510  12.153  66.950  1.00  0.00    -0.324 OA 
BRANCH  27  28
HETATM   28  C   UNL     1     -10.214  11.914  67.513  1.00  0.00    -0.196 C  
HETATM   29  O   UNL     1     -10.317  11.629  68.900  1.00  0.00    -0.209 OA 
HETATM   30  C   UNL     1     -11.103  10.463  69.159  1.00  0.00    -0.246 C  
HETATM   31  C   UNL     1     -10.386   9.218  68.577  1.00  0.00    -0.209 C  
HETATM   32  C   UNL     1     -11.320  10.436  70.670  1.00  0.00    -0.411 C  
HETATM   33  C   UNL     1     -10.170   9.425  67.053  1.00  0.00    -0.255 C  
HETATM   34  H   UNL     1      -9.173   8.534  65.588  1.00  0.00     0.000 HD 
HETATM   35  C   UNL     1      -9.504  10.773  66.768  1.00  0.00    -0.173 C  
HETATM   36  O   UNL     1      -9.305   8.406  66.520  1.00  0.00    -0.172 OA 
HETATM   37  O   UNL     1      -9.456  11.010  65.350  1.00  0.00    -0.205 OA 
HETATM   38  H   UNL     1      -9.017  10.306  64.889  1.00  0.00     0.000 HD 
BRANCH  31  39
HETATM   39  N   UNL     1     -11.149   7.992  68.921  1.00  0.00    -0.407 NA 
HETATM   40  H   UNL     1     -12.141   7.895  68.703  1.00  0.00     0.000 HD 
BRANCH  39  41
HETATM   41  C   UNL     1     -10.379   6.912  69.603  1.00  0.00    -0.206 C  
HETATM   42  C   UNL     1      -8.837   7.493  71.525  1.00  0.00    -0.133 C  
HETATM   43  C   UNL     1      -9.141   7.481  70.226  1.00  0.00    -0.154 C  
HETATM   44  C   UNL     1      -9.709   6.807  72.541  1.00  0.00    -0.153 C  
HETATM   45  H   UNL     1     -13.110   6.626  71.433  1.00  0.00     0.000 HD 
HETATM   46  O   UNL     1     -12.517   7.049  70.822  1.00  0.00    -0.338 OA 
HETATM   47  C   UNL     1     -10.763   5.823  71.970  1.00  0.00    -0.233 C  
HETATM   48  O   UNL     1     -10.335   7.816  73.328  1.00  0.00    -0.334 OA 
HETATM   49  H   UNL     1     -10.848   3.902  71.521  1.00  0.00     0.000 HD 
HETATM   50  O   UNL     1     -10.201   4.505  71.870  1.00  0.00    -0.195 OA 
HETATM   51  C   UNL     1     -11.355   6.215  70.609  1.00  0.00    -0.298 C  
HETATM   52  H   UNL     1     -10.886   7.382  73.970  1.00  0.00     0.000 HD 
BRANCH  42  53
HETATM   53  C   UNL     1      -7.622   8.200  72.085  1.00  0.00    -0.115 C  
HETATM   54  O   UNL     1      -7.911   8.892  73.295  1.00  0.00    -0.381 OA 
HETATM   55  H   UNL     1      -7.148   9.336  73.647  1.00  0.00     0.000 HD 
ENDBRANCH  42  53
ENDBRANCH  39  41
ENDBRANCH  31  39
ENDBRANCH  27  28
ENDBRANCH  23  27
ENDBRANCH  13  14
ENDBRANCH   4  13
ENDBRANCH   1   4
BRANCH   1  56
HETATM   56  C   UNL     1      -7.159  14.760  68.795  1.00  0.00    -0.114 C  
HETATM   57  O   UNL     1      -8.155  15.051  69.779  1.00  0.00    -0.402 OA 
HETATM   58  H   UNL     1      -8.352  14.257  70.263  1.00  0.00     0.000 HD 
ENDBRANCH   1  56
TORSDOF 12
ENDMDL
MODEL        5
REMARK 921   NORMALIZED FREE ENERGY PREDICTED BY IDOCK:   -7.41 KCAL/MOL
REMARK 922        TOTAL FREE ENERGY PREDICTED BY IDOCK:  -15.80 KCAL/MOL
REMARK 923 INTER-LIGAND FREE ENERGY PREDICTED BY IDOCK:  -13.83 KCAL/MOL
REMARK 924 INTRA-LIGAND FREE ENERGY PREDICTED BY IDOCK:   -1.96 KCAL/MOL
REMARK 927      BINDING AFFINITY PREDICTED BY RF-SCORE:    0.00 PKD
ROOT
HETATM    1  C   UNL     1     -12.845   9.160  71.274  1.00  0.00    -0.264 C  
HETATM    2  H   UNL     1     -12.033  10.915  71.405  1.00  0.00     0.000 HD 
HETATM    3  O   UNL     1     -12.731  10.461  71.864  1.00  0.00    -0.420 OA 
ENDROOT
BRANCH   1   4
HETATM    4  C   UNL     1     -11.497   8.379  71.269  1.00  0.00    -0.280 C  
BRANCH   4   5
HETATM    5  C   UNL     1     -11.103   7.850  72.684  1.00  0.00    -0.385 C  
HETATM    6  O   UNL     1      -9.796   8.302  73.070  1.00  0.00    -0.266 OA 
HETATM    7  H   UNL     1      -9.556   7.981  73.931  1.00  0.00     0.000 HD 
BRANCH   5   8
HETATM    8  C   UNL     1     -11.110   6.323  72.825  1.00  0.00    -0.251 C  
HETATM    9  C   UNL     1     -10.226   5.671  71.785  1.00  0.00    -0.202 C  
HETATM   10  O   UNL     1     -12.459   5.872  72.625  1.00  0.00    -0.537 OA 
HETATM   11  O   UNL     1      -9.036   5.432  71.980  1.00  0.00    -0.134 OA 
HETATM   12  H   UNL     1     -12.464   4.926  72.713  1.00  0.00     0.000 HD 
ENDBRANCH   5   8
ENDBRANCH   4   5
BRANCH   4  13
HETATM   13  O   UNL     1     -10.403   9.157  70.726  1.00  0.00    -0.217 OA 
BRANCH  13  14
HETATM   14  C   UNL     1      -9.394   8.391  70.046  1.00  0.00    -0.159 C  
HETATM   15  H   UNL     1      -6.575  11.206  69.778  1.00  0.00     0.000 HD 
HETATM   16  O   UNL     1      -7.549   9.529  71.267  1.00  0.00    -0.327 OA 
HETATM   17  C   UNL     1      -8.078   9.183  69.977  1.00  0.00    -0.128 C  
HETATM   18  O   UNL     1      -9.753   8.024  68.722  1.00  0.00    -0.151 OA 
HETATM   19  O   UNL     1      -6.997  11.062  68.939  1.00  0.00    -0.073 OA 
HETATM   20  C   UNL     1     -10.049   9.134  67.868  1.00  0.00    -0.199 C  
HETATM   21  H   UNL     1      -6.736  10.019  71.224  1.00  0.00     0.000 HD 
HETATM   22  C   UNL     1      -8.287  10.464  69.181  1.00  0.00    -0.158 C  
HETATM   23  C   UNL     1      -8.971  10.232  67.824  1.00  0.00    -0.134 C  
BRANCH  20  24
HETATM   24  C   UNL     1     -10.360   8.564  66.465  1.00  0.00    -0.145 C  
HETATM   25  O   UNL     1      -9.553   9.115  65.423  1.00  0.00    -0.423 OA 
HETATM   26  H   UNL     1      -9.744   8.764  64.561  1.00  0.00     0.000 HD 
ENDBRANCH  20  24
BRANCH  23  27
HETATM   27  O   UNL     1      -9.644  11.439  67.370  1.00  0.00    -0.172 OA 
BRANCH  27  28
HETATM   28  C   UNL     1     -11.071  11.315  67.331  1.00  0.00    -0.297 C  
HETATM   29  O   UNL     1     -11.644  11.750  68.556  1.00  0.00    -0.271 OA 
HETATM   30  C   UNL     1     -11.354  13.122  68.834  1.00  0.00    -0.289 C  
HETATM   31  C   UNL     1     -12.032  14.020  67.769  1.00  0.00    -0.357 C  
HETATM   32  C   UNL     1     -11.816  13.360  70.270  1.00  0.00    -0.316 C  
HETATM   33  C   UNL     1     -11.519  13.611  66.361  1.00  0.00    -0.338 C  
HETATM   34  H   UNL     1     -11.979  14.002  64.472  1.00  0.00     0.000 HD 
HETATM   35  C   UNL     1     -11.649  12.101  66.144  1.00  0.00    -0.354 C  
HETATM   36  O   UNL     1     -12.293  14.253  65.333  1.00  0.00    -0.417 OA 
HETATM   37  O   UNL     1     -11.027  11.726  64.902  1.00  0.00    -0.297 OA 
HETATM   38  H   UNL     1     -11.385  12.211  64.169  1.00  0.00     0.000 HD 
BRANCH  31  39
HETATM   39  N   UNL     1     -11.813  15.449  68.103  1.00  0.00    -0.454 NA 
HETATM   40  H   UNL     1     -12.531  16.013  68.558  1.00  0.00     0.000 HD 
BRANCH  39  41
HETATM   41  C   UNL     1     -10.481  16.012  67.733  1.00  0.00    -0.298 C  
HETATM   42  C   UNL     1     -10.298  18.435  67.024  1.00  0.00    -0.419 C  
HETATM   43  C   UNL     1     -10.658  17.171  66.799  1.00  0.00    -0.192 C  
HETATM   44  C   UNL     1      -9.544  18.827  68.266  1.00  0.00    -0.353 C  
HETATM   45  H   UNL     1     -10.231  16.584  70.972  1.00  0.00     0.000 HD 
HETATM   46  O   UNL     1     -10.682  16.376  70.162  1.00  0.00    -0.299 OA 
HETATM   47  C   UNL     1      -8.928  17.659  69.078  1.00  0.00    -0.023 C  
HETATM   48  O   UNL     1     -10.422  19.600  69.081  1.00  0.00    -0.570 OA 
HETATM   49  H   UNL     1      -7.221  16.667  69.108  1.00  0.00     0.000 HD 
HETATM   50  O   UNL     1      -7.598  17.383  68.610  1.00  0.00    -0.246 OA 
HETATM   51  C   UNL     1      -9.738  16.355  69.067  1.00  0.00    -0.262 C  
HETATM   52  H   UNL     1      -9.946  19.847  69.865  1.00  0.00     0.000 HD 
BRANCH  42  53
HETATM   53  C   UNL     1     -10.625  19.571  66.079  1.00  0.00    -0.491 C  
HETATM   54  O   UNL     1      -9.503  20.415  65.841  1.00  0.00    -0.641 OA 
HETATM   55  H   UNL     1      -9.709  21.128  65.248  1.00  0.00     0.000 HD 
ENDBRANCH  42  53
ENDBRANCH  39  41
ENDBRANCH  31  39
ENDBRANCH  27  28
ENDBRANCH  23  27
ENDBRANCH  13  14
ENDBRANCH   4  13
ENDBRANCH   1   4
BRANCH   1  56
HETATM   56  C   UNL     1     -13.969   8.429  72.014  1.00  0.00    -0.405 C  
HETATM   57  O   UNL     1     -14.146   9.031  73.299  1.00  0.00    -1.218 OA 
HETATM   58  H   UNL     1     -14.843   8.578  73.758  1.00  0.00     0.000 HD 
ENDBRANCH   1  56
TORSDOF 12
ENDMDL
MODEL        6
REMARK 921   NORMALIZED FREE ENERGY PREDICTED BY IDOCK:   -7.35 KCAL/MOL
REMARK 922        TOTAL FREE ENERGY PREDICTED BY IDOCK:  -15.70 KCAL/MOL
REMARK 923 INTER-LIGAND FREE ENERGY PREDICTED BY IDOCK:  -12.42 KCAL/MOL
REMARK 924 INTRA-LIGAND FREE ENERGY PREDICTED BY IDOCK:   -3.28 KCAL/MOL
REMARK 927      BINDING AFFINITY PREDICTED BY RF-SCORE:    0.00 PKD
ROOT
HETATM    1  C   UNL     1     -10.361   6.510  71.279  1.00  0.00    -0.204 C  
HETATM    2  H   UNL     1      -8.600   5.914  70.729  1.00  0.00     0.000 HD 
HETATM    3  O   UNL     1      -9.292   5.555  71.273  1.00  0.00    -0.144 OA 
ENDROOT
BRANCH   1   4
HETATM    4  C   UNL     1     -10.835   6.895  69.845  1.00  0.00    -0.257 C  
BRANCH   4   5
HETATM    5  C   UNL     1      -9.809   6.482  68.743  1.00  0.00    -0.140 C  
HETATM    6  O   UNL     1      -8.600   7.251  68.835  1.00  0.00    -0.128 OA 
HETATM    7  H   UNL     1      -7.976   6.999  68.164  1.00  0.00     0.000 HD 
BRANCH   5   8
HETATM    8  C   UNL     1     -10.321   6.621  67.303  1.00  0.00    -0.232 C  
HETATM    9  C   UNL     1      -9.910   7.946  66.700  1.00  0.00    -0.241 C  
HETATM   10  O   UNL     1     -11.756   6.563  67.342  1.00  0.00    -0.618 OA 
HETATM   11  O   UNL     1      -8.863   8.095  66.074  1.00  0.00    -0.157 OA 
HETATM   12  H   UNL     1     -12.073   6.649  66.451  1.00  0.00     0.000 HD 
ENDBRANCH   5   8
ENDBRANCH   4   5
BRANCH   4  13
HETATM   13  O   UNL     1     -11.136   8.305  69.716  1.00  0.00    -0.182 OA 
BRANCH  13  14
HETATM   14  C   UNL     1     -10.475   9.155  70.669  1.00  0.00    -0.245 C  
HETATM   15  H   UNL     1     -13.342  11.897  71.123  1.00  0.00     0.000 HD 
HETATM   16  O   UNL     1     -12.604   9.680  71.844  1.00  0.00    -0.377 OA 
HETATM   17  C   UNL     1     -11.446  10.226  71.192  1.00  0.00    -0.237 C  
HETATM   18  O   UNL     1      -9.334   9.819  70.145  1.00  0.00    -0.234 OA 
HETATM   19  O   UNL     1     -12.627  12.233  70.595  1.00  0.00    -0.257 OA 
HETATM   20  C   UNL     1      -9.608  10.640  69.005  1.00  0.00    -0.195 C  
HETATM   21  H   UNL     1     -13.205  10.342  72.166  1.00  0.00     0.000 HD 
HETATM   22  C   UNL     1     -11.910  11.110  70.042  1.00  0.00    -0.361 C  
HETATM   23  C   UNL     1     -10.754  11.652  69.187  1.00  0.00    -0.145 C  
BRANCH  20  24
HETATM   24  C   UNL     1      -8.282  11.325  68.604  1.00  0.00    -0.146 C  
HETATM   25  O   UNL     1      -7.415  11.602  69.706  1.00  0.00    -0.314 OA 
HETATM   26  H   UNL     1      -6.600  12.023  69.459  1.00  0.00     0.000 HD 
ENDBRANCH  20  24
BRANCH  23  27
HETATM   27  O   UNL     1     -11.212  11.986  67.847  1.00  0.00    -0.229 OA 
BRANCH  27  28
HETATM   28  C   UNL     1     -11.955  13.210  67.788  1.00  0.00    -0.307 C  
HETATM   29  O   UNL     1     -11.337  14.209  68.586  1.00  0.00    -0.247 OA 
HETATM   30  C   UNL     1     -10.009  14.508  68.149  1.00  0.00    -0.220 C  
HETATM   31  C   UNL     1     -10.060  15.142  66.736  1.00  0.00    -0.258 C  
HETATM   32  C   UNL     1      -9.406  15.396  69.235  1.00  0.00    -0.254 C  
HETATM   33  C   UNL     1     -10.764  14.156  65.764  1.00  0.00    -0.299 C  
HETATM   34  H   UNL     1     -11.473  14.191  63.912  1.00  0.00     0.000 HD 
HETATM   35  C   UNL     1     -12.103  13.682  66.333  1.00  0.00    -0.433 C  
HETATM   36  O   UNL     1     -11.043  14.794  64.506  1.00  0.00    -0.336 OA 
HETATM   37  O   UNL     1     -12.660  12.654  65.494  1.00  0.00    -0.634 OA 
HETATM   38  H   UNL     1     -12.752  12.946  64.595  1.00  0.00     0.000 HD 
BRANCH  31  39
HETATM   39  N   UNL     1      -8.695  15.539  66.313  1.00  0.00    -0.400 NA 
HETATM   40  H   UNL     1      -7.910  14.888  66.340  1.00  0.00     0.000 HD 
BRANCH  39  41
HETATM   41  C   UNL     1      -8.537  16.948  65.847  1.00  0.00    -0.013 C  
HETATM   42  C   UNL     1      -9.317  18.852  67.323  1.00  0.00    -0.324 C  
HETATM   43  C   UNL     1      -9.558  17.823  66.509  1.00  0.00    -0.315 C  
HETATM   44  C   UNL     1      -7.915  19.327  67.591  1.00  0.00    -0.278 C  
HETATM   45  H   UNL     1      -5.540  16.675  67.198  1.00  0.00     0.000 HD 
HETATM   46  O   UNL     1      -6.443  16.425  67.035  1.00  0.00    -0.180 OA 
HETATM   47  C   UNL     1      -6.825  18.789  66.630  1.00  0.00    -0.198 C  
HETATM   48  O   UNL     1      -7.599  19.004  68.943  1.00  0.00    -0.333 OA 
HETATM   49  H   UNL     1      -6.015  19.341  64.915  1.00  0.00     0.000 HD 
HETATM   50  O   UNL     1      -6.684  19.671  65.504  1.00  0.00    -0.256 OA 
HETATM   51  C   UNL     1      -7.052  17.360  66.116  1.00  0.00    -0.284 C  
HETATM   52  H   UNL     1      -6.714  19.304  69.112  1.00  0.00     0.000 HD 
BRANCH  42  53
HETATM   53  C   UNL     1     -10.409  19.607  68.049  1.00  0.00    -0.453 C  
HETATM   54  O   UNL     1     -10.307  19.474  69.463  1.00  0.00    -0.573 OA 
HETATM   55  H   UNL     1     -10.993  19.948  69.919  1.00  0.00     0.000 HD 
ENDBRANCH  42  53
ENDBRANCH  39  41
ENDBRANCH  31  39
ENDBRANCH  27  28
ENDBRANCH  23  27
ENDBRANCH  13  14
ENDBRANCH   4  13
ENDBRANCH   1   4
BRANCH   1  56
HETATM   56  C   UNL     1     -11.475   5.931  72.154  1.00  0.00    -0.276 C  
HETATM   57  O   UNL     1     -12.519   6.900  72.277  1.00  0.00    -0.506 OA 
HETATM   58  H   UNL     1     -13.211   6.541  72.820  1.00  0.00     0.000 HD 
ENDBRANCH   1  56
TORSDOF 12
ENDMDL
MODEL        7
REMARK 921   NORMALIZED FREE ENERGY PREDICTED BY IDOCK:   -7.34 KCAL/MOL
REMARK 922        TOTAL FREE ENERGY PREDICTED BY IDOCK:  -15.68 KCAL/MOL
REMARK 923 INTER-LIGAND FREE ENERGY PREDICTED BY IDOCK:  -12.43 KCAL/MOL
REMARK 924 INTRA-LIGAND FREE ENERGY PREDICTED BY IDOCK:   -3.25 KCAL/MOL
REMARK 927      BINDING AFFINITY PREDICTED BY RF-SCORE:    0.00 PKD
ROOT
HETATM    1  C   UNL     1     -11.377   6.779  70.268  1.00  0.00    -0.352 C  
HETATM    2  H   UNL     1     -11.930   6.140  72.013  1.00  0.00     0.000 HD 
HETATM    3  O   UNL     1     -11.638   5.728  71.208  1.00  0.00    -0.124 OA 
ENDROOT
BRANCH   1   4
HETATM    4  C   UNL     1     -10.381   7.844  70.816  1.00  0.00    -0.203 C  
BRANCH   4   5
HETATM    5  C   UNL     1     -11.038   8.799  71.861  1.00  0.00    -0.364 C  
HETATM    6  O   UNL     1     -11.483   8.082  73.023  1.00  0.00    -0.488 OA 
HETATM    7  H   UNL     1     -11.882   8.664  73.659  1.00  0.00     0.000 HD 
BRANCH   5   8
HETATM    8  C   UNL     1     -12.239   9.597  71.338  1.00  0.00    -0.385 C  
HETATM    9  C   UNL     1     -13.540   8.876  71.617  1.00  0.00    -0.383 C  
HETATM   10  O   UNL     1     -12.088   9.732  69.916  1.00  0.00    -0.461 OA 
HETATM   11  O   UNL     1     -14.190   9.053  72.645  1.00  0.00    -0.574 OA 
HETATM   12  H   UNL     1     -12.832  10.226  69.592  1.00  0.00     0.000 HD 
ENDBRANCH   5   8
ENDBRANCH   4   5
BRANCH   4  13
HETATM   13  O   UNL     1      -9.770   8.631  69.764  1.00  0.00    -0.172 OA 
BRANCH  13  14
HETATM   14  C   UNL     1      -8.418   8.264  69.443  1.00  0.00    -0.123 C  
HETATM   15  H   UNL     1      -6.594  11.631  70.577  1.00  0.00     0.000 HD 
HETATM   16  O   UNL     1      -7.500   9.510  71.391  1.00  0.00    -0.326 OA 
HETATM   17  C   UNL     1      -7.438   9.327  69.967  1.00  0.00    -0.094 C  
HETATM   18  O   UNL     1      -8.185   8.106  68.051  1.00  0.00    -0.126 OA 
HETATM   19  O   UNL     1      -6.647  11.571  69.630  1.00  0.00    -0.120 OA 
HETATM   20  C   UNL     1      -8.474   9.272  67.274  1.00  0.00    -0.125 C  
HETATM   21  H   UNL     1      -6.895  10.168  71.714  1.00  0.00     0.000 HD 
HETATM   22  C   UNL     1      -7.717  10.664  69.295  1.00  0.00    -0.142 C  
HETATM   23  C   UNL     1      -7.803  10.568  67.763  1.00  0.00    -0.104 C  
BRANCH  20  24
HETATM   24  C   UNL     1      -8.115   8.947  65.806  1.00  0.00    -0.107 C  
HETATM   25  O   UNL     1      -9.244   8.635  64.988  1.00  0.00    -0.433 OA 
HETATM   26  H   UNL     1      -9.023   8.435  64.086  1.00  0.00     0.000 HD 
ENDBRANCH  20  24
BRANCH  23  27
HETATM   27  O   UNL     1      -8.594  11.662  67.219  1.00  0.00    -0.143 OA 
BRANCH  27  28
HETATM   28  C   UNL     1      -9.972  11.324  67.022  1.00  0.00    -0.198 C  
HETATM   29  O   UNL     1     -10.740  11.665  68.166  1.00  0.00    -0.195 OA 
HETATM   30  C   UNL     1     -10.692  13.065  68.454  1.00  0.00    -0.256 C  
HETATM   31  C   UNL     1     -11.372  13.852  67.305  1.00  0.00    -0.323 C  
HETATM   32  C   UNL     1     -11.346  13.228  69.824  1.00  0.00    -0.132 C  
HETATM   33  C   UNL     1     -10.646  13.527  65.971  1.00  0.00    -0.285 C  
HETATM   34  H   UNL     1     -10.940  13.848  64.036  1.00  0.00     0.000 HD 
HETATM   35  C   UNL     1     -10.522  12.016  65.764  1.00  0.00    -0.254 C  
HETATM   36  O   UNL     1     -11.384  14.047  64.852  1.00  0.00    -0.327 OA 
HETATM   37  O   UNL     1      -9.713  11.740  64.607  1.00  0.00    -0.336 OA 
HETATM   38  H   UNL     1     -10.053  12.167  63.830  1.00  0.00     0.000 HD 
BRANCH  31  39
HETATM   39  N   UNL     1     -11.409  15.297  67.639  1.00  0.00    -0.329 NA 
HETATM   40  H   UNL     1     -12.258  15.752  67.975  1.00  0.00     0.000 HD 
BRANCH  39  41
HETATM   41  C   UNL     1     -10.131  16.046  67.456  1.00  0.00    -0.247 C  
HETATM   42  C   UNL     1     -10.188  18.441  66.638  1.00  0.00    -0.416 C  
HETATM   43  C   UNL     1     -10.315  17.129  66.436  1.00  0.00    -0.307 C  
HETATM   44  C   UNL     1      -9.721  18.990  67.959  1.00  0.00    -0.340 C  
HETATM   45  H   UNL     1     -10.519  16.767  70.651  1.00  0.00     0.000 HD 
HETATM   46  O   UNL     1     -10.791  16.463  69.793  1.00  0.00    -0.329 OA 
HETATM   47  C   UNL     1      -9.086  17.961  68.930  1.00  0.00    -0.125 C  
HETATM   48  O   UNL     1     -10.827  19.646  68.572  1.00  0.00    -0.345 OA 
HETATM   49  H   UNL     1      -7.282  17.248  69.297  1.00  0.00     0.000 HD 
HETATM   50  O   UNL     1      -7.670  17.878  68.701  1.00  0.00    -0.284 OA 
HETATM   51  C   UNL     1      -9.683  16.548  68.868  1.00  0.00    -0.257 C  
HETATM   52  H   UNL     1     -10.532  19.992  69.406  1.00  0.00     0.000 HD 
BRANCH  42  53
HETATM   53  C   UNL     1     -10.514  19.477  65.584  1.00  0.00    -0.322 C  
HETATM   54  O   UNL     1      -9.721  20.652  65.719  1.00  0.00    -0.603 OA 
HETATM   55  H   UNL     1      -9.926  21.302  65.058  1.00  0.00     0.000 HD 
ENDBRANCH  42  53
ENDBRANCH  39  41
ENDBRANCH  31  39
ENDBRANCH  27  28
ENDBRANCH  23  27
ENDBRANCH  13  14
ENDBRANCH   4  13
ENDBRANCH   1   4
BRANCH   1  56
HETATM   56  C   UNL     1     -10.907   6.115  68.971  1.00  0.00    -0.350 C  
HETATM   57  O   UNL     1     -11.223   6.972  67.871  1.00  0.00    -0.520 OA 
HETATM   58  H   UNL     1     -10.931   6.561  67.066  1.00  0.00     0.000 HD 
ENDBRANCH   1  56
TORSDOF 12
ENDMDL
MODEL        8
REMARK 921   NORMALIZED FREE ENERGY PREDICTED BY IDOCK:   -7.31 KCAL/MOL
REMARK 922        TOTAL FREE ENERGY PREDICTED BY IDOCK:  -15.64 KCAL/MOL
REMARK 923 INTER-LIGAND FREE ENERGY PREDICTED BY IDOCK:  -12.21 KCAL/MOL
REMARK 924 INTRA-LIGAND FREE ENERGY PREDICTED BY IDOCK:   -3.43 KCAL/MOL
REMARK 927      BINDING AFFINITY PREDICTED BY RF-SCORE:    0.00 PKD
ROOT
HETATM    1  C   UNL     1      -8.316  16.500  67.116  1.00  0.00    -0.180 C  
HETATM    2  H   UNL     1      -7.045  17.094  65.778  1.00  0.00     0.000 HD 
HETATM    3  O   UNL     1      -7.004  16.526  66.539  1.00  0.00    -0.202 OA 
ENDROOT
BRANCH   1   4
HETATM    4  C   UNL     1      -9.417  16.089  66.094  1.00  0.00    -0.336 C  
BRANCH   4   5
HETATM    5  C   UNL     1     -10.534  17.170  65.947  1.00  0.00    -0.258 C  
HETATM    6  O   UNL     1     -11.031  17.234  64.601  1.00  0.00    -1.013 OA 
HETATM    7  H   UNL     1     -11.711  17.892  64.512  1.00  0.00     0.000 HD 
BRANCH   5   8
HETATM    8  C   UNL     1     -10.109  18.591  66.337  1.00  0.00    -0.405 C  
HETATM    9  C   UNL     1     -10.695  18.992  67.673  1.00  0.00    -0.409 C  
HETATM   10  O   UNL     1     -10.608  19.488  65.332  1.00  0.00    -0.467 OA 
HETATM   11  O   UNL     1     -10.115  18.797  68.739  1.00  0.00    -0.386 OA 
HETATM   12  H   UNL     1     -10.344  20.368  65.574  1.00  0.00     0.000 HD 
ENDBRANCH   5   8
ENDBRANCH   4   5
BRANCH   4  13
HETATM   13  O   UNL     1     -10.024  14.812  66.409  1.00  0.00    -0.255 OA 
BRANCH  13  14
HETATM   14  C   UNL     1     -11.460  14.821  66.459  1.00  0.00    -0.327 C  
HETATM   15  H   UNL     1     -11.994  11.797  69.012  1.00  0.00     0.000 HD 
HETATM   16  O   UNL     1     -11.491  14.185  68.864  1.00  0.00    -0.256 OA 
HETATM   17  C   UNL     1     -11.962  13.857  67.548  1.00  0.00    -0.386 C  
HETATM   18  O   UNL     1     -12.076  14.453  65.234  1.00  0.00    -0.378 OA 
HETATM   19  O   UNL     1     -12.204  11.536  68.123  1.00  0.00    -0.576 OA 
HETATM   20  C   UNL     1     -11.705  13.155  64.760  1.00  0.00    -0.347 C  
HETATM   21  H   UNL     1     -11.801  13.589  69.537  1.00  0.00     0.000 HD 
HETATM   22  C   UNL     1     -11.529  12.435  67.219  1.00  0.00    -0.354 C  
HETATM   23  C   UNL     1     -11.868  12.014  65.780  1.00  0.00    -0.164 C  
BRANCH  20  24
HETATM   24  C   UNL     1     -12.501  12.895  63.461  1.00  0.00    -0.338 C  
HETATM   25  O   UNL     1     -12.339  11.576  62.935  1.00  0.00    -0.958 OA 
HETATM   26  H   UNL     1     -12.829  11.417  62.136  1.00  0.00     0.000 HD 
ENDBRANCH  20  24
BRANCH  23  27
HETATM   27  O   UNL     1     -10.988  10.944  65.333  1.00  0.00    -0.115 OA 
BRANCH  27  28
HETATM   28  C   UNL     1      -9.671  11.395  64.997  1.00  0.00    -0.250 C  
HETATM   29  O   UNL     1      -8.843  11.426  66.150  1.00  0.00    -0.193 OA 
HETATM   30  C   UNL     1      -8.700  10.136  66.751  1.00  0.00    -0.125 C  
HETATM   31  C   UNL     1      -7.945   9.194  65.779  1.00  0.00    -0.103 C  
HETATM   32  C   UNL     1      -8.004  10.378  68.088  1.00  0.00    -0.110 C  
HETATM   33  C   UNL     1      -8.733   9.109  64.443  1.00  0.00    -0.153 C  
HETATM   34  H   UNL     1      -8.437   8.387  62.620  1.00  0.00     0.000 HD 
HETATM   35  C   UNL     1      -9.058  10.504  63.904  1.00  0.00    -0.233 C  
HETATM   36  O   UNL     1      -7.955   8.439  63.436  1.00  0.00    -0.149 OA 
HETATM   37  O   UNL     1      -9.919  10.401  62.756  1.00  0.00    -0.620 OA 
HETATM   38  H   UNL     1      -9.541   9.851  62.081  1.00  0.00     0.000 HD 
BRANCH  31  39
HETATM   39  N   UNL     1      -7.712   7.882  66.431  1.00  0.00    -0.094 NA 
HETATM   40  H   UNL     1      -6.777   7.484  66.524  1.00  0.00     0.000 HD 
BRANCH  39  41
HETATM   41  C   UNL     1      -8.925   7.179  66.943  1.00  0.00    -0.134 C  
HETATM   42  C   UNL     1      -9.335   4.763  66.308  1.00  0.00    -0.149 C  
HETATM   43  C   UNL     1      -9.299   6.064  66.015  1.00  0.00    -0.100 C  
HETATM   44  C   UNL     1      -9.088   4.268  67.707  1.00  0.00    -0.131 C  
HETATM   45  H   UNL     1      -7.002   6.527  69.543  1.00  0.00     0.000 HD 
HETATM   46  O   UNL     1      -7.190   6.798  68.652  1.00  0.00    -0.080 OA 
HETATM   47  C   UNL     1      -9.129   5.345  68.821  1.00  0.00    -0.118 C  
HETATM   48  O   UNL     1      -7.837   3.585  67.711  1.00  0.00    -0.075 OA 
HETATM   49  H   UNL     1     -10.491   6.138  70.011  1.00  0.00     0.000 HD 
HETATM   50  O   UNL     1     -10.466   5.478  69.329  1.00  0.00    -0.249 OA 
HETATM   51  C   UNL     1      -8.614   6.732  68.410  1.00  0.00    -0.125 C  
HETATM   52  H   UNL     1      -7.682   3.272  68.595  1.00  0.00     0.000 HD 
BRANCH  42  53
HETATM   53  C   UNL     1      -9.604   3.688  65.278  1.00  0.00    -0.160 C  
HETATM   54  O   UNL     1      -9.538   2.379  65.834  1.00  0.00    -0.365 OA 
HETATM   55  H   UNL     1      -9.706   1.704  65.186  1.00  0.00     0.000 HD 
ENDBRANCH  42  53
ENDBRANCH  39  41
ENDBRANCH  31  39
ENDBRANCH  27  28
ENDBRANCH  23  27
ENDBRANCH  13  14
ENDBRANCH   4  13
ENDBRANCH   1   4
BRANCH   1  56
HETATM   56  C   UNL     1      -8.250  15.585  68.341  1.00  0.00    -0.145 C  
HETATM   57  O   UNL     1      -9.326  15.912  69.223  1.00  0.00    -0.238 OA 
HETATM   58  H   UNL     1      -9.285  15.344  69.984  1.00  0.00     0.000 HD 
ENDBRANCH   1  56
TORSDOF 12
ENDMDL
MODEL        9
REMARK 921   NORMALIZED FREE ENERGY PREDICTED BY IDOCK:   -7.24 KCAL/MOL
REMARK 922        TOTAL FREE ENERGY PREDICTED BY IDOCK:  -15.52 KCAL/MOL
REMARK 923 INTER-LIGAND FREE ENERGY PREDICTED BY IDOCK:  -12.37 KCAL/MOL
REMARK 924 INTRA-LIGAND FREE ENERGY PREDICTED BY IDOCK:   -3.15 KCAL/MOL
REMARK 927      BINDING AFFINITY PREDICTED BY RF-SCORE:    0.00 PKD
ROOT
HETATM    1  C   UNL     1     -10.486   6.560  67.832  1.00  0.00    -0.222 C  
HETATM    2  H   UNL     1     -10.697   4.727  68.426  1.00  0.00     0.000 HD 
HETATM    3  O   UNL     1     -10.078   5.187  67.869  1.00  0.00    -0.161 OA 
ENDROOT
BRANCH   1   4
HETATM    4  C   UNL     1     -10.628   7.186  69.252  1.00  0.00    -0.221 C  
BRANCH   4   5
HETATM    5  C   UNL     1     -11.659   6.426  70.144  1.00  0.00    -0.381 C  
HETATM    6  O   UNL     1     -12.751   7.276  70.527  1.00  0.00    -0.593 OA 
HETATM    7  H   UNL     1     -13.379   6.813  71.069  1.00  0.00     0.000 HD 
BRANCH   5   8
HETATM    8  C   UNL     1     -11.079   5.830  71.433  1.00  0.00    -0.204 C  
HETATM    9  C   UNL     1     -10.470   6.903  72.308  1.00  0.00    -0.207 C  
HETATM   10  O   UNL     1     -10.047   4.904  71.061  1.00  0.00    -0.209 OA 
HETATM   11  O   UNL     1     -11.111   7.501  73.170  1.00  0.00    -0.383 OA 
HETATM   12  H   UNL     1      -9.688   4.535  71.860  1.00  0.00     0.000 HD 
ENDBRANCH   5   8
ENDBRANCH   4   5
BRANCH   4  13
HETATM   13  O   UNL     1     -10.973   8.592  69.212  1.00  0.00    -0.124 OA 
BRANCH  13  14
HETATM   14  C   UNL     1     -10.216   9.427  70.103  1.00  0.00    -0.231 C  
HETATM   15  H   UNL     1     -13.094  12.009  71.103  1.00  0.00     0.000 HD 
HETATM   16  O   UNL     1     -12.172   9.798  71.595  1.00  0.00    -0.371 OA 
HETATM   17  C   UNL     1     -11.143  10.427  70.814  1.00  0.00    -0.119 C  
HETATM   18  O   UNL     1      -9.190  10.167  69.459  1.00  0.00    -0.206 OA 
HETATM   19  O   UNL     1     -12.476  12.402  70.496  1.00  0.00    -0.278 OA 
HETATM   20  C   UNL     1      -9.657  11.026  68.414  1.00  0.00    -0.181 C  
HETATM   21  H   UNL     1     -12.746  10.416  72.034  1.00  0.00     0.000 HD 
HETATM   22  C   UNL     1     -11.802  11.340  69.790  1.00  0.00    -0.364 C  
HETATM   23  C   UNL     1     -10.803  11.974  68.809  1.00  0.00    -0.230 C  
BRANCH  20  24
HETATM   24  C   UNL     1      -8.430  11.790  67.864  1.00  0.00    -0.154 C  
HETATM   25  O   UNL     1      -8.542  12.152  66.487  1.00  0.00    -0.322 OA 
HETATM   26  H   UNL     1      -7.788  12.622  66.150  1.00  0.00     0.000 HD 
ENDBRANCH  20  24
BRANCH  23  27
HETATM   27  O   UNL     1     -11.463  12.347  67.567  1.00  0.00    -0.302 OA 
BRANCH  27  28
HETATM   28  C   UNL     1     -12.159  13.597  67.645  1.00  0.00    -0.293 C  
HETATM   29  O   UNL     1     -11.466  14.503  68.491  1.00  0.00    -0.271 OA 
HETATM   30  C   UNL     1     -10.149  14.791  68.016  1.00  0.00    -0.218 C  
HETATM   31  C   UNL     1     -10.240  15.543  66.664  1.00  0.00    -0.276 C  
HETATM   32  C   UNL     1      -9.462  15.563  69.140  1.00  0.00    -0.246 C  
HETATM   33  C   UNL     1     -11.026  14.667  65.650  1.00  0.00    -0.335 C  
HETATM   34  H   UNL     1     -11.818  14.883  63.844  1.00  0.00     0.000 HD 
HETATM   35  C   UNL     1     -12.355  14.195  66.243  1.00  0.00    -0.422 C  
HETATM   36  O   UNL     1     -11.337  15.419  64.464  1.00  0.00    -0.385 OA 
HETATM   37  O   UNL     1     -12.990  13.262  65.350  1.00  0.00    -0.588 OA 
HETATM   38  H   UNL     1     -13.112  13.631  64.484  1.00  0.00     0.000 HD 
BRANCH  31  39
HETATM   39  N   UNL     1      -8.881  15.926  66.209  1.00  0.00    -0.333 NA 
HETATM   40  H   UNL     1      -8.104  15.265  66.212  1.00  0.00     0.000 HD 
BRANCH  39  41
HETATM   41  C   UNL     1      -8.717  17.335  65.747  1.00  0.00     0.244 C  
HETATM   42  C   UNL     1      -9.318  19.241  67.302  1.00  0.00    -0.366 C  
HETATM   43  C   UNL     1      -9.655  18.232  66.499  1.00  0.00    -0.320 C  
HETATM   44  C   UNL     1      -7.885  19.671  67.463  1.00  0.00    -0.274 C  
HETATM   45  H   UNL     1      -5.632  16.954  66.851  1.00  0.00     0.000 HD 
HETATM   46  O   UNL     1      -6.552  16.734  66.759  1.00  0.00    -0.196 OA 
HETATM   47  C   UNL     1      -6.891  19.113  66.411  1.00  0.00    -0.207 C  
HETATM   48  O   UNL     1      -7.472  19.320  68.781  1.00  0.00    -0.328 OA 
HETATM   49  H   UNL     1      -6.204  19.663  64.644  1.00  0.00     0.000 HD 
HETATM   50  O   UNL     1      -6.813  20.005  65.288  1.00  0.00    -0.297 OA 
HETATM   51  C   UNL     1      -7.203  17.699  65.901  1.00  0.00    -0.200 C  
HETATM   52  H   UNL     1      -6.567  19.591  68.883  1.00  0.00     0.000 HD 
BRANCH  42  53
HETATM   53  C   UNL     1     -10.324  20.019  68.122  1.00  0.00    -0.362 C  
HETATM   54  O   UNL     1     -10.288  19.661  69.500  1.00  0.00    -0.607 OA 
HETATM   55  H   UNL     1     -10.921  20.149  70.015  1.00  0.00     0.000 HD 
ENDBRANCH  42  53
ENDBRANCH  39  41
ENDBRANCH  31  39
ENDBRANCH  27  28
ENDBRANCH  23  27
ENDBRANCH  13  14
ENDBRANCH   4  13
ENDBRANCH   1   4
BRANCH   1  56
HETATM   56  C   UNL     1      -9.490   7.301  66.937  1.00  0.00    -0.164 C  
HETATM   57  O   UNL     1     -10.179   8.339  66.236  1.00  0.00    -0.460 OA 
HETATM   58  H   UNL     1      -9.561   8.799  65.680  1.00  0.00     0.000 HD 
ENDBRANCH   1  56
TORSDOF 12
ENDMDL
MODEL       10
REMARK 921   NORMALIZED FREE ENERGY PREDICTED BY IDOCK:   -7.22 KCAL/MOL
REMARK 922        TOTAL FREE ENERGY PREDICTED BY IDOCK:  -15.48 KCAL/MOL
REMARK 923 INTER-LIGAND FREE ENERGY PREDICTED BY IDOCK:  -11.50 KCAL/MOL
REMARK 924 INTRA-LIGAND FREE ENERGY PREDICTED BY IDOCK:   -3.97 KCAL/MOL
REMARK 927      BINDING AFFINITY PREDICTED BY RF-SCORE:    0.00 PKD
ROOT
HETATM    1  C   UNL     1      -7.954  17.870  66.969  1.00  0.00    -0.216 C  
HETATM    2  H   UNL     1      -6.395  17.137  66.081  1.00  0.00     0.000 HD 
HETATM    3  O   UNL     1      -6.593  17.953  66.526  1.00  0.00    -0.177 OA 
ENDROOT
BRANCH   1   4
HETATM    4  C   UNL     1      -8.230  16.607  67.839  1.00  0.00    -0.180 C  
BRANCH   4   5
HETATM    5  C   UNL     1      -6.928  15.811  68.171  1.00  0.00    -0.118 C  
HETATM    6  O   UNL     1      -6.439  15.100  67.024  1.00  0.00    -0.243 OA 
HETATM    7  H   UNL     1      -5.647  14.615  67.226  1.00  0.00     0.000 HD 
BRANCH   5   8
HETATM    8  C   UNL     1      -7.072  14.789  69.306  1.00  0.00    -0.154 C  
HETATM    9  C   UNL     1      -6.832  13.381  68.811  1.00  0.00    -0.101 C  
HETATM   10  O   UNL     1      -8.416  14.876  69.805  1.00  0.00    -0.442 OA 
HETATM   11  O   UNL     1      -5.722  12.854  68.816  1.00  0.00    -0.065 OA 
HETATM   12  H   UNL     1      -8.505  14.243  70.508  1.00  0.00     0.000 HD 
ENDBRANCH   5   8
ENDBRANCH   4   5
BRANCH   4  13
HETATM   13  O   UNL     1      -9.197  15.714  67.236  1.00  0.00    -0.198 OA 
BRANCH  13  14
HETATM   14  C   UNL     1     -10.503  16.282  67.037  1.00  0.00    -0.306 C  
HETATM   15  H   UNL     1     -12.387  14.553  70.104  1.00  0.00     0.000 HD 
HETATM   16  O   UNL     1     -10.936  16.421  69.483  1.00  0.00    -0.309 OA 
HETATM   17  C   UNL     1     -11.421  15.936  68.221  1.00  0.00    -0.320 C  
HETATM   18  O   UNL     1     -11.141  15.843  65.847  1.00  0.00    -0.203 OA 
HETATM   19  O   UNL     1     -12.632  14.150  69.279  1.00  0.00    -0.156 OA 
HETATM   20  C   UNL     1     -11.310  14.424  65.764  1.00  0.00    -0.330 C  
HETATM   21  H   UNL     1     -11.504  16.206  70.214  1.00  0.00     0.000 HD 
HETATM   22  C   UNL     1     -11.594  14.426  68.316  1.00  0.00    -0.328 C  
HETATM   23  C   UNL     1     -11.990  13.774  66.982  1.00  0.00    -0.413 C  
BRANCH  20  24
HETATM   24  C   UNL     1     -12.064  14.127  64.447  1.00  0.00    -0.463 C  
HETATM   25  O   UNL     1     -12.485  15.298  63.744  1.00  0.00    -1.004 OA 
HETATM   26  H   UNL     1     -12.948  15.115  62.935  1.00  0.00     0.000 HD 
ENDBRANCH  20  24
BRANCH  23  27
HETATM   27  O   UNL     1     -11.604  12.371  66.958  1.00  0.00    -0.335 OA 
BRANCH  27  28
HETATM   28  C   UNL     1     -10.287  12.133  67.470  1.00  0.00    -0.205 C  
HETATM   29  O   UNL     1     -10.351  11.599  68.784  1.00  0.00    -0.214 OA 
HETATM   30  C   UNL     1     -11.046  10.350  68.830  1.00  0.00    -0.250 C  
HETATM   31  C   UNL     1     -10.247   9.285  68.036  1.00  0.00    -0.209 C  
HETATM   32  C   UNL     1     -11.242  10.039  70.312  1.00  0.00    -0.379 C  
HETATM   33  C   UNL     1     -10.065   9.776  66.573  1.00  0.00    -0.239 C  
HETATM   34  H   UNL     1      -9.024   9.237  64.974  1.00  0.00     0.000 HD 
HETATM   35  C   UNL     1      -9.504  11.199  66.535  1.00  0.00    -0.193 C  
HETATM   36  O   UNL     1      -9.135   8.936  65.868  1.00  0.00    -0.190 OA 
HETATM   37  O   UNL     1      -9.492  11.688  65.181  1.00  0.00    -0.327 OA 
HETATM   38  H   UNL     1      -9.008  11.111  64.603  1.00  0.00     0.000 HD 
BRANCH  31  39
HETATM   39  N   UNL     1     -10.913   7.965  68.155  1.00  0.00    -0.442 NA 
HETATM   40  H   UNL     1     -11.897   7.833  67.919  1.00  0.00     0.000 HD 
BRANCH  39  41
HETATM   41  C   UNL     1     -10.060   6.842  68.640  1.00  0.00    -0.159 C  
HETATM   42  C   UNL     1      -8.487   7.214  70.590  1.00  0.00    -0.138 C  
HETATM   43  C   UNL     1      -8.835   7.384  69.313  1.00  0.00    -0.136 C  
HETATM   44  C   UNL     1      -9.282   6.325  71.507  1.00  0.00    -0.145 C  
HETATM   45  H   UNL     1     -12.703   6.106  70.471  1.00  0.00     0.000 HD 
HETATM   46  O   UNL     1     -12.158   6.655  69.919  1.00  0.00    -0.227 OA 
HETATM   47  C   UNL     1     -10.297   5.378  70.817  1.00  0.00    -0.251 C  
HETATM   48  O   UNL     1      -9.938   7.159  72.458  1.00  0.00    -0.163 OA 
HETATM   49  H   UNL     1     -10.286   3.548  70.074  1.00  0.00     0.000 HD 
HETATM   50  O   UNL     1      -9.664   4.129  70.497  1.00  0.00    -0.181 OA 
HETATM   51  C   UNL     1     -10.958   5.938  69.549  1.00  0.00    -0.368 C  
HETATM   52  H   UNL     1     -10.440   6.598  73.038  1.00  0.00     0.000 HD 
BRANCH  42  53
HETATM   53  C   UNL     1      -7.297   7.900  71.222  1.00  0.00    -0.068 C  
HETATM   54  O   UNL     1      -7.614   9.205  71.695  1.00  0.00    -0.333 OA 
HETATM   55  H   UNL     1      -6.866   9.636  72.092  1.00  0.00     0.000 HD 
ENDBRANCH  42  53
ENDBRANCH  39  41
ENDBRANCH  31  39
ENDBRANCH  27  28
ENDBRANCH  23  27
ENDBRANCH  13  14
ENDBRANCH   4  13
ENDBRANCH   1   4
BRANCH   1  56
HETATM   56  C   UNL     1      -8.273  19.185  67.686  1.00  0.00    -0.285 C  
HETATM   57  O   UNL     1      -9.182  18.919  68.757  1.00  0.00    -0.340 OA 
HETATM   58  H   UNL     1      -9.380  19.735  69.203  1.00  0.00     0.000 HD 
ENDBRANCH   1  56
TORSDOF 12
ENDMDL
MODEL       11
REMARK 921   NORMALIZED FREE ENERGY PREDICTED BY IDOCK:   -7.14 KCAL/MOL
REMARK 922        TOTAL FREE ENERGY PREDICTED BY IDOCK:  -15.34 KCAL/MOL
REMARK 923 INTER-LIGAND FREE ENERGY PREDICTED BY IDOCK:  -11.49 KCAL/MOL
REMARK 924 INTRA-LIGAND FREE ENERGY PREDICTED BY IDOCK:   -3.85 KCAL/MOL
REMARK 927      BINDING AFFINITY PREDICTED BY RF-SCORE:    0.00 PKD
ROOT
HETATM    1  C   UNL     1     -10.024  18.347  67.398  1.00  0.00    -0.334 C  
HETATM    2  H   UNL     1      -9.800  17.632  65.610  1.00  0.00     0.000 HD 
HETATM    3  O   UNL     1      -9.748  18.498  65.999  1.00  0.00    -0.494 OA 
ENDROOT
BRANCH   1   4
HETATM    4  C   UNL     1      -9.097  17.301  68.087  1.00  0.00    -0.257 C  
BRANCH   4   5
HETATM    5  C   UNL     1      -7.931  16.831  67.162  1.00  0.00    -0.181 C  
HETATM    6  O   UNL     1      -8.335  15.742  66.318  1.00  0.00    -0.306 OA 
HETATM    7  H   UNL     1      -7.625  15.456  65.755  1.00  0.00     0.000 HD 
BRANCH   5   8
HETATM    8  C   UNL     1      -6.665  16.379  67.902  1.00  0.00    -0.135 C  
HETATM    9  C   UNL     1      -6.649  14.879  68.097  1.00  0.00    -0.130 C  
HETATM   10  O   UNL     1      -6.667  17.007  69.195  1.00  0.00    -0.219 OA 
HETATM   11  O   UNL     1      -6.144  14.109  67.282  1.00  0.00    -0.304 OA 
HETATM   12  H   UNL     1      -5.884  16.727  69.653  1.00  0.00     0.000 HD 
ENDBRANCH   5   8
ENDBRANCH   4   5
BRANCH   4  13
HETATM   13  O   UNL     1      -9.823  16.144  68.570  1.00  0.00    -0.215 OA 
BRANCH  13  14
HETATM   14  C   UNL     1     -11.222  16.127  68.241  1.00  0.00    -0.343 C  
HETATM   15  H   UNL     1     -12.534  13.914  71.294  1.00  0.00     0.000 HD 
HETATM   16  O   UNL     1     -11.899  16.181  70.634  1.00  0.00    -0.460 OA 
HETATM   17  C   UNL     1     -12.031  15.489  69.382  1.00  0.00    -0.336 C  
HETATM   18  O   UNL     1     -11.519  15.418  67.047  1.00  0.00    -0.246 OA 
HETATM   19  O   UNL     1     -12.520  13.412  70.488  1.00  0.00    -0.323 OA 
HETATM   20  C   UNL     1     -11.098  14.050  67.061  1.00  0.00    -0.304 C  
HETATM   21  H   UNL     1     -12.399  15.786  71.339  1.00  0.00     0.000 HD 
HETATM   22  C   UNL     1     -11.595  14.044  69.580  1.00  0.00    -0.295 C  
HETATM   23  C   UNL     1     -11.572  13.232  68.275  1.00  0.00    -0.334 C  
BRANCH  20  24
HETATM   24  C   UNL     1     -11.545  13.419  65.722  1.00  0.00    -0.332 C  
HETATM   25  O   UNL     1     -12.446  12.320  65.871  1.00  0.00    -0.535 OA 
HETATM   26  H   UNL     1     -12.721  11.933  65.048  1.00  0.00     0.000 HD 
ENDBRANCH  20  24
BRANCH  23  27
HETATM   27  O   UNL     1     -10.657  12.105  68.383  1.00  0.00    -0.212 OA 
BRANCH  27  28
HETATM   28  C   UNL     1     -11.319  10.835  68.411  1.00  0.00    -0.302 C  
HETATM   29  O   UNL     1     -11.035  10.097  67.232  1.00  0.00    -0.266 OA 
HETATM   30  C   UNL     1      -9.638   9.833  67.079  1.00  0.00    -0.172 C  
HETATM   31  C   UNL     1      -9.159   8.903  68.222  1.00  0.00    -0.140 C  
HETATM   32  C   UNL     1      -9.475   9.265  65.671  1.00  0.00    -0.324 C  
HETATM   33  C   UNL     1      -9.459   9.582  69.586  1.00  0.00    -0.199 C  
HETATM   34  H   UNL     1      -9.433   9.076  71.504  1.00  0.00     0.000 HD 
HETATM   35  C   UNL     1     -10.916  10.043  69.665  1.00  0.00    -0.264 C  
HETATM   36  O   UNL     1      -9.249   8.660  70.670  1.00  0.00    -0.153 OA 
HETATM   37  O   UNL     1     -11.128  10.805  70.867  1.00  0.00    -0.277 OA 
HETATM   38  H   UNL     1     -10.880  10.317  71.642  1.00  0.00     0.000 HD 
BRANCH  31  39
HETATM   39  N   UNL     1      -7.733   8.550  68.020  1.00  0.00    -0.101 NA 
HETATM   40  H   UNL     1      -7.002   9.261  67.969  1.00  0.00     0.000 HD 
BRANCH  39  41
HETATM   41  C   UNL     1      -7.429   7.094  67.895  1.00  0.00    -0.099 C  
HETATM   42  C   UNL     1      -9.093   5.560  66.761  1.00  0.00    -0.118 C  
HETATM   43  C   UNL     1      -8.704   6.313  67.790  1.00  0.00    -0.113 C  
HETATM   44  C   UNL     1      -8.193   5.323  65.578  1.00  0.00    -0.124 C  
HETATM   45  H   UNL     1      -5.887   8.027  65.132  1.00  0.00     0.000 HD 
HETATM   46  O   UNL     1      -6.476   8.128  65.870  1.00  0.00    -0.045 OA 
HETATM   47  C   UNL     1      -6.705   5.712  65.773  1.00  0.00    -0.055 C  
HETATM   48  O   UNL     1      -8.752   6.014  64.463  1.00  0.00    -0.350 OA 
HETATM   49  H   UNL     1      -5.057   4.830  66.411  1.00  0.00     0.000 HD 
HETATM   50  O   UNL     1      -5.969   4.592  66.291  1.00  0.00    -0.025 OA 
HETATM   51  C   UNL     1      -6.459   6.928  66.678  1.00  0.00    -0.047 C  
HETATM   52  H   UNL     1      -8.184   5.865  63.716  1.00  0.00     0.000 HD 
BRANCH  42  53
HETATM   53  C   UNL     1     -10.453   4.902  66.683  1.00  0.00    -0.219 C  
HETATM   54  O   UNL     1     -11.118   5.183  65.455  1.00  0.00    -0.733 OA 
HETATM   55  H   UNL     1     -11.973   4.771  65.407  1.00  0.00     0.000 HD 
ENDBRANCH  42  53
ENDBRANCH  39  41
ENDBRANCH  31  39
ENDBRANCH  27  28
ENDBRANCH  23  27
ENDBRANCH  13  14
ENDBRANCH   4  13
ENDBRANCH   1   4
BRANCH   1  56
HETATM   56  C   UNL     1      -9.940  19.741  68.025  1.00  0.00    -0.433 C  
HETATM   57  O   UNL     1     -10.224  19.639  69.422  1.00  0.00    -0.636 OA 
HETATM   58  H   UNL     1     -10.171  20.504  69.812  1.00  0.00     0.000 HD 
ENDBRANCH   1  56
TORSDOF 12
ENDMDL
MODEL       12
REMARK 921   NORMALIZED FREE ENERGY PREDICTED BY IDOCK:   -7.12 KCAL/MOL
REMARK 922        TOTAL FREE ENERGY PREDICTED BY IDOCK:  -15.31 KCAL/MOL
REMARK 923 INTER-LIGAND FREE ENERGY PREDICTED BY IDOCK:  -12.24 KCAL/MOL
REMARK 924 INTRA-LIGAND FREE ENERGY PREDICTED BY IDOCK:   -3.08 KCAL/MOL
REMARK 927      BINDING AFFINITY PREDICTED BY RF-SCORE:    0.00 PKD
ROOT
HETATM    1  C   UNL     1     -12.194   9.808  71.172  1.00  0.00    -0.362 C  
HETATM    2  H   UNL     1     -13.247   8.347  71.891  1.00  0.00     0.000 HD 
HETATM    3  O   UNL     1     -13.441   9.141  71.406  1.00  0.00    -0.350 OA 
ENDROOT
BRANCH   1   4
HETATM    4  C   UNL     1     -11.144   8.894  70.471  1.00  0.00    -0.251 C  
BRANCH   4   5
HETATM    5  C   UNL     1     -10.687   7.704  71.372  1.00  0.00    -0.222 C  
HETATM    6  O   UNL     1     -11.627   6.619  71.328  1.00  0.00    -0.291 OA 
HETATM    7  H   UNL     1     -11.349   5.895  71.876  1.00  0.00     0.000 HD 
BRANCH   5   8
HETATM    8  C   UNL     1     -10.480   8.059  72.851  1.00  0.00    -0.332 C  
HETATM    9  C   UNL     1      -9.030   7.910  73.253  1.00  0.00    -0.264 C  
HETATM   10  O   UNL     1     -11.267   7.146  73.633  1.00  0.00    -0.532 OA 
HETATM   11  O   UNL     1      -8.221   8.833  73.179  1.00  0.00    -0.411 OA 
HETATM   12  H   UNL     1     -11.139   7.366  74.548  1.00  0.00     0.000 HD 
ENDBRANCH   5   8
ENDBRANCH   4   5
BRANCH   4  13
HETATM   13  O   UNL     1      -9.980   9.627  70.018  1.00  0.00    -0.216 OA 
BRANCH  13  14
HETATM   14  C   UNL     1      -8.879   8.808  69.589  1.00  0.00    -0.141 C  
HETATM   15  H   UNL     1      -6.048  11.622  69.457  1.00  0.00     0.000 HD 
HETATM   16  O   UNL     1      -7.244  10.098  70.950  1.00  0.00    -0.377 OA 
HETATM   17  C   UNL     1      -7.567   9.609  69.638  1.00  0.00    -0.114 C  
HETATM   18  O   UNL     1      -9.028   8.297  68.272  1.00  0.00    -0.136 OA 
HETATM   19  O   UNL     1      -6.336  11.383  68.583  1.00  0.00    -0.050 OA 
HETATM   20  C   UNL     1      -9.187   9.305  67.269  1.00  0.00    -0.126 C  
HETATM   21  H   UNL     1      -6.434  10.594  70.980  1.00  0.00     0.000 HD 
HETATM   22  C   UNL     1      -7.648  10.794  68.686  1.00  0.00    -0.106 C  
HETATM   23  C   UNL     1      -8.113  10.408  67.273  1.00  0.00    -0.114 C  
BRANCH  20  24
HETATM   24  C   UNL     1      -9.277   8.583  65.904  1.00  0.00    -0.182 C  
HETATM   25  O   UNL     1      -9.460   9.464  64.794  1.00  0.00    -0.437 OA 
HETATM   26  H   UNL     1      -9.515   9.020  63.955  1.00  0.00     0.000 HD 
ENDBRANCH  20  24
BRANCH  23  27
HETATM   27  O   UNL     1      -8.707  11.549  66.593  1.00  0.00    -0.172 OA 
BRANCH  27  28
HETATM   28  C   UNL     1      -9.928  11.998  67.193  1.00  0.00    -0.195 C  
HETATM   29  O   UNL     1      -9.660  12.879  68.273  1.00  0.00    -0.218 OA 
HETATM   30  C   UNL     1      -8.948  14.047  67.858  1.00  0.00    -0.188 C  
HETATM   31  C   UNL     1      -9.841  14.886  66.909  1.00  0.00    -0.240 C  
HETATM   32  C   UNL     1      -8.528  14.755  69.144  1.00  0.00    -0.096 C  
HETATM   33  C   UNL     1     -10.247  14.012  65.692  1.00  0.00    -0.334 C  
HETATM   34  H   UNL     1     -11.508  14.133  64.166  1.00  0.00     0.000 HD 
HETATM   35  C   UNL     1     -10.829  12.671  66.145  1.00  0.00    -0.273 C  
HETATM   36  O   UNL     1     -11.260  14.668  64.910  1.00  0.00    -0.360 OA 
HETATM   37  O   UNL     1     -11.051  11.819  65.007  1.00  0.00    -0.308 OA 
HETATM   38  H   UNL     1     -11.607  12.234  64.359  1.00  0.00     0.000 HD 
BRANCH  31  39
HETATM   39  N   UNL     1      -9.145  16.146  66.547  1.00  0.00    -0.250 NA 
HETATM   40  H   UNL     1      -8.553  16.217  65.719  1.00  0.00     0.000 HD 
BRANCH  39  41
HETATM   41  C   UNL     1      -9.362  17.302  67.466  1.00  0.00    -0.236 C  
HETATM   42  C   UNL     1      -7.669  19.183  67.534  1.00  0.00    -0.263 C  
HETATM   43  C   UNL     1      -8.047  17.934  67.810  1.00  0.00    -0.231 C  
HETATM   44  C   UNL     1      -8.615  20.168  66.903  1.00  0.00    -0.324 C  
HETATM   45  H   UNL     1     -11.112  18.509  64.943  1.00  0.00     0.000 HD 
HETATM   46  O   UNL     1     -10.490  17.927  65.366  1.00  0.00    -0.635 OA 
HETATM   47  C   UNL     1     -10.112  19.764  66.910  1.00  0.00    -0.437 C  
HETATM   48  O   UNL     1      -8.165  20.413  65.574  1.00  0.00    -0.470 OA 
HETATM   49  H   UNL     1     -11.662  19.992  68.111  1.00  0.00     0.000 HD 
HETATM   50  O   UNL     1     -10.745  20.240  68.108  1.00  0.00    -0.169 OA 
HETATM   51  C   UNL     1     -10.385  18.259  66.769  1.00  0.00    -0.384 C  
HETATM   52  H   UNL     1      -8.763  21.035  65.176  1.00  0.00     0.000 HD 
BRANCH  42  53
HETATM   53  C   UNL     1      -6.275  19.706  67.806  1.00  0.00    -0.201 C  
HETATM   54  O   UNL     1      -5.325  18.656  67.956  1.00  0.00    -0.169 OA 
HETATM   55  H   UNL     1      -4.450  18.985  68.127  1.00  0.00     0.000 HD 
ENDBRANCH  42  53
ENDBRANCH  39  41
ENDBRANCH  31  39
ENDBRANCH  27  28
ENDBRANCH  23  27
ENDBRANCH  13  14
ENDBRANCH   4  13
ENDBRANCH   1   4
BRANCH   1  56
HETATM   56  C   UNL     1     -12.508  11.085  70.389  1.00  0.00    -0.313 C  
HETATM   57  O   UNL     1     -12.464  10.794  68.990  1.00  0.00    -0.757 OA 
HETATM   58  H   UNL     1     -12.659  11.588  68.504  1.00  0.00     0.000 HD 
ENDBRANCH   1  56
TORSDOF 12
ENDMDL
MODEL       13
REMARK 921   NORMALIZED FREE ENERGY PREDICTED BY IDOCK:   -7.12 KCAL/MOL
REMARK 922        TOTAL FREE ENERGY PREDICTED BY IDOCK:  -15.31 KCAL/MOL
REMARK 923 INTER-LIGAND FREE ENERGY PREDICTED BY IDOCK:  -12.09 KCAL/MOL
REMARK 924 INTRA-LIGAND FREE ENERGY PREDICTED BY IDOCK:   -3.22 KCAL/MOL
REMARK 927      BINDING AFFINITY PREDICTED BY RF-SCORE:    0.00 PKD
ROOT
HETATM    1  C   UNL     1     -10.307  17.833  68.244  1.00  0.00    -0.385 C  
HETATM    2  H   UNL     1     -11.367  17.752  66.623  1.00  0.00     0.000 HD 
HETATM    3  O   UNL     1     -10.904  18.438  67.090  1.00  0.00    -0.373 OA 
ENDROOT
BRANCH   1   4
HETATM    4  C   UNL     1      -9.409  16.611  67.888  1.00  0.00    -0.221 C  
BRANCH   4   5
HETATM    5  C   UNL     1      -9.040  16.557  66.372  1.00  0.00    -0.297 C  
HETATM    6  O   UNL     1      -8.967  15.205  65.896  1.00  0.00    -0.463 OA 
HETATM    7  H   UNL     1      -8.742  15.172  64.974  1.00  0.00     0.000 HD 
BRANCH   5   8
HETATM    8  C   UNL     1      -7.712  17.234  66.009  1.00  0.00    -0.188 C  
HETATM    9  C   UNL     1      -6.663  16.991  67.072  1.00  0.00    -0.203 C  
HETATM   10  O   UNL     1      -7.952  18.647  65.919  1.00  0.00    -0.475 OA 
HETATM   11  O   UNL     1      -5.894  16.033  67.040  1.00  0.00    -0.341 OA 
HETATM   12  H   UNL     1      -7.130  19.066  65.694  1.00  0.00     0.000 HD 
ENDBRANCH   5   8
ENDBRANCH   4   5
BRANCH   4  13
HETATM   13  O   UNL     1     -10.000  15.349  68.283  1.00  0.00    -0.211 OA 
BRANCH  13  14
HETATM   14  C   UNL     1     -11.408  15.405  68.571  1.00  0.00    -0.335 C  
HETATM   15  H   UNL     1     -11.690  12.130  70.840  1.00  0.00     0.000 HD 
HETATM   16  O   UNL     1     -11.087  14.500  70.866  1.00  0.00    -0.512 OA 
HETATM   17  C   UNL     1     -11.780  14.342  69.618  1.00  0.00    -0.309 C  
HETATM   18  O   UNL     1     -12.231  15.201  67.432  1.00  0.00     0.040 OA 
HETATM   19  O   UNL     1     -12.054  11.981  69.975  1.00  0.00    -0.310 OA 
HETATM   20  C   UNL     1     -12.012  13.953  66.768  1.00  0.00    -0.438 C  
HETATM   21  H   UNL     1     -11.317  13.843  71.513  1.00  0.00     0.000 HD 
HETATM   22  C   UNL     1     -11.484  12.952  69.073  1.00  0.00    -0.308 C  
HETATM   23  C   UNL     1     -12.072  12.710  67.673  1.00  0.00    -0.103 C  
BRANCH  20  24
HETATM   24  C   UNL     1     -13.020  13.872  65.598  1.00  0.00    -0.315 C  
HETATM   25  O   UNL     1     -13.121  12.575  65.008  1.00  0.00    -0.765 OA 
HETATM   26  H   UNL     1     -13.740  12.526  64.289  1.00  0.00     0.000 HD 
ENDBRANCH  20  24
BRANCH  23  27
HETATM   27  O   UNL     1     -11.335  11.667  66.975  1.00  0.00    -0.313 OA 
BRANCH  27  28
HETATM   28  C   UNL     1     -10.033  12.081  66.545  1.00  0.00    -0.204 C  
HETATM   29  O   UNL     1      -9.067  11.818  67.552  1.00  0.00    -0.167 OA 
HETATM   30  C   UNL     1      -8.977  10.427  67.869  1.00  0.00    -0.128 C  
HETATM   31  C   UNL     1      -8.448   9.650  66.637  1.00  0.00    -0.123 C  
HETATM   32  C   UNL     1      -8.097  10.342  69.114  1.00  0.00    -0.138 C  
HETATM   33  C   UNL     1      -9.403   9.893  65.437  1.00  0.00    -0.239 C  
HETATM   34  H   UNL     1      -9.412   9.537  63.486  1.00  0.00     0.000 HD 
HETATM   35  C   UNL     1      -9.654  11.388  65.227  1.00  0.00    -0.228 C  
HETATM   36  O   UNL     1      -8.828   9.388  64.219  1.00  0.00    -0.208 OA 
HETATM   37  O   UNL     1     -10.659  11.582  64.215  1.00  0.00    -0.298 OA 
HETATM   38  H   UNL     1     -10.426  11.155  63.400  1.00  0.00     0.000 HD 
BRANCH  31  39
HETATM   39  N   UNL     1      -8.264   8.219  66.986  1.00  0.00    -0.103 NA 
HETATM   40  H   UNL     1      -7.366   7.747  66.873  1.00  0.00     0.000 HD 
BRANCH  39  41
HETATM   41  C   UNL     1      -9.469   7.513  67.511  1.00  0.00    -0.139 C  
HETATM   42  C   UNL     1     -10.087   5.236  66.591  1.00  0.00    -0.259 C  
HETATM   43  C   UNL     1      -9.994   6.562  66.478  1.00  0.00    -0.154 C  
HETATM   44  C   UNL     1      -9.749   4.533  67.878  1.00  0.00    -0.139 C  
HETATM   45  H   UNL     1      -7.369   6.398  69.797  1.00  0.00     0.000 HD 
HETATM   46  O   UNL     1      -7.618   6.803  68.975  1.00  0.00    -0.096 OA 
HETATM   47  C   UNL     1      -9.622   5.441  69.128  1.00  0.00    -0.141 C  
HETATM   48  O   UNL     1      -8.548   3.795  67.667  1.00  0.00    -0.094 OA 
HETATM   49  H   UNL     1     -10.820   6.122  70.543  1.00  0.00     0.000 HD 
HETATM   50  O   UNL     1     -10.898   5.566  69.776  1.00  0.00    -0.331 OA 
HETATM   51  C   UNL     1      -9.059   6.845  68.865  1.00  0.00    -0.134 C  
HETATM   52  H   UNL     1      -8.335   3.351  68.479  1.00  0.00     0.000 HD 
BRANCH  42  53
HETATM   53  C   UNL     1     -10.513   4.335  65.453  1.00  0.00    -0.168 C  
HETATM   54  O   UNL     1     -11.748   4.745  64.874  1.00  0.00    -0.877 OA 
HETATM   55  H   UNL     1     -12.016   4.179  64.159  1.00  0.00     0.000 HD 
ENDBRANCH  42  53
ENDBRANCH  39  41
ENDBRANCH  31  39
ENDBRANCH  27  28
ENDBRANCH  23  27
ENDBRANCH  13  14
ENDBRANCH   4  13
ENDBRANCH   1   4
BRANCH   1  56
HETATM   56  C   UNL     1      -9.561  18.939  68.995  1.00  0.00    -0.277 C  
HETATM   57  O   UNL     1     -10.465  20.016  69.251  1.00  0.00    -0.615 OA 
HETATM   58  H   UNL     1     -10.002  20.703  69.718  1.00  0.00     0.000 HD 
ENDBRANCH   1  56
TORSDOF 12
ENDMDL
MODEL       14
REMARK 921   NORMALIZED FREE ENERGY PREDICTED BY IDOCK:   -7.08 KCAL/MOL
REMARK 922        TOTAL FREE ENERGY PREDICTED BY IDOCK:  -15.24 KCAL/MOL
REMARK 923 INTER-LIGAND FREE ENERGY PREDICTED BY IDOCK:  -13.65 KCAL/MOL
REMARK 924 INTRA-LIGAND FREE ENERGY PREDICTED BY IDOCK:   -1.59 KCAL/MOL
REMARK 927      BINDING AFFINITY PREDICTED BY RF-SCORE:    0.00 PKD
ROOT
HETATM    1  C   UNL     1     -11.992  13.916  64.437  1.00  0.00    -0.450 C  
HETATM    2  H   UNL     1     -12.142  12.563  63.057  1.00  0.00     0.000 HD 
HETATM    3  O   UNL     1     -12.447  13.458  63.157  1.00  0.00    -0.710 OA 
ENDROOT
BRANCH   1   4
HETATM    4  C   UNL     1     -10.453  13.762  64.621  1.00  0.00    -0.412 C  
BRANCH   4   5
HETATM    5  C   UNL     1      -9.927  12.372  64.143  1.00  0.00    -0.217 C  
HETATM    6  O   UNL     1     -10.449  12.028  62.850  1.00  0.00    -0.596 OA 
HETATM    7  H   UNL     1     -10.129  11.182  62.559  1.00  0.00     0.000 HD 
BRANCH   5   8
HETATM    8  C   UNL     1     -10.251  11.204  65.083  1.00  0.00    -0.289 C  
HETATM    9  C   UNL     1      -8.993  10.622  65.690  1.00  0.00    -0.185 C  
HETATM   10  O   UNL     1     -10.897  10.183  64.306  1.00  0.00     0.106 OA 
HETATM   11  O   UNL     1      -8.523  11.019  66.754  1.00  0.00    -0.137 OA 
HETATM   12  H   UNL     1     -11.098   9.460  64.888  1.00  0.00     0.000 HD 
ENDBRANCH   5   8
ENDBRANCH   4   5
BRANCH   4  13
HETATM   13  O   UNL     1     -10.027  13.992  65.986  1.00  0.00    -0.298 OA 
BRANCH  13  14
HETATM   14  C   UNL     1      -9.096  15.074  66.155  1.00  0.00    -0.202 C  
HETATM   15  H   UNL     1      -6.950  13.560  69.163  1.00  0.00     0.000 HD 
HETATM   16  O   UNL     1      -7.235  13.528  66.734  1.00  0.00    -0.257 OA 
HETATM   17  C   UNL     1      -7.991  14.677  67.148  1.00  0.00    -0.154 C  
HETATM   18  O   UNL     1      -9.694  16.274  66.625  1.00  0.00    -0.229 OA 
HETATM   19  O   UNL     1      -7.530  14.248  69.468  1.00  0.00    -0.044 OA 
HETATM   20  C   UNL     1     -10.373  16.136  67.877  1.00  0.00    -0.277 C  
HETATM   21  H   UNL     1      -6.553  13.283  67.349  1.00  0.00     0.000 HD 
HETATM   22  C   UNL     1      -8.602  14.388  68.513  1.00  0.00    -0.175 C  
HETATM   23  C   UNL     1      -9.542  15.500  69.006  1.00  0.00    -0.238 C  
BRANCH  20  24
HETATM   24  C   UNL     1     -10.910  17.534  68.264  1.00  0.00    -0.220 C  
HETATM   25  O   UNL     1     -10.601  17.923  69.603  1.00  0.00    -0.279 OA 
HETATM   26  H   UNL     1     -10.931  18.782  69.840  1.00  0.00     0.000 HD 
ENDBRANCH  20  24
BRANCH  23  27
HETATM   27  O   UNL     1     -10.501  14.978  69.967  1.00  0.00    -0.205 OA 
BRANCH  27  28
HETATM   28  C   UNL     1     -11.779  14.681  69.392  1.00  0.00    -0.316 C  
HETATM   29  O   UNL     1     -11.763  13.404  68.772  1.00  0.00    -0.296 OA 
HETATM   30  C   UNL     1     -11.470  12.354  69.697  1.00  0.00    -0.194 C  
HETATM   31  C   UNL     1     -12.615  12.246  70.736  1.00  0.00    -0.213 C  
HETATM   32  C   UNL     1     -11.247  11.104  68.848  1.00  0.00    -0.317 C  
HETATM   33  C   UNL     1     -12.769  13.610  71.462  1.00  0.00    -0.332 C  
HETATM   34  H   UNL     1     -14.058  14.462  72.705  1.00  0.00     0.000 HD 
HETATM   35  C   UNL     1     -12.883  14.760  70.459  1.00  0.00    -0.322 C  
HETATM   36  O   UNL     1     -13.964  13.628  72.262  1.00  0.00    -0.529 OA 
HETATM   37  O   UNL     1     -12.867  16.022  71.150  1.00  0.00    -0.561 OA 
HETATM   38  H   UNL     1     -13.549  16.071  71.809  1.00  0.00     0.000 HD 
BRANCH  31  39
HETATM   39  N   UNL     1     -12.363  11.100  71.644  1.00  0.00    -0.153 NA 
HETATM   40  H   UNL     1     -12.482  11.175  72.654  1.00  0.00     0.000 HD 
BRANCH  39  41
HETATM   41  C   UNL     1     -11.926   9.831  70.991  1.00  0.00    -0.352 C  
HETATM   42  C   UNL     1     -10.146   8.405  72.090  1.00  0.00    -0.376 C  
HETATM   43  C   UNL     1     -10.530   9.491  71.418  1.00  0.00    -0.258 C  
HETATM   44  C   UNL     1     -11.114   7.301  72.417  1.00  0.00    -0.275 C  
HETATM   45  H   UNL     1     -14.469   8.534  72.644  1.00  0.00     0.000 HD 
HETATM   46  O   UNL     1     -13.819   9.194  72.436  1.00  0.00    -0.469 OA 
HETATM   47  C   UNL     1     -12.462   7.339  71.652  1.00  0.00    -0.359 C  
HETATM   48  O   UNL     1     -11.333   7.318  73.825  1.00  0.00    -0.466 OA 
HETATM   49  H   UNL     1     -13.180   6.620  69.958  1.00  0.00     0.000 HD 
HETATM   50  O   UNL     1     -12.353   6.596  70.426  1.00  0.00    -0.274 OA 
HETATM   51  C   UNL     1     -12.997   8.743  71.335  1.00  0.00    -0.268 C  
HETATM   52  H   UNL     1     -11.945   6.621  74.030  1.00  0.00     0.000 HD 
BRANCH  42  53
HETATM   53  C   UNL     1      -8.733   8.198  72.591  1.00  0.00    -0.213 C  
HETATM   54  O   UNL     1      -8.616   8.440  73.990  1.00  0.00    -0.260 OA 
HETATM   55  H   UNL     1      -7.729   8.310  74.304  1.00  0.00     0.000 HD 
ENDBRANCH  42  53
ENDBRANCH  39  41
ENDBRANCH  31  39
ENDBRANCH  27  28
ENDBRANCH  23  27
ENDBRANCH  13  14
ENDBRANCH   4  13
ENDBRANCH   1   4
BRANCH   1  56
HETATM   56  C   UNL     1     -12.483  15.357  64.598  1.00  0.00     0.115 C  
HETATM   57  O   UNL     1     -11.589  16.232  63.905  1.00  0.00    -1.489 OA 
HETATM   58  H   UNL     1     -11.894  17.126  64.005  1.00  0.00     0.000 HD 
ENDBRANCH   1  56
TORSDOF 12
ENDMDL
MODEL       15
REMARK 921   NORMALIZED FREE ENERGY PREDICTED BY IDOCK:   -7.04 KCAL/MOL
REMARK 922        TOTAL FREE ENERGY PREDICTED BY IDOCK:  -15.17 KCAL/MOL
REMARK 923 INTER-LIGAND FREE ENERGY PREDICTED BY IDOCK:  -11.54 KCAL/MOL
REMARK 924 INTRA-LIGAND FREE ENERGY PREDICTED BY IDOCK:   -3.63 KCAL/MOL
REMARK 927      BINDING AFFINITY PREDICTED BY RF-SCORE:    0.00 PKD
ROOT
HETATM    1  C   UNL     1      -7.487  15.666  67.964  1.00  0.00    -0.125 C  
HETATM    2  H   UNL     1      -6.418  16.882  66.899  1.00  0.00     0.000 HD 
HETATM    3  O   UNL     1      -6.551  15.942  66.914  1.00  0.00    -0.282 OA 
ENDROOT
BRANCH   1   4
HETATM    4  C   UNL     1      -8.809  16.478  67.824  1.00  0.00    -0.197 C  
BRANCH   4   5
HETATM    5  C   UNL     1      -8.561  18.015  67.717  1.00  0.00    -0.244 C  
HETATM    6  O   UNL     1      -9.093  18.714  68.853  1.00  0.00    -0.288 OA 
HETATM    7  H   UNL     1      -8.942  19.650  68.788  1.00  0.00     0.000 HD 
BRANCH   5   8
HETATM    8  C   UNL     1      -9.153  18.677  66.465  1.00  0.00    -0.315 C  
HETATM    9  C   UNL     1     -10.190  19.715  66.831  1.00  0.00    -0.442 C  
HETATM   10  O   UNL     1      -9.789  17.650  65.687  1.00  0.00    -0.536 OA 
HETATM   11  O   UNL     1      -9.911  20.897  67.017  1.00  0.00    -0.370 OA 
HETATM   12  H   UNL     1     -10.155  18.059  64.912  1.00  0.00     0.000 HD 
ENDBRANCH   5   8
ENDBRANCH   4   5
BRANCH   4  13
HETATM   13  O   UNL     1      -9.743  16.216  68.899  1.00  0.00    -0.219 OA 
BRANCH  13  14
HETATM   14  C   UNL     1     -11.129  16.330  68.538  1.00  0.00    -0.368 C  
HETATM   15  H   UNL     1     -12.701  14.117  71.467  1.00  0.00     0.000 HD 
HETATM   16  O   UNL     1     -11.862  16.347  70.915  1.00  0.00    -0.560 OA 
HETATM   17  C   UNL     1     -12.018  15.718  69.633  1.00  0.00    -0.317 C  
HETATM   18  O   UNL     1     -11.453  15.696  67.309  1.00  0.00    -0.201 OA 
HETATM   19  O   UNL     1     -12.708  13.648  70.640  1.00  0.00    -0.298 OA 
HETATM   20  C   UNL     1     -11.149  14.298  67.276  1.00  0.00    -0.306 C  
HETATM   21  H   UNL     1     -12.411  15.968  71.592  1.00  0.00     0.000 HD 
HETATM   22  C   UNL     1     -11.710  14.234  69.781  1.00  0.00    -0.309 C  
HETATM   23  C   UNL     1     -11.721  13.475  68.444  1.00  0.00    -0.358 C  
BRANCH  20  24
HETATM   24  C   UNL     1     -11.612  13.760  65.902  1.00  0.00    -0.333 C  
HETATM   25  O   UNL     1     -13.013  13.905  65.665  1.00  0.00    -0.599 OA 
HETATM   26  H   UNL     1     -13.297  13.575  64.820  1.00  0.00     0.000 HD 
ENDBRANCH  20  24
BRANCH  23  27
HETATM   27  O   UNL     1     -10.906  12.272  68.526  1.00  0.00    -0.219 OA 
BRANCH  27  28
HETATM   28  C   UNL     1     -11.672  11.062  68.470  1.00  0.00    -0.278 C  
HETATM   29  O   UNL     1     -11.402  10.355  67.269  1.00  0.00    -0.327 OA 
HETATM   30  C   UNL     1     -10.027   9.982  67.155  1.00  0.00    -0.201 C  
HETATM   31  C   UNL     1      -9.673   8.965  68.270  1.00  0.00    -0.157 C  
HETATM   32  C   UNL     1      -9.855   9.463  65.729  1.00  0.00    -0.345 C  
HETATM   33  C   UNL     1      -9.970   9.607  69.653  1.00  0.00    -0.221 C  
HETATM   34  H   UNL     1     -10.062   9.017  71.544  1.00  0.00     0.000 HD 
HETATM   35  C   UNL     1     -11.386  10.186  69.700  1.00  0.00    -0.235 C  
HETATM   36  O   UNL     1      -9.881   8.624  70.699  1.00  0.00    -0.169 OA 
HETATM   37  O   UNL     1     -11.583  10.909  70.928  1.00  0.00    -0.343 OA 
HETATM   38  H   UNL     1     -11.406  10.368  71.688  1.00  0.00     0.000 HD 
BRANCH  31  39
HETATM   39  N   UNL     1      -8.273   8.502  68.103  1.00  0.00    -0.119 NA 
HETATM   40  H   UNL     1      -7.488   9.153  68.090  1.00  0.00     0.000 HD 
BRANCH  39  41
HETATM   41  C   UNL     1      -8.083   7.030  67.956  1.00  0.00    -0.119 C  
HETATM   42  C   UNL     1      -9.644   5.707  66.465  1.00  0.00    -0.171 C  
HETATM   43  C   UNL     1      -9.382   6.381  67.586  1.00  0.00    -0.117 C  
HETATM   44  C   UNL     1      -8.571   5.428  65.448  1.00  0.00    -0.150 C  
HETATM   45  H   UNL     1      -5.990   7.909  65.563  1.00  0.00     0.000 HD 
HETATM   46  O   UNL     1      -6.691   8.039  66.190  1.00  0.00    -0.052 OA 
HETATM   47  C   UNL     1      -7.114   5.662  65.925  1.00  0.00    -0.067 C  
HETATM   48  O   UNL     1      -8.855   6.210  64.291  1.00  0.00    -0.332 OA 
HETATM   49  H   UNL     1      -5.694   4.602  66.795  1.00  0.00     0.000 HD 
HETATM   50  O   UNL     1      -6.586   4.458  66.503  1.00  0.00    -0.047 OA 
HETATM   51  C   UNL     1      -6.928   6.815  66.922  1.00  0.00    -0.070 C  
HETATM   52  H   UNL     1      -8.176   6.034  63.650  1.00  0.00     0.000 HD 
BRANCH  42  53
HETATM   53  C   UNL     1     -11.021   5.189  66.112  1.00  0.00     0.028 C  
HETATM   54  O   UNL     1     -11.004   4.348  64.963  1.00  0.00    -0.670 OA 
HETATM   55  H   UNL     1     -11.869   4.023  64.742  1.00  0.00     0.000 HD 
ENDBRANCH  42  53
ENDBRANCH  39  41
ENDBRANCH  31  39
ENDBRANCH  27  28
ENDBRANCH  23  27
ENDBRANCH  13  14
ENDBRANCH   4  13
ENDBRANCH   1   4
BRANCH   1  56
HETATM   56  C   UNL     1      -7.702  14.150  67.987  1.00  0.00    -0.147 C  
HETATM   57  O   UNL     1      -8.406  13.801  69.182  1.00  0.00    -0.337 OA 
HETATM   58  H   UNL     1      -8.540  12.860  69.196  1.00  0.00     0.000 HD 
ENDBRANCH   1  56
TORSDOF 12
ENDMDL
MODEL       16
REMARK 921   NORMALIZED FREE ENERGY PREDICTED BY IDOCK:   -6.82 KCAL/MOL
REMARK 922        TOTAL FREE ENERGY PREDICTED BY IDOCK:  -14.80 KCAL/MOL
REMARK 923 INTER-LIGAND FREE ENERGY PREDICTED BY IDOCK:  -10.89 KCAL/MOL
REMARK 924 INTRA-LIGAND FREE ENERGY PREDICTED BY IDOCK:   -3.91 KCAL/MOL
REMARK 927      BINDING AFFINITY PREDICTED BY RF-SCORE:    0.00 PKD
ROOT
HETATM    1  C   UNL     1      -8.866   5.335  66.078  1.00  0.00    -0.141 C  
HETATM    2  H   UNL     1      -7.021   5.213  65.494  1.00  0.00     0.000 HD 
HETATM    3  O   UNL     1      -7.797   4.674  65.389  1.00  0.00    -0.088 OA 
ENDROOT
BRANCH   1   4
HETATM    4  C   UNL     1      -9.066   6.807  65.610  1.00  0.00     0.129 C  
BRANCH   4   5
HETATM    5  C   UNL     1      -7.808   7.384  64.888  1.00  0.00    -0.125 C  
HETATM    6  O   UNL     1      -6.698   7.515  65.789  1.00  0.00    -0.045 OA 
HETATM    7  H   UNL     1      -5.932   7.865  65.349  1.00  0.00     0.000 HD 
BRANCH   5   8
HETATM    8  C   UNL     1      -8.016   8.754  64.229  1.00  0.00    -0.146 C  
HETATM    9  C   UNL     1      -7.215   9.828  64.932  1.00  0.00    -0.129 C  
HETATM   10  O   UNL     1      -9.410   9.082  64.334  1.00  0.00    -0.392 OA 
HETATM   11  O   UNL     1      -6.068  10.125  64.604  1.00  0.00    -0.112 OA 
HETATM   12  H   UNL     1      -9.539   9.931  63.926  1.00  0.00     0.000 HD 
ENDBRANCH   5   8
ENDBRANCH   4   5
BRANCH   4  13
HETATM   13  O   UNL     1      -9.445   7.692  66.692  1.00  0.00    -0.177 OA 
BRANCH  13  14
HETATM   14  C   UNL     1      -8.982   7.290  67.992  1.00  0.00    -0.131 C  
HETATM   15  H   UNL     1     -12.259   8.165  70.100  1.00  0.00     0.000 HD 
HETATM   16  O   UNL     1     -11.233   6.472  68.664  1.00  0.00    -0.489 OA 
HETATM   17  C   UNL     1     -10.136   7.333  69.007  1.00  0.00    -0.186 C  
HETATM   18  O   UNL     1      -7.927   8.097  68.496  1.00  0.00    -0.121 OA 
HETATM   19  O   UNL     1     -11.573   8.806  70.249  1.00  0.00    -0.168 OA 
HETATM   20  C   UNL     1      -8.256   9.486  68.604  1.00  0.00    -0.112 C  
HETATM   21  H   UNL     1     -11.946   6.499  69.292  1.00  0.00     0.000 HD 
HETATM   22  C   UNL     1     -10.660   8.757  69.133  1.00  0.00    -0.184 C  
HETATM   23  C   UNL     1      -9.552   9.794  69.375  1.00  0.00    -0.207 C  
BRANCH  20  24
HETATM   24  C   UNL     1      -7.029  10.201  69.216  1.00  0.00    -0.068 C  
HETATM   25  O   UNL     1      -7.356  11.361  69.982  1.00  0.00    -0.359 OA 
HETATM   26  H   UNL     1      -6.602  11.800  70.358  1.00  0.00     0.000 HD 
ENDBRANCH  20  24
BRANCH  23  27
HETATM   27  O   UNL     1      -9.975  11.116  68.937  1.00  0.00    -0.201 OA 
BRANCH  27  28
HETATM   28  C   UNL     1     -11.285  11.131  68.356  1.00  0.00    -0.262 C  
HETATM   29  O   UNL     1     -12.172  11.911  69.142  1.00  0.00    -0.233 OA 
HETATM   30  C   UNL     1     -11.750  13.273  69.249  1.00  0.00    -0.326 C  
HETATM   31  C   UNL     1     -11.807  13.942  67.852  1.00  0.00    -0.378 C  
HETATM   32  C   UNL     1     -12.652  13.905  70.306  1.00  0.00    -0.328 C  
HETATM   33  C   UNL     1     -10.902  13.147  66.872  1.00  0.00    -0.265 C  
HETATM   34  H   UNL     1     -10.554  13.101  64.920  1.00  0.00     0.000 HD 
HETATM   35  C   UNL     1     -11.228  11.652  66.911  1.00  0.00    -0.313 C  
HETATM   36  O   UNL     1     -11.108  13.588  65.519  1.00  0.00    -0.292 OA 
HETATM   37  O   UNL     1     -10.277  10.919  66.117  1.00  0.00    -0.235 OA 
HETATM   38  H   UNL     1     -10.242  11.240  65.225  1.00  0.00     0.000 HD 
BRANCH  31  39
HETATM   39  N   UNL     1     -11.459  15.380  67.969  1.00  0.00    -0.342 NA 
HETATM   40  H   UNL     1     -12.025  16.030  68.514  1.00  0.00     0.000 HD 
BRANCH  39  41
HETATM   41  C   UNL     1     -10.232  15.818  67.241  1.00  0.00    -0.268 C  
HETATM   42  C   UNL     1      -9.910  18.268  66.688  1.00  0.00    -0.354 C  
HETATM   43  C   UNL     1     -10.505  17.090  66.497  1.00  0.00    -0.250 C  
HETATM   44  C   UNL     1      -8.768  18.421  67.656  1.00  0.00    -0.260 C  
HETATM   45  H   UNL     1      -8.936  15.979  70.271  1.00  0.00     0.000 HD 
HETATM   46  O   UNL     1      -9.636  15.922  69.630  1.00  0.00    -0.259 OA 
HETATM   47  C   UNL     1      -8.118  17.101  68.147  1.00  0.00    -0.219 C  
HETATM   48  O   UNL     1      -9.234  19.194  68.759  1.00  0.00    -0.360 OA 
HETATM   49  H   UNL     1      -6.649  15.915  67.568  1.00  0.00     0.000 HD 
HETATM   50  O   UNL     1      -7.047  16.724  67.267  1.00  0.00    -0.145 OA 
HETATM   51  C   UNL     1      -9.079  15.913  68.296  1.00  0.00    -0.185 C  
HETATM   52  H   UNL     1      -8.512  19.290  69.370  1.00  0.00     0.000 HD 
BRANCH  42  53
HETATM   53  C   UNL     1     -10.332  19.535  65.978  1.00  0.00    -0.511 C  
HETATM   54  O   UNL     1      -9.438  20.615  66.225  1.00  0.00    -0.633 OA 
HETATM   55  H   UNL     1      -9.703  21.411  65.779  1.00  0.00     0.000 HD 
ENDBRANCH  42  53
ENDBRANCH  39  41
ENDBRANCH  31  39
ENDBRANCH  27  28
ENDBRANCH  23  27
ENDBRANCH  13  14
ENDBRANCH   4  13
ENDBRANCH   1   4
BRANCH   1  56
HETATM   56  C   UNL     1     -10.115   4.467  65.908  1.00  0.00    -0.243 C  
HETATM   57  O   UNL     1     -11.275   5.294  66.030  1.00  0.00    -0.780 OA 
HETATM   58  H   UNL     1     -12.050   4.756  65.924  1.00  0.00     0.000 HD 
ENDBRANCH   1  56
TORSDOF 12
ENDMDL
MODEL       17
REMARK 921   NORMALIZED FREE ENERGY PREDICTED BY IDOCK:   -6.75 KCAL/MOL
REMARK 922        TOTAL FREE ENERGY PREDICTED BY IDOCK:  -14.68 KCAL/MOL
REMARK 923 INTER-LIGAND FREE ENERGY PREDICTED BY IDOCK:  -11.66 KCAL/MOL
REMARK 924 INTRA-LIGAND FREE ENERGY PREDICTED BY IDOCK:   -3.02 KCAL/MOL
REMARK 927      BINDING AFFINITY PREDICTED BY RF-SCORE:    0.00 PKD
ROOT
HETATM    1  C   UNL     1      -9.524   4.157  70.406  1.00  0.00    -0.177 C  
HETATM    2  H   UNL     1      -7.998   5.353  70.417  1.00  0.00     0.000 HD 
HETATM    3  O   UNL     1      -8.113   4.410  70.400  1.00  0.00    -0.064 OA 
ENDROOT
BRANCH   1   4
HETATM    4  C   UNL     1     -10.274   4.894  69.257  1.00  0.00    -0.135 C  
BRANCH   4   5
HETATM    5  C   UNL     1      -9.413   5.018  67.961  1.00  0.00    -0.131 C  
HETATM    6  O   UNL     1      -8.520   6.141  68.028  1.00  0.00    -0.116 OA 
HETATM    7  H   UNL     1      -7.995   6.216  67.239  1.00  0.00     0.000 HD 
BRANCH   5   8
HETATM    8  C   UNL     1     -10.219   5.163  66.664  1.00  0.00    -0.261 C  
HETATM    9  C   UNL     1      -9.357   5.688  65.537  1.00  0.00     0.049 C  
HETATM   10  O   UNL     1     -11.275   6.106  66.909  1.00  0.00    -0.589 OA 
HETATM   11  O   UNL     1      -8.739   4.950  64.773  1.00  0.00    -0.148 OA 
HETATM   12  H   UNL     1     -11.774   6.196  66.106  1.00  0.00     0.000 HD 
ENDBRANCH   5   8
ENDBRANCH   4   5
BRANCH   4  13
HETATM   13  O   UNL     1     -10.745   6.206  69.648  1.00  0.00    -0.250 OA 
BRANCH  13  14
HETATM   14  C   UNL     1     -10.834   6.419  71.067  1.00  0.00    -0.262 C  
HETATM   15  H   UNL     1     -13.277   9.578  71.052  1.00  0.00     0.000 HD 
HETATM   16  O   UNL     1     -13.211   7.137  70.922  1.00  0.00    -0.573 OA 
HETATM   17  C   UNL     1     -11.896   7.486  71.381  1.00  0.00    -0.294 C  
HETATM   18  O   UNL     1      -9.611   6.833  71.659  1.00  0.00    -0.163 OA 
HETATM   19  O   UNL     1     -12.384   9.836  71.249  1.00  0.00    -0.321 OA 
HETATM   20  C   UNL     1      -9.076   8.042  71.110  1.00  0.00    -0.149 C  
HETATM   21  H   UNL     1     -13.867   7.796  71.115  1.00  0.00     0.000 HD 
HETATM   22  C   UNL     1     -11.499   8.813  70.748  1.00  0.00    -0.270 C  
HETATM   23  C   UNL     1     -10.054   9.230  71.066  1.00  0.00    -0.303 C  
BRANCH  20  24
HETATM   24  C   UNL     1      -7.790   8.374  71.900  1.00  0.00    -0.125 C  
HETATM   25  O   UNL     1      -7.008   9.421  71.321  1.00  0.00    -0.261 OA 
HETATM   26  H   UNL     1      -6.218   9.625  71.807  1.00  0.00     0.000 HD 
ENDBRANCH  20  24
BRANCH  23  27
HETATM   27  O   UNL     1      -9.541  10.135  70.048  1.00  0.00    -0.200 OA 
BRANCH  27  28
HETATM   28  C   UNL     1      -9.886   9.746  68.713  1.00  0.00    -0.169 C  
HETATM   29  O   UNL     1     -10.979  10.515  68.235  1.00  0.00    -0.224 OA 
HETATM   30  C   UNL     1     -10.685  11.913  68.197  1.00  0.00    -0.215 C  
HETATM   31  C   UNL     1      -9.565  12.177  67.159  1.00  0.00    -0.194 C  
HETATM   32  C   UNL     1     -12.013  12.608  67.906  1.00  0.00    -0.307 C  
HETATM   33  C   UNL     1      -8.310  11.348  67.546  1.00  0.00    -0.137 C  
HETATM   34  H   UNL     1      -6.568  10.872  66.727  1.00  0.00     0.000 HD 
HETATM   35  C   UNL     1      -8.671   9.880  67.782  1.00  0.00    -0.129 C  
HETATM   36  O   UNL     1      -7.335  11.379  66.489  1.00  0.00    -0.133 OA 
HETATM   37  O   UNL     1      -7.529   9.167  68.290  1.00  0.00    -0.081 OA 
HETATM   38  H   UNL     1      -6.778   9.249  67.714  1.00  0.00     0.000 HD 
BRANCH  31  39
HETATM   39  N   UNL     1      -9.318  13.636  67.046  1.00  0.00    -0.239 NA 
HETATM   40  H   UNL     1      -8.948  14.183  67.824  1.00  0.00     0.000 HD 
BRANCH  39  41
HETATM   41  C   UNL     1      -9.643  14.256  65.728  1.00  0.00    -0.155 C  
HETATM   42  C   UNL     1     -11.556  13.335  64.347  1.00  0.00    -0.423 C  
HETATM   43  C   UNL     1     -10.321  13.252  64.844  1.00  0.00    -0.368 C  
HETATM   44  C   UNL     1     -12.403  14.561  64.553  1.00  0.00    -0.414 C  
HETATM   45  H   UNL     1     -11.489  16.292  67.552  1.00  0.00     0.000 HD 
HETATM   46  O   UNL     1     -10.979  15.510  67.376  1.00  0.00    -0.310 OA 
HETATM   47  C   UNL     1     -11.655  15.820  65.064  1.00  0.00    -0.011 C  
HETATM   48  O   UNL     1     -13.465  14.212  65.436  1.00  0.00    -0.648 OA 
HETATM   49  H   UNL     1     -10.718  17.364  64.266  1.00  0.00     0.000 HD 
HETATM   50  O   UNL     1     -11.176  16.593  63.952  1.00  0.00    -0.955 OA 
HETATM   51  C   UNL     1     -10.484  15.543  66.018  1.00  0.00    -0.323 C  
HETATM   52  H   UNL     1     -14.000  14.987  65.566  1.00  0.00     0.000 HD 
BRANCH  42  53
HETATM   53  C   UNL     1     -12.210  12.218  63.564  1.00  0.00    -0.568 C  
HETATM   54  O   UNL     1     -11.272  11.233  63.144  1.00  0.00    -0.829 OA 
HETATM   55  H   UNL     1     -11.684  10.531  62.652  1.00  0.00     0.000 HD 
ENDBRANCH  42  53
ENDBRANCH  39  41
ENDBRANCH  31  39
ENDBRANCH  27  28
ENDBRANCH  23  27
ENDBRANCH  13  14
ENDBRANCH   4  13
ENDBRANCH   1   4
BRANCH   1  56
HETATM   56  C   UNL     1      -9.708   2.638  70.378  1.00  0.00     0.038 C  
HETATM   57  O   UNL     1      -9.678   2.142  71.719  1.00  0.00    -0.124 OA 
HETATM   58  H   UNL     1      -9.793   1.199  71.702  1.00  0.00     0.000 HD 
ENDBRANCH   1  56
TORSDOF 12
ENDMDL
MODEL       18
REMARK 921   NORMALIZED FREE ENERGY PREDICTED BY IDOCK:   -6.74 KCAL/MOL
REMARK 922        TOTAL FREE ENERGY PREDICTED BY IDOCK:  -14.67 KCAL/MOL
REMARK 923 INTER-LIGAND FREE ENERGY PREDICTED BY IDOCK:  -11.36 KCAL/MOL
REMARK 924 INTRA-LIGAND FREE ENERGY PREDICTED BY IDOCK:   -3.31 KCAL/MOL
REMARK 927      BINDING AFFINITY PREDICTED BY RF-SCORE:    0.00 PKD
ROOT
HETATM    1  C   UNL     1     -10.045   6.212  67.975  1.00  0.00    -0.153 C  
HETATM    2  H   UNL     1     -11.968   6.452  67.940  1.00  0.00     0.000 HD 
HETATM    3  O   UNL     1     -11.373   5.860  68.385  1.00  0.00    -0.089 OA 
ENDROOT
BRANCH   1   4
HETATM    4  C   UNL     1      -9.719   7.716  68.217  1.00  0.00    -0.157 C  
BRANCH   4   5
HETATM    5  C   UNL     1     -10.734   8.403  69.184  1.00  0.00    -0.106 C  
HETATM    6  O   UNL     1     -11.409   9.498  68.546  1.00  0.00    -0.482 OA 
HETATM    7  H   UNL     1     -12.027   9.916  69.134  1.00  0.00     0.000 HD 
BRANCH   5   8
HETATM    8  C   UNL     1     -10.120   8.948  70.481  1.00  0.00    -0.205 C  
HETATM    9  C   UNL     1     -11.060   9.912  71.170  1.00  0.00    -0.289 C  
HETATM   10  O   UNL     1      -8.918   9.652  70.133  1.00  0.00    -0.218 OA 
HETATM   11  O   UNL     1     -11.884   9.552  72.008  1.00  0.00    -0.341 OA 
HETATM   12  H   UNL     1      -8.538   9.989  70.936  1.00  0.00     0.000 HD 
ENDBRANCH   5   8
ENDBRANCH   4   5
BRANCH   4  13
HETATM   13  O   UNL     1      -9.638   8.476  66.987  1.00  0.00    -0.162 OA 
BRANCH  13  14
HETATM   14  C   UNL     1      -8.415   8.308  66.251  1.00  0.00    -0.129 C  
HETATM   15  H   UNL     1      -6.449  11.508  67.608  1.00  0.00     0.000 HD 
HETATM   16  O   UNL     1      -7.037   9.191  68.124  1.00  0.00    -0.076 OA 
HETATM   17  C   UNL     1      -7.361   9.319  66.731  1.00  0.00    -0.086 C  
HETATM   18  O   UNL     1      -8.567   8.469  64.848  1.00  0.00    -0.171 OA 
HETATM   19  O   UNL     1      -6.756  11.645  66.719  1.00  0.00    -0.135 OA 
HETATM   20  C   UNL     1      -9.090   9.742  64.460  1.00  0.00    -0.249 C  
HETATM   21  H   UNL     1      -6.386   9.816  68.421  1.00  0.00     0.000 HD 
HETATM   22  C   UNL     1      -7.851  10.738  66.476  1.00  0.00    -0.145 C  
HETATM   23  C   UNL     1      -8.349  10.960  65.039  1.00  0.00     0.034 C  
BRANCH  20  24
HETATM   24  C   UNL     1      -9.136   9.767  62.914  1.00  0.00    -0.254 C  
HETATM   25  O   UNL     1      -9.052  11.079  62.353  1.00  0.00    -0.361 OA 
HETATM   26  H   UNL     1      -9.080  11.094  61.403  1.00  0.00     0.000 HD 
ENDBRANCH  20  24
BRANCH  23  27
HETATM   27  O   UNL     1      -9.289  12.069  64.983  1.00  0.00    -0.034 OA 
BRANCH  27  28
HETATM   28  C   UNL     1     -10.637  11.688  65.286  1.00  0.00    -0.281 C  
HETATM   29  O   UNL     1     -10.855  11.699  66.689  1.00  0.00    -0.258 OA 
HETATM   30  C   UNL     1     -10.651  12.994  67.261  1.00  0.00    -0.242 C  
HETATM   31  C   UNL     1     -11.717  13.975  66.712  1.00  0.00    -0.407 C  
HETATM   32  C   UNL     1     -10.678  12.788  68.773  1.00  0.00    -0.246 C  
HETATM   33  C   UNL     1     -11.614  14.021  65.163  1.00  0.00    -0.342 C  
HETATM   34  H   UNL     1     -12.667  14.759  63.653  1.00  0.00     0.000 HD 
HETATM   35  C   UNL     1     -11.633  12.611  64.567  1.00  0.00    -0.345 C  
HETATM   36  O   UNL     1     -12.731  14.732  64.601  1.00  0.00    -0.523 OA 
HETATM   37  O   UNL     1     -11.380  12.670  63.152  1.00  0.00    -0.743 OA 
HETATM   38  H   UNL     1     -11.996  13.240  62.708  1.00  0.00     0.000 HD 
BRANCH  31  39
HETATM   39  N   UNL     1     -11.569  15.297  67.370  1.00  0.00    -0.255 NA 
HETATM   40  H   UNL     1     -12.305  15.695  67.955  1.00  0.00     0.000 HD 
BRANCH  39  41
HETATM   41  C   UNL     1     -10.282  16.011  67.125  1.00  0.00    -0.278 C  
HETATM   42  C   UNL     1     -10.304  18.479  66.562  1.00  0.00    -0.447 C  
HETATM   43  C   UNL     1     -10.517  17.201  66.245  1.00  0.00    -0.260 C  
HETATM   44  C   UNL     1      -9.676  18.868  67.873  1.00  0.00    -0.327 C  
HETATM   45  H   UNL     1     -10.299  16.407  70.399  1.00  0.00     0.000 HD 
HETATM   46  O   UNL     1     -10.674  16.205  69.550  1.00  0.00    -0.265 OA 
HETATM   47  C   UNL     1      -8.996  17.719  68.662  1.00  0.00    -0.256 C  
HETATM   48  O   UNL     1     -10.679  19.498  68.665  1.00  0.00    -0.412 OA 
HETATM   49  H   UNL     1      -7.201  16.901  68.757  1.00  0.00     0.000 HD 
HETATM   50  O   UNL     1      -7.617  17.605  68.274  1.00  0.00    -0.237 OA 
HETATM   51  C   UNL     1      -9.665  16.344  68.524  1.00  0.00    -0.228 C  
HETATM   52  H   UNL     1     -10.282  19.743  69.493  1.00  0.00     0.000 HD 
BRANCH  42  53
HETATM   53  C   UNL     1     -10.685  19.631  65.659  1.00  0.00    -0.329 C  
HETATM   54  O   UNL     1      -9.742  20.696  65.716  1.00  0.00    -0.603 OA 
HETATM   55  H   UNL     1      -9.981  21.420  65.149  1.00  0.00     0.000 HD 
ENDBRANCH  42  53
ENDBRANCH  39  41
ENDBRANCH  31  39
ENDBRANCH  27  28
ENDBRANCH  23  27
ENDBRANCH  13  14
ENDBRANCH   4  13
ENDBRANCH   1   4
BRANCH   1  56
HETATM   56  C   UNL     1      -9.086   5.258  68.691  1.00  0.00    -0.109 C  
HETATM   57  O   UNL     1      -9.715   3.981  68.822  1.00  0.00    -0.153 OA 
HETATM   58  H   UNL     1      -9.120   3.388  69.266  1.00  0.00     0.000 HD 
ENDBRANCH   1  56
TORSDOF 12
ENDMDL
MODEL       19
REMARK 921   NORMALIZED FREE ENERGY PREDICTED BY IDOCK:   -6.73 KCAL/MOL
REMARK 922        TOTAL FREE ENERGY PREDICTED BY IDOCK:  -14.65 KCAL/MOL
REMARK 923 INTER-LIGAND FREE ENERGY PREDICTED BY IDOCK:  -12.50 KCAL/MOL
REMARK 924 INTRA-LIGAND FREE ENERGY PREDICTED BY IDOCK:   -2.16 KCAL/MOL
REMARK 927      BINDING AFFINITY PREDICTED BY RF-SCORE:    0.00 PKD
ROOT
HETATM    1  C   UNL     1      -9.530   4.547  69.712  1.00  0.00    -0.177 C  
HETATM    2  H   UNL     1      -8.327   6.033  69.389  1.00  0.00     0.000 HD 
HETATM    3  O   UNL     1      -8.286   5.093  69.253  1.00  0.00    -0.083 OA 
ENDROOT
BRANCH   1   4
HETATM    4  C   UNL     1     -10.766   5.217  69.041  1.00  0.00     0.026 C  
BRANCH   4   5
HETATM    5  C   UNL     1     -10.453   5.761  67.612  1.00  0.00    -0.235 C  
HETATM    6  O   UNL     1     -11.488   6.641  67.145  1.00  0.00    -0.779 OA 
HETATM    7  H   UNL     1     -11.297   6.972  66.276  1.00  0.00     0.000 HD 
BRANCH   5   8
HETATM    8  C   UNL     1     -10.264   4.681  66.539  1.00  0.00    -0.238 C  
HETATM    9  C   UNL     1      -9.010   4.924  65.730  1.00  0.00    -0.142 C  
HETATM   10  O   UNL     1     -11.396   4.738  65.657  1.00  0.00    -0.900 OA 
HETATM   11  O   UNL     1      -7.918   4.453  66.038  1.00  0.00    -0.097 OA 
HETATM   12  H   UNL     1     -11.279   4.069  64.993  1.00  0.00     0.000 HD 
ENDBRANCH   5   8
ENDBRANCH   4   5
BRANCH   4  13
HETATM   13  O   UNL     1     -11.330   6.281  69.847  1.00  0.00    -0.397 OA 
BRANCH  13  14
HETATM   14  C   UNL     1     -10.937   6.266  71.229  1.00  0.00    -0.275 C  
HETATM   15  H   UNL     1     -13.616   8.867  72.646  1.00  0.00     0.000 HD 
HETATM   16  O   UNL     1     -13.283   6.529  72.014  1.00  0.00    -0.470 OA 
HETATM   17  C   UNL     1     -11.948   7.054  72.080  1.00  0.00    -0.298 C  
HETATM   18  O   UNL     1      -9.649   6.818  71.462  1.00  0.00    -0.164 OA 
HETATM   19  O   UNL     1     -12.752   9.260  72.589  1.00  0.00    -0.303 OA 
HETATM   20  C   UNL     1      -9.506   8.172  71.023  1.00  0.00    -0.156 C  
HETATM   21  H   UNL     1     -13.908   7.016  72.539  1.00  0.00     0.000 HD 
HETATM   22  C   UNL     1     -11.978   8.509  71.632  1.00  0.00    -0.316 C  
HETATM   23  C   UNL     1     -10.582   9.145  71.539  1.00  0.00    -0.358 C  
BRANCH  20  24
HETATM   24  C   UNL     1      -8.078   8.628  71.401  1.00  0.00    -0.151 C  
HETATM   25  O   UNL     1      -7.776   9.970  71.014  1.00  0.00    -0.317 OA 
HETATM   26  H   UNL     1      -6.898  10.250  71.246  1.00  0.00     0.000 HD 
ENDBRANCH  20  24
BRANCH  23  27
HETATM   27  O   UNL     1     -10.585  10.269  70.615  1.00  0.00    -0.214 OA 
BRANCH  27  28
HETATM   28  C   UNL     1     -11.852  10.480  69.980  1.00  0.00    -0.308 C  
HETATM   29  O   UNL     1     -12.405  11.728  70.371  1.00  0.00    -0.321 OA 
HETATM   30  C   UNL     1     -11.570  12.830  70.007  1.00  0.00    -0.120 C  
HETATM   31  C   UNL     1     -11.489  12.928  68.463  1.00  0.00    -0.310 C  
HETATM   32  C   UNL     1     -12.169  14.050  70.702  1.00  0.00    -0.442 C  
HETATM   33  C   UNL     1     -10.934  11.592  67.899  1.00  0.00    -0.233 C  
HETATM   34  H   UNL     1     -10.724  10.735  66.123  1.00  0.00     0.000 HD 
HETATM   35  C   UNL     1     -11.711  10.395  68.452  1.00  0.00     0.082 C  
HETATM   36  O   UNL     1     -11.063  11.552  66.467  1.00  0.00    -0.293 OA 
HETATM   37  O   UNL     1     -11.084   9.167  68.042  1.00  0.00    -0.495 OA 
HETATM   38  H   UNL     1     -10.997   9.114  67.098  1.00  0.00     0.000 HD 
BRANCH  31  39
HETATM   39  N   UNL     1     -10.699  14.124  68.076  1.00  0.00    -0.239 NA 
HETATM   40  H   UNL     1      -9.733  14.253  68.376  1.00  0.00     0.000 HD 
BRANCH  39  41
HETATM   41  C   UNL     1     -11.404  15.127  67.225  1.00  0.00    -0.303 C  
HETATM   42  C   UNL     1     -10.652  17.544  67.254  1.00  0.00    -0.287 C  
HETATM   43  C   UNL     1     -11.254  16.496  67.817  1.00  0.00    -0.097 C  
HETATM   44  C   UNL     1     -10.123  17.483  65.847  1.00  0.00    -0.185 C  
HETATM   45  H   UNL     1      -9.262  14.132  64.921  1.00  0.00     0.000 HD 
HETATM   46  O   UNL     1      -9.605  14.223  65.803  1.00  0.00    -0.256 OA 
HETATM   47  C   UNL     1     -10.609  16.282  64.996  1.00  0.00    -0.233 C  
HETATM   48  O   UNL     1      -8.700  17.509  65.916  1.00  0.00    -0.525 OA 
HETATM   49  H   UNL     1     -12.117  15.891  63.781  1.00  0.00     0.000 HD 
HETATM   50  O   UNL     1     -11.819  16.628  64.303  1.00  0.00    -0.729 OA 
HETATM   51  C   UNL     1     -10.838  14.978  65.773  1.00  0.00    -0.350 C  
HETATM   52  H   UNL     1      -8.367  17.470  65.028  1.00  0.00     0.000 HD 
BRANCH  42  53
HETATM   53  C   UNL     1     -10.435  18.858  67.972  1.00  0.00    -0.358 C  
HETATM   54  O   UNL     1      -9.388  19.626  67.387  1.00  0.00    -0.305 OA 
HETATM   55  H   UNL     1      -9.251  20.451  67.838  1.00  0.00     0.000 HD 
ENDBRANCH  42  53
ENDBRANCH  39  41
ENDBRANCH  31  39
ENDBRANCH  27  28
ENDBRANCH  23  27
ENDBRANCH  13  14
ENDBRANCH   4  13
ENDBRANCH   1   4
BRANCH   1  56
HETATM   56  C   UNL     1      -9.464   3.034  69.493  1.00  0.00    -0.103 C  
HETATM   57  O   UNL     1      -8.094   2.624  69.499  1.00  0.00    -0.042 OA 
HETATM   58  H   UNL     1      -8.053   1.684  69.363  1.00  0.00     0.000 HD 
ENDBRANCH   1  56
TORSDOF 12
ENDMDL
MODEL       20
REMARK 921   NORMALIZED FREE ENERGY PREDICTED BY IDOCK:   -6.72 KCAL/MOL
REMARK 922        TOTAL FREE ENERGY PREDICTED BY IDOCK:  -14.63 KCAL/MOL
REMARK 923 INTER-LIGAND FREE ENERGY PREDICTED BY IDOCK:  -11.17 KCAL/MOL
REMARK 924 INTRA-LIGAND FREE ENERGY PREDICTED BY IDOCK:   -3.46 KCAL/MOL
REMARK 927      BINDING AFFINITY PREDICTED BY RF-SCORE:    0.00 PKD
ROOT
HETATM    1  C   UNL     1     -11.727  12.367  63.763  1.00  0.00    -0.483 C  
HETATM    2  H   UNL     1     -13.526  12.456  63.045  1.00  0.00     0.000 HD 
HETATM    3  O   UNL     1     -12.800  11.848  62.966  1.00  0.00    -0.520 OA 
ENDROOT
BRANCH   1   4
HETATM    4  C   UNL     1     -12.150  12.643  65.237  1.00  0.00    -0.467 C  
BRANCH   4   5
HETATM    5  C   UNL     1     -12.269  14.167  65.553  1.00  0.00    -0.432 C  
HETATM    6  O   UNL     1     -13.641  14.584  65.622  1.00  0.00    -0.447 OA 
HETATM    7  H   UNL     1     -13.714  15.512  65.815  1.00  0.00     0.000 HD 
BRANCH   5   8
HETATM    8  C   UNL     1     -11.570  15.089  64.545  1.00  0.00    -0.343 C  
HETATM    9  C   UNL     1     -10.887  16.245  65.242  1.00  0.00    -0.297 C  
HETATM   10  O   UNL     1     -12.574  15.616  63.664  1.00  0.00    -0.770 OA 
HETATM   11  O   UNL     1      -9.720  16.196  65.625  1.00  0.00    -0.422 OA 
HETATM   12  H   UNL     1     -12.141  16.186  63.040  1.00  0.00     0.000 HD 
ENDBRANCH   5   8
ENDBRANCH   4   5
BRANCH   4  13
HETATM   13  O   UNL     1     -11.261  12.022  66.198  1.00  0.00    -0.316 OA 
BRANCH  13  14
HETATM   14  C   UNL     1     -10.969  12.822  67.356  1.00  0.00    -0.253 C  
HETATM   15  H   UNL     1      -7.019  12.253  67.502  1.00  0.00     0.000 HD 
HETATM   16  O   UNL     1      -8.783  13.564  66.429  1.00  0.00    -0.438 OA 
HETATM   17  C   UNL     1      -9.449  12.952  67.545  1.00  0.00    -0.198 C  
HETATM   18  O   UNL     1     -11.515  12.303  68.560  1.00  0.00    -0.253 OA 
HETATM   19  O   UNL     1      -7.463  11.755  68.178  1.00  0.00    -0.085 OA 
HETATM   20  C   UNL     1     -11.080  10.977  68.875  1.00  0.00    -0.239 C  
HETATM   21  H   UNL     1      -7.843  13.643  66.545  1.00  0.00     0.000 HD 
HETATM   22  C   UNL     1      -8.837  11.577  67.778  1.00  0.00    -0.153 C  
HETATM   23  C   UNL     1      -9.555  10.770  68.872  1.00  0.00    -0.195 C  
BRANCH  20  24
HETATM   24  C   UNL     1     -11.718  10.595  70.231  1.00  0.00    -0.344 C  
HETATM   25  O   UNL     1     -12.075   9.215  70.335  1.00  0.00    -0.474 OA 
HETATM   26  H   UNL     1     -12.467   8.981  71.168  1.00  0.00     0.000 HD 
ENDBRANCH  20  24
BRANCH  23  27
HETATM   27  O   UNL     1      -9.343   9.342  68.685  1.00  0.00    -0.140 OA 
BRANCH  27  28
HETATM   28  C   UNL     1      -8.795   8.693  69.839  1.00  0.00    -0.144 C  
HETATM   29  O   UNL     1      -9.611   7.600  70.232  1.00  0.00    -0.171 OA 
HETATM   30  C   UNL     1      -9.720   6.607  69.209  1.00  0.00    -0.146 C  
HETATM   31  C   UNL     1      -8.331   5.963  68.965  1.00  0.00    -0.106 C  
HETATM   32  C   UNL     1     -10.805   5.643  69.681  1.00  0.00    -0.365 C  
HETATM   33  C   UNL     1      -7.321   7.074  68.567  1.00  0.00    -0.100 C  
HETATM   34  H   UNL     1      -5.361   7.240  68.317  1.00  0.00     0.000 HD 
HETATM   35  C   UNL     1      -7.354   8.233  69.565  1.00  0.00    -0.074 C  
HETATM   36  O   UNL     1      -5.978   6.560  68.561  1.00  0.00    -0.019 OA 
HETATM   37  O   UNL     1      -6.529   9.314  69.094  1.00  0.00    -0.042 OA 
HETATM   38  H   UNL     1      -5.639   9.030  68.925  1.00  0.00     0.000 HD 
BRANCH  31  39
HETATM   39  N   UNL     1      -8.453   4.868  67.970  1.00  0.00    -0.103 NA 
HETATM   40  H   UNL     1      -7.929   3.998  68.059  1.00  0.00     0.000 HD 
BRANCH  39  41
HETATM   41  C   UNL     1      -9.387   5.117  66.834  1.00  0.00    -0.128 C  
HETATM   42  C   UNL     1      -8.458   5.702  64.552  1.00  0.00    -0.070 C  
HETATM   43  C   UNL     1      -8.734   6.008  65.821  1.00  0.00    -0.155 C  
HETATM   44  C   UNL     1      -8.890   4.393  63.949  1.00  0.00    -0.139 C  
HETATM   45  H   UNL     1      -9.205   1.846  66.447  1.00  0.00     0.000 HD 
HETATM   46  O   UNL     1      -8.937   2.695  66.780  1.00  0.00    -0.135 OA 
HETATM   47  C   UNL     1      -9.942   3.592  64.759  1.00  0.00    -0.160 C  
HETATM   48  O   UNL     1      -7.721   3.609  63.728  1.00  0.00    -0.076 OA 
HETATM   49  H   UNL     1     -11.912   3.484  64.855  1.00  0.00     0.000 HD 
HETATM   50  O   UNL     1     -11.267   3.975  64.358  1.00  0.00    -0.338 OA 
HETATM   51  C   UNL     1      -9.829   3.719  66.285  1.00  0.00    -0.056 C  
HETATM   52  H   UNL     1      -7.994   2.783  63.347  1.00  0.00     0.000 HD 
BRANCH  42  53
HETATM   53  C   UNL     1      -7.683   6.617  63.629  1.00  0.00    -0.107 C  
HETATM   54  O   UNL     1      -8.494   7.659  63.098  1.00  0.00    -0.376 OA 
HETATM   55  H   UNL     1      -8.008   8.233  62.517  1.00  0.00     0.000 HD 
ENDBRANCH  42  53
ENDBRANCH  39  41
ENDBRANCH  31  39
ENDBRANCH  27  28
ENDBRANCH  23  27
ENDBRANCH  13  14
ENDBRANCH   4  13
ENDBRANCH   1   4
BRANCH   1  56
HETATM   56  C   UNL     1     -10.559  11.386  63.638  1.00  0.00    -0.412 C  
HETATM   57  O   UNL     1      -9.355  12.047  64.033  1.00  0.00    -0.484 OA 
HETATM   58  H   UNL     1      -8.629  11.438  63.956  1.00  0.00     0.000 HD 
ENDBRANCH   1  56
TORSDOF 12
ENDMDL
MODEL       21
REMARK 921   NORMALIZED FREE ENERGY PREDICTED BY IDOCK:   -6.70 KCAL/MOL
REMARK 922        TOTAL FREE ENERGY PREDICTED BY IDOCK:  -14.60 KCAL/MOL
REMARK 923 INTER-LIGAND FREE ENERGY PREDICTED BY IDOCK:  -11.28 KCAL/MOL
REMARK 924 INTRA-LIGAND FREE ENERGY PREDICTED BY IDOCK:   -3.32 KCAL/MOL
REMARK 927      BINDING AFFINITY PREDICTED BY RF-SCORE:    0.00 PKD
ROOT
HETATM    1  C   UNL     1      -8.872   8.214  73.390  1.00  0.00    -0.253 C  
HETATM    2  H   UNL     1      -7.193   8.965  74.004  1.00  0.00     0.000 HD 
HETATM    3  O   UNL     1      -7.775   8.278  74.310  1.00  0.00    -0.204 OA 
ENDROOT
BRANCH   1   4
HETATM    4  C   UNL     1      -8.412   8.024  71.914  1.00  0.00    -0.136 C  
BRANCH   4   5
HETATM    5  C   UNL     1      -6.884   8.279  71.724  1.00  0.00    -0.080 C  
HETATM    6  O   UNL     1      -6.571   9.679  71.799  1.00  0.00    -0.300 OA 
HETATM    7  H   UNL     1      -5.641   9.834  71.683  1.00  0.00     0.000 HD 
BRANCH   5   8
HETATM    8  C   UNL     1      -6.305   7.760  70.401  1.00  0.00    -0.037 C  
HETATM    9  C   UNL     1      -6.200   8.867  69.375  1.00  0.00    -0.041 C  
HETATM   10  O   UNL     1      -7.198   6.754  69.898  1.00  0.00    -0.075 OA 
HETATM   11  O   UNL     1      -5.195   9.564  69.251  1.00  0.00    -0.036 OA 
HETATM   12  H   UNL     1      -6.840   6.432  69.079  1.00  0.00     0.000 HD 
ENDBRANCH   5   8
ENDBRANCH   4   5
BRANCH   4  13
HETATM   13  O   UNL     1      -9.156   8.850  70.986  1.00  0.00    -0.201 OA 
BRANCH  13  14
HETATM   14  C   UNL     1     -10.472   8.367  70.667  1.00  0.00    -0.200 C  
HETATM   15  H   UNL     1     -10.211   8.495  66.684  1.00  0.00     0.000 HD 
HETATM   16  O   UNL     1      -9.657   7.155  68.652  1.00  0.00    -0.140 OA 
HETATM   17  C   UNL     1     -10.596   8.119  69.154  1.00  0.00    -0.166 C  
HETATM   18  O   UNL     1     -11.513   9.253  71.050  1.00  0.00    -0.274 OA 
HETATM   19  O   UNL     1     -10.747   9.206  67.016  1.00  0.00    -0.234 OA 
HETATM   20  C   UNL     1     -11.417  10.555  70.466  1.00  0.00    -0.345 C  
HETATM   21  H   UNL     1      -9.734   7.002  67.718  1.00  0.00     0.000 HD 
HETATM   22  C   UNL     1     -10.398   9.426  68.398  1.00  0.00    -0.205 C  
HETATM   23  C   UNL     1     -11.263  10.577  68.935  1.00  0.00    -0.266 C  
BRANCH  20  24
HETATM   24  C   UNL     1     -12.648  11.363  70.940  1.00  0.00    -0.356 C  
HETATM   25  O   UNL     1     -13.563  10.609  71.738  1.00  0.00    -0.239 OA 
HETATM   26  H   UNL     1     -14.319  11.106  72.029  1.00  0.00     0.000 HD 
ENDBRANCH  20  24
BRANCH  23  27
HETATM   27  O   UNL     1     -10.672  11.866  68.608  1.00  0.00    -0.220 OA 
BRANCH  27  28
HETATM   28  C   UNL     1     -11.605  12.791  68.037  1.00  0.00    -0.341 C  
HETATM   29  O   UNL     1     -11.559  14.034  68.721  1.00  0.00    -0.286 OA 
HETATM   30  C   UNL     1     -10.269  14.647  68.649  1.00  0.00    -0.244 C  
HETATM   31  C   UNL     1      -9.957  15.023  67.178  1.00  0.00    -0.237 C  
HETATM   32  C   UNL     1     -10.314  15.823  69.621  1.00  0.00    -0.290 C  
HETATM   33  C   UNL     1     -10.022  13.741  66.304  1.00  0.00    -0.305 C  
HETATM   34  H   UNL     1     -10.013  13.292  64.371  1.00  0.00     0.000 HD 
HETATM   35  C   UNL     1     -11.329  12.979  66.537  1.00  0.00    -0.320 C  
HETATM   36  O   UNL     1      -9.973  14.076  64.906  1.00  0.00    -0.317 OA 
HETATM   37  O   UNL     1     -11.299  11.722  65.838  1.00  0.00    -0.326 OA 
HETATM   38  H   UNL     1     -11.128  11.837  64.911  1.00  0.00     0.000 HD 
BRANCH  31  39
HETATM   39  N   UNL     1      -8.661  15.741  67.107  1.00  0.00    -0.192 NA 
HETATM   40  H   UNL     1      -7.827  15.400  67.584  1.00  0.00     0.000 HD 
BRANCH  39  41
HETATM   41  C   UNL     1      -8.650  16.994  66.295  1.00  0.00    -0.262 C  
HETATM   42  C   UNL     1      -9.321  19.188  67.366  1.00  0.00    -0.356 C  
HETATM   43  C   UNL     1      -9.616  17.985  66.871  1.00  0.00    -0.295 C  
HETATM   44  C   UNL     1      -7.924  19.742  67.298  1.00  0.00    -0.285 C  
HETATM   45  H   UNL     1      -5.483  17.123  67.206  1.00  0.00     0.000 HD 
HETATM   46  O   UNL     1      -6.383  16.823  67.246  1.00  0.00    -0.145 OA 
HETATM   47  C   UNL     1      -6.951  19.004  66.342  1.00  0.00    -0.219 C  
HETATM   48  O   UNL     1      -7.403  19.771  68.624  1.00  0.00    -0.321 OA 
HETATM   49  H   UNL     1      -6.423  19.130  64.443  1.00  0.00     0.000 HD 
HETATM   50  O   UNL     1      -7.019  19.582  65.028  1.00  0.00    -0.402 OA 
HETATM   51  C   UNL     1      -7.167  17.488  66.230  1.00  0.00    -0.316 C  
HETATM   52  H   UNL     1      -6.521  20.121  68.581  1.00  0.00     0.000 HD 
BRANCH  42  53
HETATM   53  C   UNL     1     -10.339  20.078  68.043  1.00  0.00    -0.361 C  
HETATM   54  O   UNL     1     -10.298  19.962  69.462  1.00  0.00    -0.631 OA 
HETATM   55  H   UNL     1     -10.938  20.521  69.887  1.00  0.00     0.000 HD 
ENDBRANCH  42  53
ENDBRANCH  39  41
ENDBRANCH  31  39
ENDBRANCH  27  28
ENDBRANCH  23  27
ENDBRANCH  13  14
ENDBRANCH   4  13
ENDBRANCH   1   4
BRANCH   1  56
HETATM   56  C   UNL     1      -9.808   7.108  73.884  1.00  0.00    -0.304 C  
HETATM   57  O   UNL     1     -11.159   7.564  73.781  1.00  0.00    -0.522 OA 
HETATM   58  H   UNL     1     -11.740   6.877  74.087  1.00  0.00     0.000 HD 
ENDBRANCH   1  56
TORSDOF 12
ENDMDL
MODEL       22
REMARK 921   NORMALIZED FREE ENERGY PREDICTED BY IDOCK:   -6.70 KCAL/MOL
REMARK 922        TOTAL FREE ENERGY PREDICTED BY IDOCK:  -14.59 KCAL/MOL
REMARK 923 INTER-LIGAND FREE ENERGY PREDICTED BY IDOCK:  -11.58 KCAL/MOL
REMARK 924 INTRA-LIGAND FREE ENERGY PREDICTED BY IDOCK:   -3.01 KCAL/MOL
REMARK 927      BINDING AFFINITY PREDICTED BY RF-SCORE:    0.00 PKD
ROOT
HETATM    1  C   UNL     1      -9.465   7.698  72.474  1.00  0.00    -0.169 C  
HETATM    2  H   UNL     1     -10.554   6.151  72.054  1.00  0.00     0.000 HD 
HETATM    3  O   UNL     1     -10.142   6.489  72.841  1.00  0.00    -0.172 OA 
ENDROOT
BRANCH   1   4
HETATM    4  C   UNL     1     -10.402   8.726  71.773  1.00  0.00    -0.343 C  
BRANCH   4   5
HETATM    5  C   UNL     1     -11.757   8.095  71.323  1.00  0.00    -0.279 C  
HETATM    6  O   UNL     1     -11.765   7.815  69.915  1.00  0.00    -0.461 OA 
HETATM    7  H   UNL     1     -12.589   7.430  69.641  1.00  0.00     0.000 HD 
BRANCH   5   8
HETATM    8  C   UNL     1     -12.996   8.950  71.618  1.00  0.00    -0.354 C  
HETATM    9  C   UNL     1     -12.793  10.381  71.172  1.00  0.00    -0.414 C  
HETATM   10  O   UNL     1     -13.205   8.941  73.039  1.00  0.00    -0.819 OA 
HETATM   11  O   UNL     1     -13.098  10.777  70.048  1.00  0.00    -0.093 OA 
HETATM   12  H   UNL     1     -13.972   9.470  73.222  1.00  0.00     0.000 HD 
ENDBRANCH   5   8
ENDBRANCH   4   5
BRANCH   4  13
HETATM   13  O   UNL     1      -9.774   9.373  70.639  1.00  0.00    -0.248 OA 
BRANCH  13  14
HETATM   14  C   UNL     1      -8.770   8.588  69.975  1.00  0.00    -0.136 C  
HETATM   15  H   UNL     1      -6.036  11.446  69.424  1.00  0.00     0.000 HD 
HETATM   16  O   UNL     1      -6.915   9.848  71.053  1.00  0.00    -0.333 OA 
HETATM   17  C   UNL     1      -7.478   9.405  69.808  1.00  0.00    -0.087 C  
HETATM   18  O   UNL     1      -9.163   8.127  68.691  1.00  0.00    -0.143 OA 
HETATM   19  O   UNL     1      -6.483  11.237  68.612  1.00  0.00    -0.047 OA 
HETATM   20  C   UNL     1      -9.517   9.170  67.779  1.00  0.00    -0.140 C  
HETATM   21  H   UNL     1      -6.117  10.354  70.949  1.00  0.00     0.000 HD 
HETATM   22  C   UNL     1      -7.748  10.626  68.938  1.00  0.00    -0.121 C  
HETATM   23  C   UNL     1      -8.471  10.288  67.624  1.00  0.00    -0.118 C  
BRANCH  20  24
HETATM   24  C   UNL     1      -9.861   8.502  66.427  1.00  0.00    -0.257 C  
HETATM   25  O   UNL     1     -10.145   9.428  65.377  1.00  0.00    -0.392 OA 
HETATM   26  H   UNL     1     -10.355   9.017  64.547  1.00  0.00     0.000 HD 
ENDBRANCH  20  24
BRANCH  23  27
HETATM   27  O   UNL     1      -9.191  11.447  67.117  1.00  0.00    -0.163 OA 
BRANCH  27  28
HETATM   28  C   UNL     1     -10.102  12.011  68.067  1.00  0.00    -0.198 C  
HETATM   29  O   UNL     1      -9.428  12.911  68.934  1.00  0.00     0.057 OA 
HETATM   30  C   UNL     1      -8.835  14.004  68.228  1.00  0.00    -0.184 C  
HETATM   31  C   UNL     1      -9.949  14.871  67.588  1.00  0.00    -0.226 C  
HETATM   32  C   UNL     1      -7.957  14.728  69.246  1.00  0.00    -0.103 C  
HETATM   33  C   UNL     1     -10.800  13.983  66.639  1.00  0.00    -0.297 C  
HETATM   34  H   UNL     1     -12.500  14.140  65.630  1.00  0.00     0.000 HD 
HETATM   35  C   UNL     1     -11.267  12.709  67.348  1.00  0.00    -0.290 C  
HETATM   36  O   UNL     1     -11.980  14.684  66.209  1.00  0.00    -0.348 OA 
HETATM   37  O   UNL     1     -11.917  11.833  66.410  1.00  0.00    -0.515 OA 
HETATM   38  H   UNL     1     -12.637  12.264  65.966  1.00  0.00     0.000 HD 
BRANCH  31  39
HETATM   39  N   UNL     1      -9.348  16.058  66.931  1.00  0.00    -0.219 NA 
HETATM   40  H   UNL     1      -8.917  16.004  66.007  1.00  0.00     0.000 HD 
BRANCH  39  41
HETATM   41  C   UNL     1      -9.409  17.334  67.701  1.00  0.00    -0.237 C  
HETATM   42  C   UNL     1      -7.525  19.013  67.498  1.00  0.00    -0.251 C  
HETATM   43  C   UNL     1      -8.024  17.857  67.937  1.00  0.00    -0.235 C  
HETATM   44  C   UNL     1      -8.382  20.011  66.768  1.00  0.00    -0.323 C  
HETATM   45  H   UNL     1     -11.105  18.407  65.083  1.00  0.00     0.000 HD 
HETATM   46  O   UNL     1     -10.535  17.817  65.563  1.00  0.00    -0.646 OA 
HETATM   47  C   UNL     1      -9.912  19.777  66.856  1.00  0.00    -0.415 C  
HETATM   48  O   UNL     1      -7.954  20.040  65.409  1.00  0.00    -0.435 OA 
HETATM   49  H   UNL     1     -11.388  20.320  68.050  1.00  0.00     0.000 HD 
HETATM   50  O   UNL     1     -10.450  20.464  67.997  1.00  0.00    -0.255 OA 
HETATM   51  C   UNL     1     -10.348  18.305  66.911  1.00  0.00    -0.385 C  
HETATM   52  H   UNL     1      -8.495  20.670  64.949  1.00  0.00     0.000 HD 
BRANCH  42  53
HETATM   53  C   UNL     1      -6.075  19.409  67.674  1.00  0.00    -0.202 C  
HETATM   54  O   UNL     1      -5.328  19.272  66.470  1.00  0.00    -0.158 OA 
HETATM   55  H   UNL     1      -4.417  19.520  66.581  1.00  0.00     0.000 HD 
ENDBRANCH  42  53
ENDBRANCH  39  41
ENDBRANCH  31  39
ENDBRANCH  27  28
ENDBRANCH  23  27
ENDBRANCH  13  14
ENDBRANCH   4  13
ENDBRANCH   1   4
BRANCH   1  56
HETATM   56  C   UNL     1      -8.802   8.244  73.741  1.00  0.00    -0.111 C  
HETATM   57  O   UNL     1      -7.441   8.570  73.448  1.00  0.00    -0.312 OA 
HETATM   58  H   UNL     1      -7.029   8.909  74.235  1.00  0.00     0.000 HD 
ENDBRANCH   1  56
TORSDOF 12
ENDMDL
MODEL       23
REMARK 921   NORMALIZED FREE ENERGY PREDICTED BY IDOCK:   -6.69 KCAL/MOL
REMARK 922        TOTAL FREE ENERGY PREDICTED BY IDOCK:  -14.58 KCAL/MOL
REMARK 923 INTER-LIGAND FREE ENERGY PREDICTED BY IDOCK:  -11.77 KCAL/MOL
REMARK 924 INTRA-LIGAND FREE ENERGY PREDICTED BY IDOCK:   -2.81 KCAL/MOL
REMARK 927      BINDING AFFINITY PREDICTED BY RF-SCORE:    0.00 PKD
ROOT
HETATM    1  C   UNL     1      -7.713  16.121  67.266  1.00  0.00    -0.180 C  
HETATM    2  H   UNL     1      -6.569  17.160  66.096  1.00  0.00     0.000 HD 
HETATM    3  O   UNL     1      -6.461  16.371  66.615  1.00  0.00    -0.277 OA 
ENDROOT
BRANCH   1   4
HETATM    4  C   UNL     1      -8.908  16.048  66.268  1.00  0.00    -0.344 C  
BRANCH   4   5
HETATM    5  C   UNL     1      -9.879  17.263  66.404  1.00  0.00    -0.299 C  
HETATM    6  O   UNL     1     -10.550  17.541  65.166  1.00  0.00    -0.657 OA 
HETATM    7  H   UNL     1     -11.141  18.280  65.249  1.00  0.00     0.000 HD 
BRANCH   5   8
HETATM    8  C   UNL     1      -9.215  18.569  66.858  1.00  0.00    -0.290 C  
HETATM    9  C   UNL     1     -10.059  19.284  67.890  1.00  0.00    -0.395 C  
HETATM   10  O   UNL     1      -9.086  19.418  65.706  1.00  0.00    -0.379 OA 
HETATM   11  O   UNL     1      -9.934  19.094  69.098  1.00  0.00    -0.400 OA 
HETATM   12  H   UNL     1      -8.675  20.226  65.988  1.00  0.00     0.000 HD 
ENDBRANCH   5   8
ENDBRANCH   4   5
BRANCH   4  13
HETATM   13  O   UNL     1      -9.661  14.816  66.386  1.00  0.00    -0.268 OA 
BRANCH  13  14
HETATM   14  C   UNL     1     -11.087  14.968  66.294  1.00  0.00    -0.334 C  
HETATM   15  H   UNL     1     -12.167  12.094  68.847  1.00  0.00     0.000 HD 
HETATM   16  O   UNL     1     -11.412  14.415  68.697  1.00  0.00    -0.257 OA 
HETATM   17  C   UNL     1     -11.786  14.094  67.348  1.00  0.00    -0.391 C  
HETATM   18  O   UNL     1     -11.616  14.624  65.022  1.00  0.00    -0.358 OA 
HETATM   19  O   UNL     1     -12.315  11.827  67.947  1.00  0.00    -0.399 OA 
HETATM   20  C   UNL     1     -11.334  13.281  64.616  1.00  0.00    -0.346 C  
HETATM   21  H   UNL     1     -11.844  13.874  69.349  1.00  0.00     0.000 HD 
HETATM   22  C   UNL     1     -11.469  12.626  67.095  1.00  0.00    -0.346 C  
HETATM   23  C   UNL     1     -11.710  12.195  65.639  1.00  0.00    -0.323 C  
BRANCH  20  24
HETATM   24  C   UNL     1     -12.024  13.060  63.250  1.00  0.00    -0.421 C  
HETATM   25  O   UNL     1     -12.648  11.782  63.116  1.00  0.00    -0.881 OA 
HETATM   26  H   UNL     1     -13.072  11.646  62.276  1.00  0.00     0.000 HD 
ENDBRANCH  20  24
BRANCH  23  27
HETATM   27  O   UNL     1     -10.903  11.030  65.305  1.00  0.00    -0.210 OA 
BRANCH  27  28
HETATM   28  C   UNL     1      -9.639  11.000  65.978  1.00  0.00    -0.215 C  
HETATM   29  O   UNL     1      -9.691  10.132  67.100  1.00  0.00    -0.164 OA 
HETATM   30  C   UNL     1      -9.996   8.785  66.731  1.00  0.00    -0.268 C  
HETATM   31  C   UNL     1      -8.842   8.210  65.871  1.00  0.00    -0.158 C  
HETATM   32  C   UNL     1     -10.257   8.045  68.041  1.00  0.00    -0.260 C  
HETATM   33  C   UNL     1      -8.649   9.108  64.618  1.00  0.00    -0.182 C  
HETATM   34  H   UNL     1      -7.327   9.301  63.153  1.00  0.00     0.000 HD 
HETATM   35  C   UNL     1      -8.522  10.582  65.010  1.00  0.00    -0.163 C  
HETATM   36  O   UNL     1      -7.444   8.752  63.919  1.00  0.00    -0.108 OA 
HETATM   37  O   UNL     1      -8.502  11.406  63.831  1.00  0.00    -0.241 OA 
HETATM   38  H   UNL     1      -7.811  11.148  63.232  1.00  0.00     0.000 HD 
BRANCH  31  39
HETATM   39  N   UNL     1      -9.108   6.784  65.560  1.00  0.00    -0.368 NA 
HETATM   40  H   UNL     1      -9.956   6.485  65.078  1.00  0.00     0.000 HD 
BRANCH  39  41
HETATM   41  C   UNL     1      -8.062   5.813  65.996  1.00  0.00    -0.110 C  
HETATM   42  C   UNL     1      -8.752   3.636  67.091  1.00  0.00    -0.126 C  
HETATM   43  C   UNL     1      -8.589   4.960  67.111  1.00  0.00    -0.104 C  
HETATM   44  C   UNL     1      -8.301   2.808  65.918  1.00  0.00    -0.093 C  
HETATM   45  H   UNL     1      -8.300   4.723  62.892  1.00  0.00     0.000 HD 
HETATM   46  O   UNL     1      -8.575   5.204  63.664  1.00  0.00    -0.135 OA 
HETATM   47  C   UNL     1      -7.355   3.518  64.916  1.00  0.00    -0.072 C  
HETATM   48  O   UNL     1      -9.466   2.323  65.256  1.00  0.00    -0.312 OA 
HETATM   49  H   UNL     1      -5.408   3.761  64.695  1.00  0.00     0.000 HD 
HETATM   50  O   UNL     1      -5.987   3.326  65.310  1.00  0.00    -0.018 OA 
HETATM   51  C   UNL     1      -7.610   5.020  64.725  1.00  0.00    -0.078 C  
HETATM   52  H   UNL     1      -9.181   1.801  64.515  1.00  0.00     0.000 HD 
BRANCH  42  53
HETATM   53  C   UNL     1      -9.408   2.865  68.215  1.00  0.00    -0.195 C  
HETATM   54  O   UNL     1      -9.480   1.470  67.942  1.00  0.00    -0.252 OA 
HETATM   55  H   UNL     1      -9.893   0.986  68.648  1.00  0.00     0.000 HD 
ENDBRANCH  42  53
ENDBRANCH  39  41
ENDBRANCH  31  39
ENDBRANCH  27  28
ENDBRANCH  23  27
ENDBRANCH  13  14
ENDBRANCH   4  13
ENDBRANCH   1   4
BRANCH   1  56
HETATM   56  C   UNL     1      -7.539  14.850  68.101  1.00  0.00    -0.113 C  
HETATM   57  O   UNL     1      -8.549  14.818  69.113  1.00  0.00    -0.277 OA 
HETATM   58  H   UNL     1      -8.442  14.029  69.631  1.00  0.00     0.000 HD 
ENDBRANCH   1  56
TORSDOF 12
ENDMDL
MODEL       24
REMARK 921   NORMALIZED FREE ENERGY PREDICTED BY IDOCK:   -6.68 KCAL/MOL
REMARK 922        TOTAL FREE ENERGY PREDICTED BY IDOCK:  -14.55 KCAL/MOL
REMARK 923 INTER-LIGAND FREE ENERGY PREDICTED BY IDOCK:  -12.27 KCAL/MOL
REMARK 924 INTRA-LIGAND FREE ENERGY PREDICTED BY IDOCK:   -2.29 KCAL/MOL
REMARK 927      BINDING AFFINITY PREDICTED BY RF-SCORE:    0.00 PKD
ROOT
HETATM    1  C   UNL     1     -11.833  14.397  64.605  1.00  0.00    -0.451 C  
HETATM    2  H   UNL     1     -12.980  13.596  63.264  1.00  0.00     0.000 HD 
HETATM    3  O   UNL     1     -12.563  14.442  63.372  1.00  0.00    -0.729 OA 
ENDROOT
BRANCH   1   4
HETATM    4  C   UNL     1     -10.837  13.201  64.673  1.00  0.00    -0.366 C  
BRANCH   4   5
HETATM    5  C   UNL     1     -10.981  12.229  63.460  1.00  0.00    -0.459 C  
HETATM    6  O   UNL     1     -12.198  11.470  63.536  1.00  0.00    -0.594 OA 
HETATM    7  H   UNL     1     -12.286  10.879  62.798  1.00  0.00     0.000 HD 
BRANCH   5   8
HETATM    8  C   UNL     1      -9.833  11.224  63.301  1.00  0.00    -0.389 C  
HETATM    9  C   UNL     1      -9.434  10.631  64.634  1.00  0.00    -0.258 C  
HETATM   10  O   UNL     1      -8.706  11.930  62.759  1.00  0.00    -0.602 OA 
HETATM   11  O   UNL     1      -9.938   9.603  65.082  1.00  0.00    -0.263 OA 
HETATM   12  H   UNL     1      -7.995  11.307  62.660  1.00  0.00     0.000 HD 
ENDBRANCH   5   8
ENDBRANCH   4   5
BRANCH   4  13
HETATM   13  O   UNL     1     -10.949  12.449  65.906  1.00  0.00    -0.270 OA 
BRANCH  13  14
HETATM   14  C   UNL     1     -10.947  13.246  67.102  1.00  0.00    -0.272 C  
HETATM   15  H   UNL     1      -7.118  12.775  68.134  1.00  0.00     0.000 HD 
HETATM   16  O   UNL     1      -8.628  14.050  66.695  1.00  0.00    -0.431 OA 
HETATM   17  C   UNL     1      -9.512  13.412  67.630  1.00  0.00    -0.216 C  
HETATM   18  O   UNL     1     -11.737  12.704  68.151  1.00  0.00    -0.315 OA 
HETATM   19  O   UNL     1      -7.690  12.260  68.692  1.00  0.00    -0.121 OA 
HETATM   20  C   UNL     1     -11.349  11.386  68.552  1.00  0.00    -0.271 C  
HETATM   21  H   UNL     1      -7.742  14.152  67.021  1.00  0.00     0.000 HD 
HETATM   22  C   UNL     1      -8.933  12.051  67.991  1.00  0.00    -0.187 C  
HETATM   23  C   UNL     1      -9.858  11.217  68.892  1.00  0.00    -0.139 C  
BRANCH  20  24
HETATM   24  C   UNL     1     -12.266  10.976  69.727  1.00  0.00    -0.318 C  
HETATM   25  O   UNL     1     -12.307   9.568  69.967  1.00  0.00    -0.383 OA 
HETATM   26  H   UNL     1     -12.871   9.316  70.689  1.00  0.00     0.000 HD 
ENDBRANCH  20  24
BRANCH  23  27
HETATM   27  O   UNL     1      -9.571   9.797  68.755  1.00  0.00    -0.147 OA 
BRANCH  27  28
HETATM   28  C   UNL     1      -9.186   9.171  69.985  1.00  0.00    -0.192 C  
HETATM   29  O   UNL     1     -10.061   8.097  70.295  1.00  0.00    -0.189 OA 
HETATM   30  C   UNL     1     -10.048   7.079  69.290  1.00  0.00    -0.173 C  
HETATM   31  C   UNL     1      -8.649   6.416  69.244  1.00  0.00    -0.125 C  
HETATM   32  C   UNL     1     -11.199   6.138  69.639  1.00  0.00    -0.488 C  
HETATM   33  C   UNL     1      -7.581   7.506  68.955  1.00  0.00    -0.105 C  
HETATM   34  H   UNL     1      -5.603   7.647  68.959  1.00  0.00     0.000 HD 
HETATM   35  C   UNL     1      -7.729   8.691  69.913  1.00  0.00    -0.084 C  
HETATM   36  O   UNL     1      -6.255   6.980  69.136  1.00  0.00    -0.029 OA 
HETATM   37  O   UNL     1      -6.836   9.751  69.527  1.00  0.00    -0.051 OA 
HETATM   38  H   UNL     1      -5.935   9.455  69.483  1.00  0.00     0.000 HD 
BRANCH  31  39
HETATM   39  N   UNL     1      -8.654   5.298  68.269  1.00  0.00    -0.099 NA 
HETATM   40  H   UNL     1      -8.085   4.461  68.403  1.00  0.00     0.000 HD 
BRANCH  39  41
HETATM   41  C   UNL     1      -9.541   5.469  67.081  1.00  0.00    -0.134 C  
HETATM   42  C   UNL     1      -8.522   5.981  64.820  1.00  0.00    -0.032 C  
HETATM   43  C   UNL     1      -8.866   6.334  66.060  1.00  0.00    -0.159 C  
HETATM   44  C   UNL     1      -8.890   4.635  64.257  1.00  0.00    -0.146 C  
HETATM   45  H   UNL     1      -9.251   2.191  66.850  1.00  0.00     0.000 HD 
HETATM   46  O   UNL     1      -9.021   3.061  67.156  1.00  0.00    -0.133 OA 
HETATM   47  C   UNL     1      -9.956   3.839  65.054  1.00  0.00    -0.152 C  
HETATM   48  O   UNL     1      -7.690   3.877  64.125  1.00  0.00    -0.080 OA 
HETATM   49  H   UNL     1     -11.924   3.678  65.065  1.00  0.00     0.000 HD 
HETATM   50  O   UNL     1     -11.271   4.165  64.577  1.00  0.00    -0.328 OA 
HETATM   51  C   UNL     1      -9.918   4.036  66.576  1.00  0.00    -0.073 C  
HETATM   52  H   UNL     1      -7.923   3.027  63.770  1.00  0.00     0.000 HD 
BRANCH  42  53
HETATM   53  C   UNL     1      -7.731   6.877  63.893  1.00  0.00    -0.115 C  
HETATM   54  O   UNL     1      -8.571   7.682  63.073  1.00  0.00    -0.374 OA 
HETATM   55  H   UNL     1      -8.074   8.245  62.490  1.00  0.00     0.000 HD 
ENDBRANCH  42  53
ENDBRANCH  39  41
ENDBRANCH  31  39
ENDBRANCH  27  28
ENDBRANCH  23  27
ENDBRANCH  13  14
ENDBRANCH   4  13
ENDBRANCH   1   4
BRANCH   1  56
HETATM   56  C   UNL     1     -11.160  15.761  64.779  1.00  0.00    -0.400 C  
HETATM   57  O   UNL     1     -11.480  16.582  63.654  1.00  0.00    -1.421 OA 
HETATM   58  H   UNL     1     -11.063  17.429  63.762  1.00  0.00     0.000 HD 
ENDBRANCH   1  56
TORSDOF 12
ENDMDL
MODEL       25
REMARK 921   NORMALIZED FREE ENERGY PREDICTED BY IDOCK:   -6.67 KCAL/MOL
REMARK 922        TOTAL FREE ENERGY PREDICTED BY IDOCK:  -14.54 KCAL/MOL
REMARK 923 INTER-LIGAND FREE ENERGY PREDICTED BY IDOCK:  -11.18 KCAL/MOL
REMARK 924 INTRA-LIGAND FREE ENERGY PREDICTED BY IDOCK:   -3.36 KCAL/MOL
REMARK 927      BINDING AFFINITY PREDICTED BY RF-SCORE:    0.00 PKD
ROOT
HETATM    1  C   UNL     1     -12.155  14.482  64.929  1.00  0.00    -0.416 C  
HETATM    2  H   UNL     1     -13.164  13.114  65.861  1.00  0.00     0.000 HD 
HETATM    3  O   UNL     1     -13.371  13.778  65.213  1.00  0.00    -0.710 OA 
ENDROOT
BRANCH   1   4
HETATM    4  C   UNL     1     -10.996  13.534  64.497  1.00  0.00    -0.394 C  
BRANCH   4   5
HETATM    5  C   UNL     1     -11.472  12.063  64.278  1.00  0.00    -0.361 C  
HETATM    6  O   UNL     1     -11.987  11.491  65.491  1.00  0.00    -0.125 OA 
HETATM    7  H   UNL     1     -12.277  10.597  65.358  1.00  0.00     0.000 HD 
BRANCH   5   8
HETATM    8  C   UNL     1     -10.392  11.108  63.754  1.00  0.00    -0.386 C  
HETATM    9  C   UNL     1      -9.640  10.453  64.891  1.00  0.00    -0.289 C  
HETATM   10  O   UNL     1      -9.463  11.882  62.979  1.00  0.00    -0.583 OA 
HETATM   11  O   UNL     1      -9.988   9.384  65.389  1.00  0.00    -0.235 OA 
HETATM   12  H   UNL     1      -8.795  11.291  62.654  1.00  0.00     0.000 HD 
ENDBRANCH   5   8
ENDBRANCH   4   5
BRANCH   4  13
HETATM   13  O   UNL     1      -9.888  13.546  65.429  1.00  0.00    -0.225 OA 
BRANCH  13  14
HETATM   14  C   UNL     1     -10.149  14.222  66.670  1.00  0.00    -0.273 C  
HETATM   15  H   UNL     1      -6.411  14.382  68.068  1.00  0.00     0.000 HD 
HETATM   16  O   UNL     1      -8.002  15.475  66.567  1.00  0.00    -0.299 OA 
HETATM   17  C   UNL     1      -8.827  14.605  67.357  1.00  0.00    -0.195 C  
HETATM   18  O   UNL     1     -10.911  13.453  67.590  1.00  0.00    -0.253 OA 
HETATM   19  O   UNL     1      -6.921  13.723  68.525  1.00  0.00    -0.087 OA 
HETATM   20  C   UNL     1     -10.314  12.200  67.939  1.00  0.00    -0.206 C  
HETATM   21  H   UNL     1      -7.185  15.711  66.991  1.00  0.00     0.000 HD 
HETATM   22  C   UNL     1      -8.031  13.349  67.684  1.00  0.00    -0.174 C  
HETATM   23  C   UNL     1      -8.855  12.282  68.423  1.00  0.00    -0.137 C  
BRANCH  20  24
HETATM   24  C   UNL     1     -11.237  11.526  68.980  1.00  0.00    -0.262 C  
HETATM   25  O   UNL     1     -12.094  10.522  68.431  1.00  0.00    -0.804 OA 
HETATM   26  H   UNL     1     -12.661  10.108  69.071  1.00  0.00     0.000 HD 
ENDBRANCH  20  24
BRANCH  23  27
HETATM   27  O   UNL     1      -8.288  10.958  68.220  1.00  0.00    -0.117 OA 
BRANCH  27  28
HETATM   28  C   UNL     1      -7.395  10.554  69.266  1.00  0.00    -0.113 C  
HETATM   29  O   UNL     1      -8.120  10.215  70.439  1.00  0.00    -0.146 OA 
HETATM   30  C   UNL     1      -9.025   9.129  70.224  1.00  0.00    -0.217 C  
HETATM   31  C   UNL     1      -8.222   7.844  69.900  1.00  0.00    -0.120 C  
HETATM   32  C   UNL     1      -9.887   9.054  71.481  1.00  0.00    -0.381 C  
HETATM   33  C   UNL     1      -7.341   8.099  68.647  1.00  0.00    -0.089 C  
HETATM   34  H   UNL     1      -5.872   7.178  67.685  1.00  0.00     0.000 HD 
HETATM   35  C   UNL     1      -6.518   9.380  68.803  1.00  0.00    -0.048 C  
HETATM   36  O   UNL     1      -6.410   7.021  68.452  1.00  0.00    -0.033 OA 
HETATM   37  O   UNL     1      -5.833   9.679  67.574  1.00  0.00    -0.047 OA 
HETATM   38  H   UNL     1      -5.290   8.954  67.287  1.00  0.00     0.000 HD 
BRANCH  31  39
HETATM   39  N   UNL     1      -9.149   6.693  69.766  1.00  0.00    -0.143 NA 
HETATM   40  H   UNL     1      -9.875   6.664  69.050  1.00  0.00     0.000 HD 
BRANCH  39  41
HETATM   41  C   UNL     1      -8.956   5.580  70.741  1.00  0.00    -0.142 C  
HETATM   42  C   UNL     1      -8.575   6.108  73.188  1.00  0.00    -0.117 C  
HETATM   43  C   UNL     1      -8.165   6.063  71.920  1.00  0.00    -0.115 C  
HETATM   44  C   UNL     1      -9.910   5.552  73.601  1.00  0.00    -0.169 C  
HETATM   45  H   UNL     1     -12.251   5.629  70.892  1.00  0.00     0.000 HD 
HETATM   46  O   UNL     1     -11.389   5.967  70.679  1.00  0.00    -0.311 OA 
HETATM   47  C   UNL     1     -10.613   4.643  72.561  1.00  0.00    -0.179 C  
HETATM   48  O   UNL     1     -10.746   6.650  73.958  1.00  0.00    -0.472 OA 
HETATM   49  H   UNL     1     -10.649   2.718  72.119  1.00  0.00     0.000 HD 
HETATM   50  O   UNL     1     -10.218   3.275  72.757  1.00  0.00    -0.150 OA 
HETATM   51  C   UNL     1     -10.376   5.022  71.092  1.00  0.00    -0.184 C  
HETATM   52  H   UNL     1     -11.590   6.298  74.218  1.00  0.00     0.000 HD 
BRANCH  42  53
HETATM   53  C   UNL     1      -7.758   6.728  74.301  1.00  0.00    -0.105 C  
HETATM   54  O   UNL     1      -8.074   8.101  74.502  1.00  0.00    -0.265 OA 
HETATM   55  H   UNL     1      -7.561   8.490  75.200  1.00  0.00     0.000 HD 
ENDBRANCH  42  53
ENDBRANCH  39  41
ENDBRANCH  31  39
ENDBRANCH  27  28
ENDBRANCH  23  27
ENDBRANCH  13  14
ENDBRANCH   4  13
ENDBRANCH   1   4
BRANCH   1  56
HETATM   56  C   UNL     1     -12.488  15.550  63.885  1.00  0.00     0.449 C  
HETATM   57  O   UNL     1     -11.407  16.483  63.815  1.00  0.00    -1.553 OA 
HETATM   58  H   UNL     1     -11.614  17.147  63.167  1.00  0.00     0.000 HD 
ENDBRANCH   1  56
TORSDOF 12
ENDMDL
MODEL       26
REMARK 921   NORMALIZED FREE ENERGY PREDICTED BY IDOCK:   -6.66 KCAL/MOL
REMARK 922        TOTAL FREE ENERGY PREDICTED BY IDOCK:  -14.52 KCAL/MOL
REMARK 923 INTER-LIGAND FREE ENERGY PREDICTED BY IDOCK:  -10.50 KCAL/MOL
REMARK 924 INTRA-LIGAND FREE ENERGY PREDICTED BY IDOCK:   -4.03 KCAL/MOL
REMARK 927      BINDING AFFINITY PREDICTED BY RF-SCORE:    0.00 PKD
ROOT
HETATM    1  C   UNL     1      -8.446   7.373  71.556  1.00  0.00    -0.112 C  
HETATM    2  H   UNL     1      -9.918   6.205  71.077  1.00  0.00     0.000 HD 
HETATM    3  O   UNL     1      -9.413   6.361  71.867  1.00  0.00    -0.153 OA 
ENDROOT
BRANCH   1   4
HETATM    4  C   UNL     1      -9.091   8.663  70.968  1.00  0.00    -0.199 C  
BRANCH   4   5
HETATM    5  C   UNL     1     -10.649   8.653  71.063  1.00  0.00    -0.221 C  
HETATM    6  O   UNL     1     -11.242   8.024  69.917  1.00  0.00    -0.426 OA 
HETATM    7  H   UNL     1     -12.191   8.018  69.975  1.00  0.00     0.000 HD 
BRANCH   5   8
HETATM    8  C   UNL     1     -11.294  10.039  71.199  1.00  0.00    -0.323 C  
HETATM    9  C   UNL     1     -12.803   9.948  71.158  1.00  0.00    -0.368 C  
HETATM   10  O   UNL     1     -10.854  10.836  70.089  1.00  0.00    -0.443 OA 
HETATM   11  O   UNL     1     -13.489   9.807  72.169  1.00  0.00    -0.431 OA 
HETATM   12  H   UNL     1     -11.253  11.694  70.173  1.00  0.00     0.000 HD 
ENDBRANCH   5   8
ENDBRANCH   4   5
BRANCH   4  13
HETATM   13  O   UNL     1      -8.696   8.910  69.596  1.00  0.00    -0.132 OA 
BRANCH  13  14
HETATM   14  C   UNL     1      -7.657   8.049  69.102  1.00  0.00    -0.097 C  
HETATM   15  H   UNL     1      -5.030  10.846  67.996  1.00  0.00     0.000 HD 
HETATM   16  O   UNL     1      -5.860   9.569  69.909  1.00  0.00    -0.035 OA 
HETATM   17  C   UNL     1      -6.396   8.867  68.776  1.00  0.00    -0.049 C  
HETATM   18  O   UNL     1      -8.021   7.327  67.935  1.00  0.00    -0.115 OA 
HETATM   19  O   UNL     1      -5.461  10.463  67.241  1.00  0.00    -0.041 OA 
HETATM   20  C   UNL     1      -8.407   8.155  66.833  1.00  0.00    -0.115 C  
HETATM   21  H   UNL     1      -5.081  10.075  69.708  1.00  0.00     0.000 HD 
HETATM   22  C   UNL     1      -6.705   9.879  67.681  1.00  0.00    -0.073 C  
HETATM   23  C   UNL     1      -7.403   9.260  66.460  1.00  0.00    -0.092 C  
BRANCH  20  24
HETATM   24  C   UNL     1      -8.714   7.218  65.641  1.00  0.00    -0.070 C  
HETATM   25  O   UNL     1      -8.522   7.826  64.362  1.00  0.00    -0.364 OA 
HETATM   26  H   UNL     1      -8.710   7.250  63.630  1.00  0.00     0.000 HD 
ENDBRANCH  20  24
BRANCH  23  27
HETATM   27  O   UNL     1      -8.162  10.266  65.733  1.00  0.00    -0.135 OA 
BRANCH  27  28
HETATM   28  C   UNL     1      -9.490  10.451  66.237  1.00  0.00    -0.171 C  
HETATM   29  O   UNL     1      -9.491  11.370  67.320  1.00  0.00    -0.166 OA 
HETATM   30  C   UNL     1      -9.008  12.660  66.938  1.00  0.00    -0.213 C  
HETATM   31  C   UNL     1      -9.983  13.295  65.914  1.00  0.00    -0.272 C  
HETATM   32  C   UNL     1      -8.838  13.441  68.239  1.00  0.00    -0.172 C  
HETATM   33  C   UNL     1     -10.109  12.354  64.685  1.00  0.00    -0.240 C  
HETATM   34  H   UNL     1     -11.253  12.209  63.071  1.00  0.00     0.000 HD 
HETATM   35  C   UNL     1     -10.432  10.921  65.117  1.00  0.00    -0.246 C  
HETATM   36  O   UNL     1     -11.177  12.785  63.823  1.00  0.00    -0.407 OA 
HETATM   37  O   UNL     1     -10.389  10.041  63.980  1.00  0.00    -0.385 OA 
HETATM   38  H   UNL     1     -10.971  10.331  63.288  1.00  0.00     0.000 HD 
BRANCH  31  39
HETATM   39  N   UNL     1      -9.538  14.671  65.583  1.00  0.00    -0.521 NA 
HETATM   40  H   UNL     1      -8.661  14.852  65.095  1.00  0.00     0.000 HD 
BRANCH  39  41
HETATM   41  C   UNL     1     -10.450  15.774  66.005  1.00  0.00    -0.338 C  
HETATM   42  C   UNL     1     -11.371  15.805  68.363  1.00  0.00    -0.372 C  
HETATM   43  C   UNL     1     -11.330  15.309  67.126  1.00  0.00    -0.247 C  
HETATM   44  C   UNL     1     -10.566  17.017  68.749  1.00  0.00    -0.346 C  
HETATM   45  H   UNL     1      -7.634  17.337  66.717  1.00  0.00     0.000 HD 
HETATM   46  O   UNL     1      -8.179  16.587  66.509  1.00  0.00    -0.239 OA 
HETATM   47  C   UNL     1      -9.971  17.834  67.574  1.00  0.00    -0.324 C  
HETATM   48  O   UNL     1      -9.536  16.589  69.637  1.00  0.00    -0.089 OA 
HETATM   49  H   UNL     1     -10.538  19.345  66.436  1.00  0.00     0.000 HD 
HETATM   50  O   UNL     1     -10.903  18.845  67.157  1.00  0.00    -0.444 OA 
HETATM   51  C   UNL     1      -9.553  17.009  66.348  1.00  0.00    -0.282 C  
HETATM   52  H   UNL     1      -9.028  17.354  69.881  1.00  0.00     0.000 HD 
BRANCH  42  53
HETATM   53  C   UNL     1     -12.199  15.197  69.474  1.00  0.00    -0.233 C  
HETATM   54  O   UNL     1     -11.427  14.356  70.324  1.00  0.00    -0.365 OA 
HETATM   55  H   UNL     1     -11.947  13.973  71.021  1.00  0.00     0.000 HD 
ENDBRANCH  42  53
ENDBRANCH  39  41
ENDBRANCH  31  39
ENDBRANCH  27  28
ENDBRANCH  23  27
ENDBRANCH  13  14
ENDBRANCH   4  13
ENDBRANCH   1   4
BRANCH   1  56
HETATM   56  C   UNL     1      -7.633   7.624  72.828  1.00  0.00    -0.097 C  
HETATM   57  O   UNL     1      -7.069   8.936  72.766  1.00  0.00    -0.334 OA 
HETATM   58  H   UNL     1      -6.565   9.092  73.557  1.00  0.00     0.000 HD 
ENDBRANCH   1  56
TORSDOF 12
ENDMDL
MODEL       27
REMARK 921   NORMALIZED FREE ENERGY PREDICTED BY IDOCK:   -6.65 KCAL/MOL
REMARK 922        TOTAL FREE ENERGY PREDICTED BY IDOCK:  -14.51 KCAL/MOL
REMARK 923 INTER-LIGAND FREE ENERGY PREDICTED BY IDOCK:  -11.77 KCAL/MOL
REMARK 924 INTRA-LIGAND FREE ENERGY PREDICTED BY IDOCK:   -2.74 KCAL/MOL
REMARK 927      BINDING AFFINITY PREDICTED BY RF-SCORE:    0.00 PKD
ROOT
HETATM    1  C   UNL     1     -10.696  16.392  69.339  1.00  0.00    -0.324 C  
HETATM    2  H   UNL     1      -9.004  16.054  70.223  1.00  0.00     0.000 HD 
HETATM    3  O   UNL     1      -9.814  15.569  70.113  1.00  0.00    -0.239 OA 
ENDROOT
BRANCH   1   4
HETATM    4  C   UNL     1     -10.062  16.855  67.993  1.00  0.00    -0.293 C  
BRANCH   4   5
HETATM    5  C   UNL     1     -10.113  18.404  67.806  1.00  0.00    -0.356 C  
HETATM    6  O   UNL     1     -10.731  18.765  66.562  1.00  0.00    -0.382 OA 
HETATM    7  H   UNL     1     -10.762  19.707  66.448  1.00  0.00     0.000 HD 
BRANCH   5   8
HETATM    8  C   UNL     1      -8.747  19.102  67.848  1.00  0.00    -0.305 C  
HETATM    9  C   UNL     1      -8.013  18.951  66.534  1.00  0.00    -0.277 C  
HETATM   10  O   UNL     1      -7.968  18.477  68.880  1.00  0.00    -0.292 OA 
HETATM   11  O   UNL     1      -8.118  19.763  65.617  1.00  0.00    -0.384 OA 
HETATM   12  H   UNL     1      -7.123  18.909  68.906  1.00  0.00     0.000 HD 
ENDBRANCH   5   8
ENDBRANCH   4   5
BRANCH   4  13
HETATM   13  O   UNL     1     -10.664  16.214  66.842  1.00  0.00    -0.314 OA 
BRANCH  13  14
HETATM   14  C   UNL     1      -9.745  15.873  65.791  1.00  0.00    -0.325 C  
HETATM   15  H   UNL     1     -11.569  12.588  64.437  1.00  0.00     0.000 HD 
HETATM   16  O   UNL     1     -11.568  15.030  64.321  1.00  0.00    -0.631 OA 
HETATM   17  C   UNL     1     -10.310  14.721  64.942  1.00  0.00    -0.332 C  
HETATM   18  O   UNL     1      -8.463  15.482  66.258  1.00  0.00    -0.262 OA 
HETATM   19  O   UNL     1     -10.795  12.367  64.943  1.00  0.00    -0.279 OA 
HETATM   20  C   UNL     1      -8.482  14.360  67.146  1.00  0.00    -0.208 C  
HETATM   21  H   UNL     1     -11.916  14.318  63.797  1.00  0.00     0.000 HD 
HETATM   22  C   UNL     1     -10.489  13.481  65.807  1.00  0.00    -0.291 C  
HETATM   23  C   UNL     1      -9.237  13.124  66.624  1.00  0.00    -0.215 C  
BRANCH  20  24
HETATM   24  C   UNL     1      -7.014  14.036  67.509  1.00  0.00    -0.148 C  
HETATM   25  O   UNL     1      -6.535  12.812  66.951  1.00  0.00    -0.473 OA 
HETATM   26  H   UNL     1      -5.633  12.614  67.174  1.00  0.00     0.000 HD 
ENDBRANCH  20  24
BRANCH  23  27
HETATM   27  O   UNL     1      -9.592  12.343  67.800  1.00  0.00    -0.190 OA 
BRANCH  27  28
HETATM   28  C   UNL     1     -10.102  11.041  67.486  1.00  0.00    -0.180 C  
HETATM   29  O   UNL     1      -9.153  10.039  67.820  1.00  0.00    -0.131 OA 
HETATM   30  C   UNL     1      -8.835  10.035  69.214  1.00  0.00    -0.178 C  
HETATM   31  C   UNL     1     -10.093   9.642  70.030  1.00  0.00    -0.252 C  
HETATM   32  C   UNL     1      -7.645   9.091  69.365  1.00  0.00    -0.078 C  
HETATM   33  C   UNL     1     -11.235  10.646  69.715  1.00  0.00    -0.297 C  
HETATM   34  H   UNL     1     -13.181  10.800  70.070  1.00  0.00     0.000 HD 
HETATM   35  C   UNL     1     -11.437  10.796  68.205  1.00  0.00    -0.280 C  
HETATM   36  O   UNL     1     -12.482  10.185  70.263  1.00  0.00    -0.214 OA 
HETATM   37  O   UNL     1     -12.387  11.843  67.936  1.00  0.00    -0.367 OA 
HETATM   38  H   UNL     1     -13.213  11.692  68.381  1.00  0.00     0.000 HD 
BRANCH  31  39
HETATM   39  N   UNL     1      -9.749   9.546  71.470  1.00  0.00    -0.233 NA 
HETATM   40  H   UNL     1      -9.174  10.248  71.936  1.00  0.00     0.000 HD 
BRANCH  39  41
HETATM   41  C   UNL     1     -10.294   8.361  72.196  1.00  0.00    -0.327 C  
HETATM   42  C   UNL     1     -10.035   6.050  71.196  1.00  0.00    -0.227 C  
HETATM   43  C   UNL     1     -10.595   7.260  71.225  1.00  0.00    -0.236 C  
HETATM   44  C   UNL     1      -9.065   5.609  72.258  1.00  0.00    -0.139 C  
HETATM   45  H   UNL     1      -7.366   8.405  73.715  1.00  0.00     0.000 HD 
HETATM   46  O   UNL     1      -7.994   8.632  73.039  1.00  0.00    -0.387 OA 
HETATM   47  C   UNL     1      -9.018   6.487  73.535  1.00  0.00    -0.125 C  
HETATM   48  O   UNL     1      -7.775   5.522  71.658  1.00  0.00    -0.101 OA 
HETATM   49  H   UNL     1      -9.939   6.542  75.281  1.00  0.00     0.000 HD 
HETATM   50  O   UNL     1      -9.968   6.004  74.499  1.00  0.00    -0.245 OA 
HETATM   51  C   UNL     1      -9.259   7.986  73.309  1.00  0.00    -0.278 C  
HETATM   52  H   UNL     1      -7.162   5.244  72.329  1.00  0.00     0.000 HD 
BRANCH  42  53
HETATM   53  C   UNL     1     -10.305   5.038  70.104  1.00  0.00    -0.236 C  
HETATM   54  O   UNL     1     -11.160   5.554  69.090  1.00  0.00    -0.153 OA 
HETATM   55  H   UNL     1     -11.330   4.918  68.404  1.00  0.00     0.000 HD 
ENDBRANCH  42  53
ENDBRANCH  39  41
ENDBRANCH  31  39
ENDBRANCH  27  28
ENDBRANCH  23  27
ENDBRANCH  13  14
ENDBRANCH   4  13
ENDBRANCH   1   4
BRANCH   1  56
HETATM   56  C   UNL     1     -12.000  15.611  69.161  1.00  0.00    -0.310 C  
HETATM   57  O   UNL     1     -11.689  14.231  68.956  1.00  0.00    -0.278 OA 
HETATM   58  H   UNL     1     -12.499  13.746  68.846  1.00  0.00     0.000 HD 
ENDBRANCH   1  56
TORSDOF 12
ENDMDL
MODEL       28
REMARK 921   NORMALIZED FREE ENERGY PREDICTED BY IDOCK:   -6.61 KCAL/MOL
REMARK 922        TOTAL FREE ENERGY PREDICTED BY IDOCK:  -14.45 KCAL/MOL
REMARK 923 INTER-LIGAND FREE ENERGY PREDICTED BY IDOCK:  -11.81 KCAL/MOL
REMARK 924 INTRA-LIGAND FREE ENERGY PREDICTED BY IDOCK:   -2.64 KCAL/MOL
REMARK 927      BINDING AFFINITY PREDICTED BY RF-SCORE:    0.00 PKD
ROOT
HETATM    1  C   UNL     1     -13.056  10.194  70.931  1.00  0.00    -0.335 C  
HETATM    2  H   UNL     1     -12.219  11.801  71.620  1.00  0.00     0.000 HD 
HETATM    3  O   UNL     1     -12.808  11.145  71.975  1.00  0.00    -0.375 OA 
ENDROOT
BRANCH   1   4
HETATM    4  C   UNL     1     -11.747   9.595  70.336  1.00  0.00    -0.202 C  
BRANCH   4   5
HETATM    5  C   UNL     1     -10.674   9.293  71.429  1.00  0.00    -0.362 C  
HETATM    6  O   UNL     1      -9.363   9.696  71.005  1.00  0.00    -0.303 OA 
HETATM    7  H   UNL     1      -8.710   9.512  71.670  1.00  0.00     0.000 HD 
BRANCH   5   8
HETATM    8  C   UNL     1     -10.578   7.820  71.846  1.00  0.00    -0.223 C  
HETATM    9  C   UNL     1     -11.063   6.904  70.744  1.00  0.00    -0.275 C  
HETATM   10  O   UNL     1     -11.419   7.635  72.996  1.00  0.00    -0.567 OA 
HETATM   11  O   UNL     1     -10.315   6.448  69.882  1.00  0.00    -0.178 OA 
HETATM   12  H   UNL     1     -11.359   6.723  73.255  1.00  0.00     0.000 HD 
ENDBRANCH   5   8
ENDBRANCH   4   5
BRANCH   4  13
HETATM   13  O   UNL     1     -11.164  10.435  69.310  1.00  0.00    -0.230 OA 
BRANCH  13  14
HETATM   14  C   UNL     1     -11.232   9.898  67.979  1.00  0.00    -0.061 C  
HETATM   15  H   UNL     1      -7.335   9.956  67.105  1.00  0.00     0.000 HD 
HETATM   16  O   UNL     1      -9.080   8.676  68.243  1.00  0.00    -0.141 OA 
HETATM   17  C   UNL     1      -9.817   9.616  67.445  1.00  0.00    -0.171 C  
HETATM   18  O   UNL     1     -11.885  10.752  67.051  1.00  0.00    -0.112 OA 
HETATM   19  O   UNL     1      -7.798  10.654  66.656  1.00  0.00    -0.123 OA 
HETATM   20  C   UNL     1     -11.286  12.046  66.927  1.00  0.00    -0.341 C  
HETATM   21  H   UNL     1      -8.206   8.502  67.913  1.00  0.00     0.000 HD 
HETATM   22  C   UNL     1      -9.024  10.914  67.370  1.00  0.00    -0.136 C  
HETATM   23  C   UNL     1      -9.773  12.042  66.644  1.00  0.00    -0.208 C  
BRANCH  20  24
HETATM   24  C   UNL     1     -12.080  12.817  65.847  1.00  0.00    -0.426 C  
HETATM   25  O   UNL     1     -12.546  14.098  66.275  1.00  0.00    -0.485 OA 
HETATM   26  H   UNL     1     -13.033  14.572  65.611  1.00  0.00     0.000 HD 
ENDBRANCH  20  24
BRANCH  23  27
HETATM   27  O   UNL     1      -9.282  13.345  67.067  1.00  0.00    -0.226 OA 
BRANCH  27  28
HETATM   28  C   UNL     1      -9.107  13.455  68.485  1.00  0.00    -0.077 C  
HETATM   29  O   UNL     1      -7.728  13.514  68.816  1.00  0.00    -0.119 OA 
HETATM   30  C   UNL     1      -7.075  14.642  68.228  1.00  0.00    -0.115 C  
HETATM   31  C   UNL     1      -7.656  15.946  68.831  1.00  0.00    -0.190 C  
HETATM   32  C   UNL     1      -5.583  14.428  68.467  1.00  0.00    -0.098 C  
HETATM   33  C   UNL     1      -9.187  15.984  68.575  1.00  0.00    -0.206 C  
HETATM   34  H   UNL     1     -10.737  17.075  69.160  1.00  0.00     0.000 HD 
HETATM   35  C   UNL     1      -9.855  14.683  69.027  1.00  0.00    -0.177 C  
HETATM   36  O   UNL     1      -9.800  17.053  69.317  1.00  0.00    -0.222 OA 
HETATM   37  O   UNL     1     -11.240  14.678  68.638  1.00  0.00    -0.252 OA 
HETATM   38  H   UNL     1     -11.703  15.437  68.973  1.00  0.00     0.000 HD 
BRANCH  31  39
HETATM   39  N   UNL     1      -6.921  17.119  68.296  1.00  0.00    -0.180 NA 
HETATM   40  H   UNL     1      -6.279  17.663  68.872  1.00  0.00     0.000 HD 
BRANCH  39  41
HETATM   41  C   UNL     1      -7.178  17.454  66.864  1.00  0.00    -0.196 C  
HETATM   42  C   UNL     1      -8.781  19.326  66.284  1.00  0.00    -0.333 C  
HETATM   43  C   UNL     1      -8.527  18.092  66.723  1.00  0.00    -0.273 C  
HETATM   44  C   UNL     1      -7.685  20.214  65.762  1.00  0.00    -0.179 C  
HETATM   45  H   UNL     1      -4.522  19.379  67.220  1.00  0.00     0.000 HD 
HETATM   46  O   UNL     1      -5.248  18.842  67.516  1.00  0.00    -0.160 OA 
HETATM   47  C   UNL     1      -6.338  19.512  65.452  1.00  0.00    -0.252 C  
HETATM   48  O   UNL     1      -7.499  21.271  66.700  1.00  0.00    -0.659 OA 
HETATM   49  H   UNL     1      -5.500  18.620  63.902  1.00  0.00     0.000 HD 
HETATM   50  O   UNL     1      -6.326  19.051  64.091  1.00  0.00    -0.367 OA 
HETATM   51  C   UNL     1      -5.983  18.339  66.377  1.00  0.00    -0.167 C  
HETATM   52  H   UNL     1      -6.806  21.831  66.370  1.00  0.00     0.000 HD 
BRANCH  42  53
HETATM   53  C   UNL     1     -10.165  19.938  66.289  1.00  0.00    -0.502 C  
HETATM   54  O   UNL     1     -11.022  19.326  67.247  1.00  0.00    -0.483 OA 
HETATM   55  H   UNL     1     -11.891  19.710  67.250  1.00  0.00     0.000 HD 
ENDBRANCH  42  53
ENDBRANCH  39  41
ENDBRANCH  31  39
ENDBRANCH  27  28
ENDBRANCH  23  27
ENDBRANCH  13  14
ENDBRANCH   4  13
ENDBRANCH   1   4
BRANCH   1  56
HETATM   56  C   UNL     1     -14.005   9.137  71.503  1.00  0.00    -0.244 C  
HETATM   57  O   UNL     1     -13.840   9.087  72.922  1.00  0.00    -0.874 OA 
HETATM   58  H   UNL     1     -14.429   8.431  73.278  1.00  0.00     0.000 HD 
ENDBRANCH   1  56
TORSDOF 12
ENDMDL
MODEL       29
REMARK 921   NORMALIZED FREE ENERGY PREDICTED BY IDOCK:   -6.61 KCAL/MOL
REMARK 922        TOTAL FREE ENERGY PREDICTED BY IDOCK:  -14.44 KCAL/MOL
REMARK 923 INTER-LIGAND FREE ENERGY PREDICTED BY IDOCK:  -12.17 KCAL/MOL
REMARK 924 INTRA-LIGAND FREE ENERGY PREDICTED BY IDOCK:   -2.27 KCAL/MOL
REMARK 927      BINDING AFFINITY PREDICTED BY RF-SCORE:    0.00 PKD
ROOT
HETATM    1  C   UNL     1     -12.394  14.443  65.170  1.00  0.00    -0.381 C  
HETATM    2  H   UNL     1     -13.438  13.273  64.030  1.00  0.00     0.000 HD 
HETATM    3  O   UNL     1     -12.725  13.886  63.891  1.00  0.00    -0.665 OA 
ENDROOT
BRANCH   1   4
HETATM    4  C   UNL     1     -12.077  13.354  66.238  1.00  0.00    -0.422 C  
BRANCH   4   5
HETATM    5  C   UNL     1     -11.333  13.932  67.483  1.00  0.00    -0.318 C  
HETATM    6  O   UNL     1     -11.039  12.907  68.444  1.00  0.00    -0.235 OA 
HETATM    7  H   UNL     1     -10.586  13.259  69.201  1.00  0.00     0.000 HD 
BRANCH   5   8
HETATM    8  C   UNL     1     -12.089  15.041  68.226  1.00  0.00    -0.075 C  
HETATM    9  C   UNL     1     -11.161  16.167  68.624  1.00  0.00    -0.356 C  
HETATM   10  O   UNL     1     -12.646  14.466  69.419  1.00  0.00    -0.553 OA 
HETATM   11  O   UNL     1     -10.950  17.141  67.904  1.00  0.00    -0.343 OA 
HETATM   12  H   UNL     1     -13.115  15.152  69.879  1.00  0.00     0.000 HD 
ENDBRANCH   5   8
ENDBRANCH   4   5
BRANCH   4  13
HETATM   13  O   UNL     1     -11.318  12.245  65.698  1.00  0.00    -0.323 OA 
BRANCH  13  14
HETATM   14  C   UNL     1     -10.158  12.620  64.937  1.00  0.00    -0.222 C  
HETATM   15  H   UNL     1      -9.799   9.320  62.717  1.00  0.00     0.000 HD 
HETATM   16  O   UNL     1     -10.981  11.453  62.900  1.00  0.00    -0.770 OA 
HETATM   17  C   UNL     1      -9.892  11.590  63.827  1.00  0.00    -0.319 C  
HETATM   18  O   UNL     1      -8.976  12.735  65.716  1.00  0.00     0.201 OA 
HETATM   19  O   UNL     1      -9.140   9.347  63.401  1.00  0.00    -0.198 OA 
HETATM   20  C   UNL     1      -8.620  11.540  66.417  1.00  0.00    -0.159 C  
HETATM   21  H   UNL     1     -10.817  10.815  62.214  1.00  0.00     0.000 HD 
HETATM   22  C   UNL     1      -9.608  10.227  64.444  1.00  0.00    -0.316 C  
HETATM   23  C   UNL     1      -8.541  10.271  65.549  1.00  0.00    -0.164 C  
BRANCH  20  24
HETATM   24  C   UNL     1      -7.294  11.822  67.161  1.00  0.00    -0.146 C  
HETATM   25  O   UNL     1      -6.145  11.249  66.535  1.00  0.00    -0.131 OA 
HETATM   26  H   UNL     1      -5.330  11.423  66.992  1.00  0.00     0.000 HD 
ENDBRANCH  20  24
BRANCH  23  27
HETATM   27  O   UNL     1      -8.696   9.148  66.463  1.00  0.00    -0.124 OA 
BRANCH  27  28
HETATM   28  C   UNL     1      -7.640   8.185  66.365  1.00  0.00    -0.091 C  
HETATM   29  O   UNL     1      -6.628   8.453  67.324  1.00  0.00    -0.057 OA 
HETATM   30  C   UNL     1      -7.122   8.393  68.665  1.00  0.00    -0.072 C  
HETATM   31  C   UNL     1      -7.565   6.943  68.988  1.00  0.00    -0.104 C  
HETATM   32  C   UNL     1      -5.999   8.937  69.544  1.00  0.00    -0.036 C  
HETATM   33  C   UNL     1      -8.651   6.506  67.968  1.00  0.00    -0.118 C  
HETATM   34  H   UNL     1      -9.583   4.831  67.458  1.00  0.00     0.000 HD 
HETATM   35  C   UNL     1      -8.192   6.760  66.530  1.00  0.00    -0.117 C  
HETATM   36  O   UNL     1      -8.919   5.098  68.082  1.00  0.00    -0.108 OA 
HETATM   37  O   UNL     1      -9.269   6.496  65.614  1.00  0.00    -0.369 OA 
HETATM   38  H   UNL     1      -9.610   5.616  65.716  1.00  0.00     0.000 HD 
BRANCH  31  39
HETATM   39  N   UNL     1      -7.992   6.852  70.406  1.00  0.00    -0.112 NA 
HETATM   40  H   UNL     1      -7.334   6.639  71.156  1.00  0.00     0.000 HD 
BRANCH  39  41
HETATM   41  C   UNL     1      -9.441   7.091  70.670  1.00  0.00    -0.165 C  
HETATM   42  C   UNL     1     -10.565   5.938  72.625  1.00  0.00    -0.255 C  
HETATM   43  C   UNL     1     -10.026   5.922  71.405  1.00  0.00    -0.228 C  
HETATM   44  C   UNL     1     -10.742   7.223  73.387  1.00  0.00    -0.369 C  
HETATM   45  H   UNL     1      -8.326   9.674  72.393  1.00  0.00     0.000 HD 
HETATM   46  O   UNL     1      -8.258   8.843  71.937  1.00  0.00    -0.345 OA 
HETATM   47  C   UNL     1     -10.583   8.525  72.560  1.00  0.00    -0.238 C  
HETATM   48  O   UNL     1      -9.830   7.207  74.482  1.00  0.00    -0.446 OA 
HETATM   49  H   UNL     1     -11.755   9.717  71.508  1.00  0.00     0.000 HD 
HETATM   50  O   UNL     1     -11.853   8.919  72.014  1.00  0.00    -0.346 OA 
HETATM   51  C   UNL     1      -9.554   8.458  71.423  1.00  0.00    -0.194 C  
HETATM   52  H   UNL     1      -9.942   8.019  74.963  1.00  0.00     0.000 HD 
BRANCH  42  53
HETATM   53  C   UNL     1     -11.021   4.689  73.345  1.00  0.00    -0.318 C  
HETATM   54  O   UNL     1     -10.013   4.161  74.201  1.00  0.00    -0.123 OA 
HETATM   55  H   UNL     1     -10.299   3.376  74.653  1.00  0.00     0.000 HD 
ENDBRANCH  42  53
ENDBRANCH  39  41
ENDBRANCH  31  39
ENDBRANCH  27  28
ENDBRANCH  23  27
ENDBRANCH  13  14
ENDBRANCH   4  13
ENDBRANCH   1   4
BRANCH   1  56
HETATM   56  C   UNL     1     -11.245  15.429  64.946  1.00  0.00    -0.403 C  
HETATM   57  O   UNL     1     -11.543  16.237  63.805  1.00  0.00    -1.539 OA 
HETATM   58  H   UNL     1     -10.830  16.850  63.666  1.00  0.00     0.000 HD 
ENDBRANCH   1  56
TORSDOF 12
ENDMDL
MODEL       30
REMARK 921   NORMALIZED FREE ENERGY PREDICTED BY IDOCK:   -6.57 KCAL/MOL
REMARK 922        TOTAL FREE ENERGY PREDICTED BY IDOCK:  -14.38 KCAL/MOL
REMARK 923 INTER-LIGAND FREE ENERGY PREDICTED BY IDOCK:  -10.82 KCAL/MOL
REMARK 924 INTRA-LIGAND FREE ENERGY PREDICTED BY IDOCK:   -3.56 KCAL/MOL
REMARK 927      BINDING AFFINITY PREDICTED BY RF-SCORE:    0.00 PKD
ROOT
HETATM    1  C   UNL     1     -11.383   7.555  72.336  1.00  0.00    -0.312 C  
HETATM    2  H   UNL     1     -11.921   5.715  72.046  1.00  0.00     0.000 HD 
HETATM    3  O   UNL     1     -12.213   6.560  71.722  1.00  0.00    -0.344 OA 
ENDROOT
BRANCH   1   4
HETATM    4  C   UNL     1      -9.864   7.296  72.110  1.00  0.00    -0.160 C  
BRANCH   4   5
HETATM    5  C   UNL     1      -9.003   7.637  73.367  1.00  0.00    -0.227 C  
HETATM    6  O   UNL     1      -7.973   8.588  73.057  1.00  0.00    -0.344 OA 
HETATM    7  H   UNL     1      -7.449   8.796  73.822  1.00  0.00     0.000 HD 
BRANCH   5   8
HETATM    8  C   UNL     1      -8.319   6.432  74.026  1.00  0.00    -0.115 C  
HETATM    9  C   UNL     1      -7.259   5.842  73.122  1.00  0.00    -0.090 C  
HETATM   10  O   UNL     1      -9.325   5.435  74.263  1.00  0.00    -0.127 OA 
HETATM   11  O   UNL     1      -6.085   6.204  73.150  1.00  0.00    -0.051 OA 
HETATM   12  H   UNL     1      -8.901   4.689  74.671  1.00  0.00     0.000 HD 
ENDBRANCH   5   8
ENDBRANCH   4   5
BRANCH   4  13
HETATM   13  O   UNL     1      -9.340   8.007  70.963  1.00  0.00    -0.146 OA 
BRANCH  13  14
HETATM   14  C   UNL     1      -8.710   7.177  69.973  1.00  0.00    -0.141 C  
HETATM   15  H   UNL     1      -5.785   9.662  68.872  1.00  0.00     0.000 HD 
HETATM   16  O   UNL     1      -6.441   8.013  70.555  1.00  0.00    -0.036 OA 
HETATM   17  C   UNL     1      -7.394   7.816  69.499  1.00  0.00    -0.088 C  
HETATM   18  O   UNL     1      -9.517   6.941  68.828  1.00  0.00    -0.137 OA 
HETATM   19  O   UNL     1      -6.468   9.623  68.213  1.00  0.00    -0.056 OA 
HETATM   20  C   UNL     1      -9.924   8.132  68.146  1.00  0.00    -0.186 C  
HETATM   21  H   UNL     1      -5.628   8.409  70.262  1.00  0.00     0.000 HD 
HETATM   22  C   UNL     1      -7.679   9.162  68.846  1.00  0.00    -0.083 C  
HETATM   23  C   UNL     1      -8.785   9.099  67.780  1.00  0.00    -0.121 C  
BRANCH  20  24
HETATM   24  C   UNL     1     -10.739   7.695  66.906  1.00  0.00    -0.201 C  
HETATM   25  O   UNL     1     -11.529   6.523  67.116  1.00  0.00    -0.768 OA 
HETATM   26  H   UNL     1     -12.029   6.254  66.354  1.00  0.00     0.000 HD 
ENDBRANCH  20  24
BRANCH  23  27
HETATM   27  O   UNL     1      -9.405  10.403  67.601  1.00  0.00    -0.147 OA 
BRANCH  27  28
HETATM   28  C   UNL     1      -9.622  11.105  68.831  1.00  0.00    -0.142 C  
HETATM   29  O   UNL     1      -8.594  12.059  69.051  1.00  0.00     0.120 OA 
HETATM   30  C   UNL     1      -8.537  13.044  68.016  1.00  0.00    -0.186 C  
HETATM   31  C   UNL     1      -9.836  13.889  68.034  1.00  0.00    -0.234 C  
HETATM   32  C   UNL     1      -7.251  13.829  68.263  1.00  0.00    -0.114 C  
HETATM   33  C   UNL     1     -11.056  12.946  67.847  1.00  0.00    -0.252 C  
HETATM   34  H   UNL     1     -13.031  13.073  67.979  1.00  0.00     0.000 HD 
HETATM   35  C   UNL     1     -11.005  11.776  68.833  1.00  0.00    -0.239 C  
HETATM   36  O   UNL     1     -12.285  13.651  68.093  1.00  0.00    -0.322 OA 
HETATM   37  O   UNL     1     -12.054  10.836  68.539  1.00  0.00    -0.788 OA 
HETATM   38  H   UNL     1     -12.908  11.251  68.540  1.00  0.00     0.000 HD 
BRANCH  31  39
HETATM   39  N   UNL     1      -9.746  14.972  67.024  1.00  0.00    -0.231 NA 
HETATM   40  H   UNL     1      -9.504  14.784  66.051  1.00  0.00     0.000 HD 
BRANCH  39  41
HETATM   41  C   UNL     1     -10.029  16.352  67.516  1.00  0.00    -0.250 C  
HETATM   42  C   UNL     1      -8.118  17.977  67.858  1.00  0.00    -0.243 C  
HETATM   43  C   UNL     1      -8.823  16.903  68.215  1.00  0.00    -0.228 C  
HETATM   44  C   UNL     1      -8.548  18.852  66.712  1.00  0.00    -0.299 C  
HETATM   45  H   UNL     1     -10.467  17.010  64.314  1.00  0.00     0.000 HD 
HETATM   46  O   UNL     1     -10.174  16.501  65.061  1.00  0.00    -0.564 OA 
HETATM   47  C   UNL     1      -9.997  18.636  66.205  1.00  0.00    -0.372 C  
HETATM   48  O   UNL     1      -7.612  18.671  65.653  1.00  0.00    -0.505 OA 
HETATM   49  H   UNL     1     -11.790  19.358  66.613  1.00  0.00     0.000 HD 
HETATM   50  O   UNL     1     -10.902  19.490  66.923  1.00  0.00    -0.476 OA 
HETATM   51  C   UNL     1     -10.511  17.191  66.286  1.00  0.00    -0.260 C  
HETATM   52  H   UNL     1      -7.884  19.223  64.929  1.00  0.00     0.000 HD 
BRANCH  42  53
HETATM   53  C   UNL     1      -6.837  18.395  68.548  1.00  0.00    -0.253 C  
HETATM   54  O   UNL     1      -6.642  19.805  68.515  1.00  0.00    -0.259 OA 
HETATM   55  H   UNL     1      -5.838  20.067  68.948  1.00  0.00     0.000 HD 
ENDBRANCH  42  53
ENDBRANCH  39  41
ENDBRANCH  31  39
ENDBRANCH  27  28
ENDBRANCH  23  27
ENDBRANCH  13  14
ENDBRANCH   4  13
ENDBRANCH   1   4
BRANCH   1  56
HETATM   56  C   UNL     1     -11.853   8.915  71.815  1.00  0.00    -0.358 C  
HETATM   57  O   UNL     1     -12.366   8.752  70.490  1.00  0.00    -0.482 OA 
HETATM   58  H   UNL     1     -12.658   9.596  70.166  1.00  0.00     0.000 HD 
ENDBRANCH   1  56
TORSDOF 12
ENDMDL
MODEL       31
REMARK 921   NORMALIZED FREE ENERGY PREDICTED BY IDOCK:   -6.57 KCAL/MOL
REMARK 922        TOTAL FREE ENERGY PREDICTED BY IDOCK:  -14.37 KCAL/MOL
REMARK 923 INTER-LIGAND FREE ENERGY PREDICTED BY IDOCK:  -11.48 KCAL/MOL
REMARK 924 INTRA-LIGAND FREE ENERGY PREDICTED BY IDOCK:   -2.89 KCAL/MOL
REMARK 927      BINDING AFFINITY PREDICTED BY RF-SCORE:    0.00 PKD
ROOT
HETATM    1  C   UNL     1     -11.082  14.892  69.677  1.00  0.00    -0.276 C  
HETATM    2  H   UNL     1     -11.341  13.186  68.793  1.00  0.00     0.000 HD 
HETATM    3  O   UNL     1     -11.901  13.787  69.273  1.00  0.00    -0.300 OA 
ENDROOT
BRANCH   1   4
HETATM    4  C   UNL     1     -10.337  15.559  68.483  1.00  0.00    -0.225 C  
BRANCH   4   5
HETATM    5  C   UNL     1     -10.373  17.119  68.548  1.00  0.00    -0.364 C  
HETATM    6  O   UNL     1     -11.080  17.675  67.429  1.00  0.00    -0.150 OA 
HETATM    7  H   UNL     1     -11.103  18.624  67.469  1.00  0.00     0.000 HD 
BRANCH   5   8
HETATM    8  C   UNL     1      -8.996  17.793  68.590  1.00  0.00    -0.256 C  
HETATM    9  C   UNL     1      -8.686  18.491  67.284  1.00  0.00    -0.266 C  
HETATM   10  O   UNL     1      -8.013  16.767  68.803  1.00  0.00    -0.231 OA 
HETATM   11  O   UNL     1      -8.977  19.667  67.074  1.00  0.00    -0.293 OA 
HETATM   12  H   UNL     1      -7.161  17.185  68.830  1.00  0.00     0.000 HD 
ENDBRANCH   5   8
ENDBRANCH   4   5
BRANCH   4  13
HETATM   13  O   UNL     1     -10.837  15.121  67.196  1.00  0.00    -0.307 OA 
BRANCH  13  14
HETATM   14  C   UNL     1      -9.845  15.031  66.160  1.00  0.00    -0.301 C  
HETATM   15  H   UNL     1     -11.562  12.202  63.924  1.00  0.00     0.000 HD 
HETATM   16  O   UNL     1     -11.557  14.600  64.407  1.00  0.00    -0.560 OA 
HETATM   17  C   UNL     1     -10.345  14.129  65.019  1.00  0.00    -0.418 C  
HETATM   18  O   UNL     1      -8.599  14.518  66.607  1.00  0.00    -0.188 OA 
HETATM   19  O   UNL     1     -10.826  11.853  64.413  1.00  0.00    -0.295 OA 
HETATM   20  C   UNL     1      -8.680  13.214  67.192  1.00  0.00    -0.213 C  
HETATM   21  H   UNL     1     -11.866  14.042  63.702  1.00  0.00     0.000 HD 
HETATM   22  C   UNL     1     -10.584  12.719  65.542  1.00  0.00    -0.281 C  
HETATM   23  C   UNL     1      -9.394  12.155  66.333  1.00  0.00    -0.224 C  
BRANCH  20  24
HETATM   24  C   UNL     1      -7.241  12.789  67.566  1.00  0.00    -0.154 C  
HETATM   25  O   UNL     1      -7.060  12.518  68.957  1.00  0.00    -0.175 OA 
HETATM   26  H   UNL     1      -6.176  12.257  69.187  1.00  0.00     0.000 HD 
ENDBRANCH  20  24
BRANCH  23  27
HETATM   27  O   UNL     1      -9.830  11.117  67.256  1.00  0.00    -0.173 OA 
BRANCH  27  28
HETATM   28  C   UNL     1      -8.949   9.989  67.303  1.00  0.00    -0.135 C  
HETATM   29  O   UNL     1      -8.605   9.679  68.645  1.00  0.00    -0.116 OA 
HETATM   30  C   UNL     1      -9.748   9.345  69.436  1.00  0.00    -0.177 C  
HETATM   31  C   UNL     1     -10.380   8.034  68.903  1.00  0.00    -0.209 C  
HETATM   32  C   UNL     1      -9.251   9.284  70.878  1.00  0.00    -0.300 C  
HETATM   33  C   UNL     1     -10.764   8.227  67.411  1.00  0.00    -0.166 C  
HETATM   34  H   UNL     1     -11.368   7.090  65.902  1.00  0.00     0.000 HD 
HETATM   35  C   UNL     1      -9.585   8.777  66.604  1.00  0.00    -0.220 C  
HETATM   36  O   UNL     1     -11.133   6.971  66.815  1.00  0.00    -0.289 OA 
HETATM   37  O   UNL     1     -10.008   9.094  65.266  1.00  0.00    -0.397 OA 
HETATM   38  H   UNL     1     -10.401   8.346  64.834  1.00  0.00     0.000 HD 
BRANCH  31  39
HETATM   39  N   UNL     1     -11.511   7.631  69.774  1.00  0.00    -0.459 NA 
HETATM   40  H   UNL     1     -12.346   8.208  69.876  1.00  0.00     0.000 HD 
BRANCH  39  41
HETATM   41  C   UNL     1     -11.355   6.332  70.492  1.00  0.00    -0.361 C  
HETATM   42  C   UNL     1      -9.150   5.769  71.601  1.00  0.00    -0.152 C  
HETATM   43  C   UNL     1      -9.911   5.932  70.518  1.00  0.00    -0.243 C  
HETATM   44  C   UNL     1      -9.726   5.877  72.987  1.00  0.00    -0.155 C  
HETATM   45  H   UNL     1     -12.603   8.010  73.043  1.00  0.00     0.000 HD 
HETATM   46  O   UNL     1     -12.204   7.907  72.187  1.00  0.00    -0.309 OA 
HETATM   47  C   UNL     1     -11.273   5.848  73.079  1.00  0.00    -0.221 C  
HETATM   48  O   UNL     1      -9.208   7.064  73.581  1.00  0.00    -0.149 OA 
HETATM   49  H   UNL     1     -12.681   4.477  73.276  1.00  0.00     0.000 HD 
HETATM   50  O   UNL     1     -11.732   4.494  73.220  1.00  0.00    -0.262 OA 
HETATM   51  C   UNL     1     -12.012   6.502  71.902  1.00  0.00    -0.341 C  
HETATM   52  H   UNL     1      -9.572   7.132  74.456  1.00  0.00     0.000 HD 
BRANCH  42  53
HETATM   53  C   UNL     1      -7.666   5.485  71.536  1.00  0.00    -0.106 C  
HETATM   54  O   UNL     1      -6.889   6.545  72.086  1.00  0.00    -0.066 OA 
HETATM   55  H   UNL     1      -5.957   6.367  72.044  1.00  0.00     0.000 HD 
ENDBRANCH  42  53
ENDBRANCH  39  41
ENDBRANCH  31  39
ENDBRANCH  27  28
ENDBRANCH  23  27
ENDBRANCH  13  14
ENDBRANCH   4  13
ENDBRANCH   1   4
BRANCH   1  56
HETATM   56  C   UNL     1     -11.983  15.859  70.450  1.00  0.00    -0.313 C  
HETATM   57  O   UNL     1     -13.349  15.552  70.158  1.00  0.00    -0.691 OA 
HETATM   58  H   UNL     1     -13.908  16.152  70.638  1.00  0.00     0.000 HD 
ENDBRANCH   1  56
TORSDOF 12
ENDMDL
MODEL       32
REMARK 921   NORMALIZED FREE ENERGY PREDICTED BY IDOCK:   -6.57 KCAL/MOL
REMARK 922        TOTAL FREE ENERGY PREDICTED BY IDOCK:  -14.37 KCAL/MOL
REMARK 923 INTER-LIGAND FREE ENERGY PREDICTED BY IDOCK:  -10.54 KCAL/MOL
REMARK 924 INTRA-LIGAND FREE ENERGY PREDICTED BY IDOCK:   -3.83 KCAL/MOL
REMARK 927      BINDING AFFINITY PREDICTED BY RF-SCORE:    0.00 PKD
ROOT
HETATM    1  C   UNL     1      -9.168   5.405  71.077  1.00  0.00    -0.148 C  
HETATM    2  H   UNL     1     -10.514   4.528  69.991  1.00  0.00     0.000 HD 
HETATM    3  O   UNL     1     -10.122   4.361  70.841  1.00  0.00    -0.198 OA 
ENDROOT
BRANCH   1   4
HETATM    4  C   UNL     1      -9.788   6.828  70.949  1.00  0.00    -0.186 C  
BRANCH   4   5
HETATM    5  C   UNL     1     -11.258   6.799  70.423  1.00  0.00    -0.328 C  
HETATM    6  O   UNL     1     -11.454   7.742  69.359  1.00  0.00    -0.397 OA 
HETATM    7  H   UNL     1     -12.348   7.724  69.038  1.00  0.00     0.000 HD 
BRANCH   5   8
HETATM    8  C   UNL     1     -12.327   7.089  71.484  1.00  0.00    -0.379 C  
HETATM    9  C   UNL     1     -12.064   8.404  72.183  1.00  0.00    -0.373 C  
HETATM   10  O   UNL     1     -12.273   6.035  72.458  1.00  0.00    -0.533 OA 
HETATM   11  O   UNL     1     -12.527   9.472  71.787  1.00  0.00    -0.356 OA 
HETATM   12  H   UNL     1     -12.936   6.214  73.115  1.00  0.00     0.000 HD 
ENDBRANCH   5   8
ENDBRANCH   4   5
BRANCH   4  13
HETATM   13  O   UNL     1      -8.997   7.710  70.115  1.00  0.00    -0.145 OA 
BRANCH  13  14
HETATM   14  C   UNL     1      -7.940   7.064  69.386  1.00  0.00    -0.118 C  
HETATM   15  H   UNL     1      -5.260  10.024  69.462  1.00  0.00     0.000 HD 
HETATM   16  O   UNL     1      -6.176   8.162  70.755  1.00  0.00    -0.033 OA 
HETATM   17  C   UNL     1      -6.664   7.922  69.426  1.00  0.00    -0.039 C  
HETATM   18  O   UNL     1      -8.256   6.816  68.024  1.00  0.00    -0.113 OA 
HETATM   19  O   UNL     1      -5.660   9.945  68.604  1.00  0.00    -0.036 OA 
HETATM   20  C   UNL     1      -8.592   7.990  67.278  1.00  0.00    -0.124 C  
HETATM   21  H   UNL     1      -5.388   8.692  70.779  1.00  0.00     0.000 HD 
HETATM   22  C   UNL     1      -6.923   9.265  68.756  1.00  0.00    -0.061 C  
HETATM   23  C   UNL     1      -7.569   9.137  67.367  1.00  0.00    -0.085 C  
BRANCH  20  24
HETATM   24  C   UNL     1      -8.849   7.549  65.819  1.00  0.00    -0.090 C  
HETATM   25  O   UNL     1      -9.410   8.572  64.994  1.00  0.00    -0.394 OA 
HETATM   26  H   UNL     1      -9.568   8.301  64.098  1.00  0.00     0.000 HD 
ENDBRANCH  20  24
BRANCH  23  27
HETATM   27  O   UNL     1      -8.294  10.350  67.020  1.00  0.00    -0.125 OA 
BRANCH  27  28
HETATM   28  C   UNL     1      -9.107  10.853  68.088  1.00  0.00    -0.155 C  
HETATM   29  O   UNL     1      -8.616  12.105  68.543  1.00  0.00    -0.153 OA 
HETATM   30  C   UNL     1      -8.622  13.098  67.514  1.00  0.00    -0.196 C  
HETATM   31  C   UNL     1     -10.083  13.402  67.098  1.00  0.00    -0.240 C  
HETATM   32  C   UNL     1      -7.850  14.286  68.081  1.00  0.00    -0.139 C  
HETATM   33  C   UNL     1     -10.757  12.088  66.617  1.00  0.00    -0.245 C  
HETATM   34  H   UNL     1     -12.584  11.472  66.152  1.00  0.00     0.000 HD 
HETATM   35  C   UNL     1     -10.573  10.967  67.642  1.00  0.00    -0.224 C  
HETATM   36  O   UNL     1     -12.172  12.276  66.446  1.00  0.00    -0.613 OA 
HETATM   37  O   UNL     1     -11.066   9.725  67.108  1.00  0.00    -0.237 OA 
HETATM   38  H   UNL     1     -11.972   9.795  66.833  1.00  0.00     0.000 HD 
BRANCH  31  39
HETATM   39  N   UNL     1     -10.103  14.497  66.097  1.00  0.00    -0.291 NA 
HETATM   40  H   UNL     1      -9.631  14.414  65.196  1.00  0.00     0.000 HD 
BRANCH  39  41
HETATM   41  C   UNL     1     -10.855  15.727  66.485  1.00  0.00    -0.230 C  
HETATM   42  C   UNL     1     -10.919  16.442  68.913  1.00  0.00    -0.332 C  
HETATM   43  C   UNL     1     -11.284  15.632  67.918  1.00  0.00    -0.328 C  
HETATM   44  C   UNL     1     -10.073  17.661  68.662  1.00  0.00    -0.377 C  
HETATM   45  H   UNL     1      -8.019  17.248  65.757  1.00  0.00     0.000 HD 
HETATM   46  O   UNL     1      -8.576  16.504  65.956  1.00  0.00    -0.398 OA 
HETATM   47  C   UNL     1      -9.942  18.097  67.180  1.00  0.00    -0.336 C  
HETATM   48  O   UNL     1      -8.790  17.423  69.233  1.00  0.00    -0.007 OA 
HETATM   49  H   UNL     1     -10.912  19.282  65.934  1.00  0.00     0.000 HD 
HETATM   50  O   UNL     1     -10.994  19.015  66.842  1.00  0.00    -0.364 OA 
HETATM   51  C   UNL     1      -9.937  16.951  66.157  1.00  0.00    -0.315 C  
HETATM   52  H   UNL     1      -8.255  18.192  69.074  1.00  0.00     0.000 HD 
BRANCH  42  53
HETATM   53  C   UNL     1     -11.300  16.203  70.357  1.00  0.00    -0.363 C  
HETATM   54  O   UNL     1     -10.869  14.930  70.825  1.00  0.00    -0.514 OA 
HETATM   55  H   UNL     1     -11.108  14.780  71.733  1.00  0.00     0.000 HD 
ENDBRANCH  42  53
ENDBRANCH  39  41
ENDBRANCH  31  39
ENDBRANCH  27  28
ENDBRANCH  23  27
ENDBRANCH  13  14
ENDBRANCH   4  13
ENDBRANCH   1   4
BRANCH   1  56
HETATM   56  C   UNL     1      -8.537   5.135  72.445  1.00  0.00    -0.125 C  
HETATM   57  O   UNL     1      -7.545   6.132  72.702  1.00  0.00    -0.099 OA 
HETATM   58  H   UNL     1      -7.153   5.966  73.552  1.00  0.00     0.000 HD 
ENDBRANCH   1  56
TORSDOF 12
ENDMDL
MODEL       33
REMARK 921   NORMALIZED FREE ENERGY PREDICTED BY IDOCK:   -6.57 KCAL/MOL
REMARK 922        TOTAL FREE ENERGY PREDICTED BY IDOCK:  -14.37 KCAL/MOL
REMARK 923 INTER-LIGAND FREE ENERGY PREDICTED BY IDOCK:  -11.59 KCAL/MOL
REMARK 924 INTRA-LIGAND FREE ENERGY PREDICTED BY IDOCK:   -2.78 KCAL/MOL
REMARK 927      BINDING AFFINITY PREDICTED BY RF-SCORE:    0.00 PKD
ROOT
HETATM    1  C   UNL     1      -6.776  16.041  67.506  1.00  0.00    -0.175 C  
HETATM    2  H   UNL     1      -5.915  17.417  66.447  1.00  0.00     0.000 HD 
HETATM    3  O   UNL     1      -5.778  16.485  66.578  1.00  0.00    -0.314 OA 
ENDROOT
BRANCH   1   4
HETATM    4  C   UNL     1      -8.223  16.398  67.054  1.00  0.00    -0.198 C  
BRANCH   4   5
HETATM    5  C   UNL     1      -8.428  17.933  66.851  1.00  0.00    -0.244 C  
HETATM    6  O   UNL     1      -7.778  18.397  65.658  1.00  0.00    -0.518 OA 
HETATM    7  H   UNL     1      -7.902  19.331  65.535  1.00  0.00     0.000 HD 
BRANCH   5   8
HETATM    8  C   UNL     1      -7.923  18.807  68.007  1.00  0.00    -0.281 C  
HETATM    9  C   UNL     1      -8.956  19.837  68.408  1.00  0.00    -0.262 C  
HETATM   10  O   UNL     1      -6.746  19.494  67.554  1.00  0.00    -0.207 OA 
HETATM   11  O   UNL     1      -9.806  19.625  69.271  1.00  0.00    -0.416 OA 
HETATM   12  H   UNL     1      -6.434  20.034  68.270  1.00  0.00     0.000 HD 
ENDBRANCH   5   8
ENDBRANCH   4   5
BRANCH   4  13
HETATM   13  O   UNL     1      -9.233  15.896  67.962  1.00  0.00    -0.191 OA 
BRANCH  13  14
HETATM   14  C   UNL     1     -10.588  16.195  67.586  1.00  0.00    -0.315 C  
HETATM   15  H   UNL     1     -12.370  15.409  71.072  1.00  0.00     0.000 HD 
HETATM   16  O   UNL     1     -11.126  17.112  69.835  1.00  0.00    -0.311 OA 
HETATM   17  C   UNL     1     -11.503  16.167  68.821  1.00  0.00    -0.340 C  
HETATM   18  O   UNL     1     -11.125  15.298  66.625  1.00  0.00    -0.324 OA 
HETATM   19  O   UNL     1     -12.535  14.719  70.439  1.00  0.00    -0.322 OA 
HETATM   20  C   UNL     1     -11.123  13.929  67.040  1.00  0.00    -0.301 C  
HETATM   21  H   UNL     1     -11.691  17.094  70.599  1.00  0.00     0.000 HD 
HETATM   22  C   UNL     1     -11.501  14.773  69.435  1.00  0.00    -0.301 C  
HETATM   23  C   UNL     1     -11.767  13.658  68.411  1.00  0.00    -0.358 C  
BRANCH  20  24
HETATM   24  C   UNL     1     -11.787  13.107  65.911  1.00  0.00    -0.406 C  
HETATM   25  O   UNL     1     -13.039  13.634  65.469  1.00  0.00    -0.639 OA 
HETATM   26  H   UNL     1     -13.447  13.128  64.775  1.00  0.00     0.000 HD 
ENDBRANCH  20  24
BRANCH  23  27
HETATM   27  O   UNL     1     -11.219  12.391  68.871  1.00  0.00    -0.249 OA 
BRANCH  27  28
HETATM   28  C   UNL     1     -12.163  11.314  68.832  1.00  0.00    -0.093 C  
HETATM   29  O   UNL     1     -11.813  10.379  67.823  1.00  0.00    -0.240 OA 
HETATM   30  C   UNL     1     -10.527   9.796  68.046  1.00  0.00    -0.226 C  
HETATM   31  C   UNL     1     -10.562   8.946  69.342  1.00  0.00    -0.217 C  
HETATM   32  C   UNL     1     -10.198   9.019  66.773  1.00  0.00    -0.341 C  
HETATM   33  C   UNL     1     -10.981   9.854  70.530  1.00  0.00    -0.326 C  
HETATM   34  H   UNL     1     -11.511   9.619  72.427  1.00  0.00     0.000 HD 
HETATM   35  C   UNL     1     -12.259  10.632  70.206  1.00  0.00    -0.334 C  
HETATM   36  O   UNL     1     -11.255   9.064  71.700  1.00  0.00    -0.312 OA 
HETATM   37  O   UNL     1     -12.540  11.577  71.253  1.00  0.00    -0.383 OA 
HETATM   38  H   UNL     1     -12.600  11.156  72.101  1.00  0.00     0.000 HD 
BRANCH  31  39
HETATM   39  N   UNL     1      -9.258   8.263  69.530  1.00  0.00    -0.157 NA 
HETATM   40  H   UNL     1      -8.374   8.773  69.516  1.00  0.00     0.000 HD 
BRANCH  39  41
HETATM   41  C   UNL     1      -9.316   6.787  69.741  1.00  0.00    -0.145 C  
HETATM   42  C   UNL     1      -9.440   5.239  67.742  1.00  0.00    -0.141 C  
HETATM   43  C   UNL     1      -9.985   6.129  68.572  1.00  0.00    -0.173 C  
HETATM   44  C   UNL     1      -8.054   4.699  67.970  1.00  0.00    -0.088 C  
HETATM   45  H   UNL     1      -6.027   7.031  69.780  1.00  0.00     0.000 HD 
HETATM   46  O   UNL     1      -6.915   7.326  69.613  1.00  0.00    -0.052 OA 
HETATM   47  C   UNL     1      -7.448   4.969  69.371  1.00  0.00    -0.057 C  
HETATM   48  O   UNL     1      -7.211   5.221  66.947  1.00  0.00    -0.075 OA 
HETATM   49  H   UNL     1      -7.414   4.064  71.126  1.00  0.00     0.000 HD 
HETATM   50  O   UNL     1      -7.786   3.898  70.268  1.00  0.00    -0.048 OA 
HETATM   51  C   UNL     1      -7.854   6.302  70.015  1.00  0.00    -0.106 C  
HETATM   52  H   UNL     1      -6.336   4.880  67.091  1.00  0.00     0.000 HD 
BRANCH  42  53
HETATM   53  C   UNL     1     -10.145   4.716  66.509  1.00  0.00    -0.250 C  
HETATM   54  O   UNL     1     -11.375   5.390  66.265  1.00  0.00    -0.654 OA 
HETATM   55  H   UNL     1     -11.818   5.061  65.491  1.00  0.00     0.000 HD 
ENDBRANCH  42  53
ENDBRANCH  39  41
ENDBRANCH  31  39
ENDBRANCH  27  28
ENDBRANCH  23  27
ENDBRANCH  13  14
ENDBRANCH   4  13
ENDBRANCH   1   4
BRANCH   1  56
HETATM   56  C   UNL     1      -6.557  14.541  67.716  1.00  0.00    -0.172 C  
HETATM   57  O   UNL     1      -5.180  14.236  67.481  1.00  0.00    -0.328 OA 
HETATM   58  H   UNL     1      -5.044  13.304  67.611  1.00  0.00     0.000 HD 
ENDBRANCH   1  56
TORSDOF 12
ENDMDL
MODEL       34
REMARK 921   NORMALIZED FREE ENERGY PREDICTED BY IDOCK:   -6.57 KCAL/MOL
REMARK 922        TOTAL FREE ENERGY PREDICTED BY IDOCK:  -14.36 KCAL/MOL
REMARK 923 INTER-LIGAND FREE ENERGY PREDICTED BY IDOCK:  -10.47 KCAL/MOL
REMARK 924 INTRA-LIGAND FREE ENERGY PREDICTED BY IDOCK:   -3.89 KCAL/MOL
REMARK 927      BINDING AFFINITY PREDICTED BY RF-SCORE:    0.00 PKD
ROOT
HETATM    1  C   UNL     1      -9.414  17.131  67.449  1.00  0.00    -0.247 C  
HETATM    2  H   UNL     1     -10.539  18.285  68.527  1.00  0.00     0.000 HD 
HETATM    3  O   UNL     1     -10.534  18.010  67.617  1.00  0.00    -0.379 OA 
ENDROOT
BRANCH   1   4
HETATM    4  C   UNL     1      -9.425  15.942  68.456  1.00  0.00    -0.209 C  
BRANCH   4   5
HETATM    5  C   UNL     1      -7.997  15.579  68.972  1.00  0.00    -0.205 C  
HETATM    6  O   UNL     1      -7.036  16.584  68.614  1.00  0.00    -0.156 OA 
HETATM    7  H   UNL     1      -6.167  16.363  68.928  1.00  0.00     0.000 HD 
BRANCH   5   8
HETATM    8  C   UNL     1      -7.452  14.237  68.465  1.00  0.00    -0.121 C  
HETATM    9  C   UNL     1      -6.163  13.868  69.165  1.00  0.00    -0.098 C  
HETATM   10  O   UNL     1      -7.185  14.376  67.060  1.00  0.00    -0.348 OA 
HETATM   11  O   UNL     1      -6.134  13.203  70.198  1.00  0.00    -0.144 OA 
HETATM   12  H   UNL     1      -6.848  13.545  66.746  1.00  0.00     0.000 HD 
ENDBRANCH   5   8
ENDBRANCH   4   5
BRANCH   4  13
HETATM   13  O   UNL     1     -10.055  14.756  67.913  1.00  0.00    -0.219 OA 
BRANCH  13  14
HETATM   14  C   UNL     1     -11.488  14.733  68.016  1.00  0.00    -0.331 C  
HETATM   15  H   UNL     1     -11.906  11.200  69.829  1.00  0.00     0.000 HD 
HETATM   16  O   UNL     1     -11.423  13.566  70.212  1.00  0.00    -0.506 OA 
HETATM   17  C   UNL     1     -11.942  13.540  68.873  1.00  0.00    -0.341 C  
HETATM   18  O   UNL     1     -12.149  14.645  66.761  1.00  0.00    -0.353 OA 
HETATM   19  O   UNL     1     -12.149  11.145  68.912  1.00  0.00    -0.475 OA 
HETATM   20  C   UNL     1     -11.788  13.494  65.991  1.00  0.00    -0.379 C  
HETATM   21  H   UNL     1     -11.703  12.828  70.741  1.00  0.00     0.000 HD 
HETATM   22  C   UNL     1     -11.514  12.236  68.213  1.00  0.00    -0.315 C  
HETATM   23  C   UNL     1     -11.906  12.148  66.729  1.00  0.00    -0.228 C  
BRANCH  20  24
HETATM   24  C   UNL     1     -12.632  13.525  64.696  1.00  0.00    -0.251 C  
HETATM   25  O   UNL     1     -13.284  12.289  64.399  1.00  0.00    -0.806 OA 
HETATM   26  H   UNL     1     -13.803  12.309  63.604  1.00  0.00     0.000 HD 
ENDBRANCH  20  24
BRANCH  23  27
HETATM   27  O   UNL     1     -11.037  11.222  66.019  1.00  0.00    -0.228 OA 
BRANCH  27  28
HETATM   28  C   UNL     1      -9.933  11.862  65.368  1.00  0.00    -0.252 C  
HETATM   29  O   UNL     1      -8.794  11.876  66.216  1.00  0.00    -0.186 OA 
HETATM   30  C   UNL     1      -8.362  10.560  66.569  1.00  0.00    -0.141 C  
HETATM   31  C   UNL     1      -7.869   9.820  65.299  1.00  0.00    -0.120 C  
HETATM   32  C   UNL     1      -7.309  10.748  67.658  1.00  0.00    -0.094 C  
HETATM   33  C   UNL     1      -9.022   9.775  64.260  1.00  0.00    -0.237 C  
HETATM   34  H   UNL     1      -9.246   9.284  62.351  1.00  0.00     0.000 HD 
HETATM   35  C   UNL     1      -9.616  11.168  64.034  1.00  0.00    -0.254 C  
HETATM   36  O   UNL     1      -8.540   9.311  62.987  1.00  0.00    -0.203 OA 
HETATM   37  O   UNL     1     -10.778  11.077  63.191  1.00  0.00    -0.752 OA 
HETATM   38  H   UNL     1     -10.583  10.649  62.367  1.00  0.00     0.000 HD 
BRANCH  31  39
HETATM   39  N   UNL     1      -7.333   8.487  65.670  1.00  0.00    -0.082 NA 
HETATM   40  H   UNL     1      -6.331   8.296  65.696  1.00  0.00     0.000 HD 
BRANCH  39  41
HETATM   41  C   UNL     1      -8.346   7.443  66.003  1.00  0.00    -0.143 C  
HETATM   42  C   UNL     1      -8.017   5.071  65.184  1.00  0.00    -0.103 C  
HETATM   43  C   UNL     1      -8.315   6.354  64.974  1.00  0.00    -0.087 C  
HETATM   44  C   UNL     1      -7.769   4.539  66.569  1.00  0.00    -0.094 C  
HETATM   45  H   UNL     1      -6.559   7.106  68.755  1.00  0.00     0.000 HD 
HETATM   46  O   UNL     1      -6.734   7.393  67.866  1.00  0.00    -0.057 OA 
HETATM   47  C   UNL     1      -8.204   5.465  67.735  1.00  0.00    -0.100 C  
HETATM   48  O   UNL     1      -6.384   4.219  66.670  1.00  0.00    -0.035 OA 
HETATM   49  H   UNL     1      -9.833   5.757  68.813  1.00  0.00     0.000 HD 
HETATM   50  O   UNL     1      -9.566   5.189  68.099  1.00  0.00    -0.123 OA 
HETATM   51  C   UNL     1      -8.057   6.969  67.466  1.00  0.00    -0.113 C  
HETATM   52  H   UNL     1      -6.228   3.883  67.545  1.00  0.00     0.000 HD 
BRANCH  42  53
HETATM   53  C   UNL     1      -7.886   4.058  64.068  1.00  0.00    -0.084 C  
HETATM   54  O   UNL     1      -6.527   3.737  63.787  1.00  0.00    -0.031 OA 
HETATM   55  H   UNL     1      -6.445   3.101  63.086  1.00  0.00     0.000 HD 
ENDBRANCH  42  53
ENDBRANCH  39  41
ENDBRANCH  31  39
ENDBRANCH  27  28
ENDBRANCH  23  27
ENDBRANCH  13  14
ENDBRANCH   4  13
ENDBRANCH   1   4
BRANCH   1  56
HETATM   56  C   UNL     1      -9.405  16.689  65.984  1.00  0.00    -0.235 C  
HETATM   57  O   UNL     1     -10.639  17.077  65.376  1.00  0.00    -0.601 OA 
HETATM   58  H   UNL     1     -10.634  16.803  64.466  1.00  0.00     0.000 HD 
ENDBRANCH   1  56
TORSDOF 12
ENDMDL
MODEL       35
REMARK 921   NORMALIZED FREE ENERGY PREDICTED BY IDOCK:   -6.52 KCAL/MOL
REMARK 922        TOTAL FREE ENERGY PREDICTED BY IDOCK:  -14.28 KCAL/MOL
REMARK 923 INTER-LIGAND FREE ENERGY PREDICTED BY IDOCK:  -11.94 KCAL/MOL
REMARK 924 INTRA-LIGAND FREE ENERGY PREDICTED BY IDOCK:   -2.34 KCAL/MOL
REMARK 927      BINDING AFFINITY PREDICTED BY RF-SCORE:    0.00 PKD
ROOT
HETATM    1  C   UNL     1      -8.198   6.595  65.432  1.00  0.00    -0.138 C  
HETATM    2  H   UNL     1      -8.453   4.685  65.221  1.00  0.00     0.000 HD 
HETATM    3  O   UNL     1      -7.704   5.269  65.201  1.00  0.00    -0.080 OA 
ENDROOT
BRANCH   1   4
HETATM    4  C   UNL     1      -9.038   6.707  66.740  1.00  0.00    -0.142 C  
BRANCH   4   5
HETATM    5  C   UNL     1     -10.194   5.660  66.803  1.00  0.00    -0.230 C  
HETATM    6  O   UNL     1     -11.435   6.269  67.190  1.00  0.00    -0.652 OA 
HETATM    7  H   UNL     1     -12.139   5.632  67.228  1.00  0.00     0.000 HD 
BRANCH   5   8
HETATM    8  C   UNL     1      -9.950   4.488  67.763  1.00  0.00    -0.066 C  
HETATM    9  C   UNL     1      -9.343   4.963  69.065  1.00  0.00    -0.129 C  
HETATM   10  O   UNL     1      -9.025   3.589  67.130  1.00  0.00    -0.124 OA 
HETATM   11  O   UNL     1     -10.024   5.289  70.035  1.00  0.00    -0.201 OA 
HETATM   12  H   UNL     1      -8.874   2.864  67.724  1.00  0.00     0.000 HD 
ENDBRANCH   5   8
ENDBRANCH   4   5
BRANCH   4  13
HETATM   13  O   UNL     1      -9.580   8.034  66.944  1.00  0.00    -0.173 OA 
BRANCH  13  14
HETATM   14  C   UNL     1      -9.111   8.704  68.126  1.00  0.00    -0.141 C  
HETATM   15  H   UNL     1     -12.604  10.126  69.440  1.00  0.00     0.000 HD 
HETATM   16  O   UNL     1     -11.175   8.142  69.397  1.00  0.00    -0.440 OA 
HETATM   17  C   UNL     1     -10.300   9.198  68.967  1.00  0.00    -0.215 C  
HETATM   18  O   UNL     1      -8.276   9.820  67.855  1.00  0.00    -0.112 OA 
HETATM   19  O   UNL     1     -12.075  10.816  69.055  1.00  0.00    -0.380 OA 
HETATM   20  C   UNL     1      -8.891  10.828  67.047  1.00  0.00    -0.135 C  
HETATM   21  H   UNL     1     -11.910   8.448  69.917  1.00  0.00     0.000 HD 
HETATM   22  C   UNL     1     -11.115  10.206  68.168  1.00  0.00    -0.230 C  
HETATM   23  C   UNL     1     -10.261  11.321  67.545  1.00  0.00    -0.189 C  
BRANCH  20  24
HETATM   24  C   UNL     1      -7.873  11.982  66.899  1.00  0.00    -0.095 C  
HETATM   25  O   UNL     1      -6.669  11.611  66.226  1.00  0.00    -0.367 OA 
HETATM   26  H   UNL     1      -6.044  12.321  66.135  1.00  0.00     0.000 HD 
ENDBRANCH  20  24
BRANCH  23  27
HETATM   27  O   UNL     1     -10.927  11.897  66.386  1.00  0.00    -0.267 OA 
BRANCH  27  28
HETATM   28  C   UNL     1     -12.027  12.750  66.727  1.00  0.00    -0.319 C  
HETATM   29  O   UNL     1     -11.677  13.613  67.799  1.00  0.00    -0.320 OA 
HETATM   30  C   UNL     1     -10.576  14.465  67.473  1.00  0.00    -0.265 C  
HETATM   31  C   UNL     1     -10.992  15.434  66.338  1.00  0.00    -0.277 C  
HETATM   32  C   UNL     1     -10.171  15.138  68.782  1.00  0.00    -0.235 C  
HETATM   33  C   UNL     1     -11.446  14.606  65.105  1.00  0.00    -0.375 C  
HETATM   34  H   UNL     1     -12.338  14.948  63.367  1.00  0.00     0.000 HD 
HETATM   35  C   UNL     1     -12.486  13.554  65.501  1.00  0.00    -0.491 C  
HETATM   36  O   UNL     1     -12.060  15.455  64.120  1.00  0.00    -0.563 OA 
HETATM   37  O   UNL     1     -12.774  12.700  64.380  1.00  0.00    -0.656 OA 
HETATM   38  H   UNL     1     -13.058  13.196  63.622  1.00  0.00     0.000 HD 
BRANCH  31  39
HETATM   39  N   UNL     1      -9.886  16.383  66.057  1.00  0.00    -0.335 NA 
HETATM   40  H   UNL     1      -9.294  16.293  65.231  1.00  0.00     0.000 HD 
BRANCH  39  41
HETATM   41  C   UNL     1      -9.691  17.476  67.054  1.00  0.00    -0.284 C  
HETATM   42  C   UNL     1      -7.600  18.900  66.960  1.00  0.00    -0.239 C  
HETATM   43  C   UNL     1      -8.229  17.755  67.228  1.00  0.00    -0.226 C  
HETATM   44  C   UNL     1      -8.355  20.128  66.529  1.00  0.00    -0.265 C  
HETATM   45  H   UNL     1     -11.418  19.265  64.886  1.00  0.00     0.000 HD 
HETATM   46  O   UNL     1     -10.905  18.521  65.181  1.00  0.00    -0.588 OA 
HETATM   47  C   UNL     1      -9.891  20.083  66.740  1.00  0.00    -0.445 C  
HETATM   48  O   UNL     1      -8.041  20.372  65.161  1.00  0.00    -0.345 OA 
HETATM   49  H   UNL     1     -11.164  20.564  68.171  1.00  0.00     0.000 HD 
HETATM   50  O   UNL     1     -10.223  20.591  68.042  1.00  0.00    -0.295 OA 
HETATM   51  C   UNL     1     -10.536  18.701  66.567  1.00  0.00    -0.420 C  
HETATM   52  H   UNL     1      -8.519  21.147  64.889  1.00  0.00     0.000 HD 
BRANCH  42  53
HETATM   53  C   UNL     1      -6.098  19.060  67.046  1.00  0.00    -0.173 C  
HETATM   54  O   UNL     1      -5.566  19.771  65.933  1.00  0.00    -0.162 OA 
HETATM   55  H   UNL     1      -4.623  19.871  65.987  1.00  0.00     0.000 HD 
ENDBRANCH  42  53
ENDBRANCH  39  41
ENDBRANCH  31  39
ENDBRANCH  27  28
ENDBRANCH  23  27
ENDBRANCH  13  14
ENDBRANCH   4  13
ENDBRANCH   1   4
BRANCH   1  56
HETATM   56  C   UNL     1      -6.991   7.536  65.401  1.00  0.00    -0.059 C  
HETATM   57  O   UNL     1      -7.445   8.862  65.117  1.00  0.00    -0.093 OA 
HETATM   58  H   UNL     1      -6.695   9.446  65.098  1.00  0.00     0.000 HD 
ENDBRANCH   1  56
TORSDOF 12
ENDMDL
MODEL       36
REMARK 921   NORMALIZED FREE ENERGY PREDICTED BY IDOCK:   -6.46 KCAL/MOL
REMARK 922        TOTAL FREE ENERGY PREDICTED BY IDOCK:  -14.19 KCAL/MOL
REMARK 923 INTER-LIGAND FREE ENERGY PREDICTED BY IDOCK:  -10.82 KCAL/MOL
REMARK 924 INTRA-LIGAND FREE ENERGY PREDICTED BY IDOCK:   -3.37 KCAL/MOL
REMARK 927      BINDING AFFINITY PREDICTED BY RF-SCORE:    0.00 PKD
ROOT
HETATM    1  C   UNL     1     -11.358  15.615  69.568  1.00  0.00    -0.327 C  
HETATM    2  H   UNL     1     -11.161  17.183  70.690  1.00  0.00     0.000 HD 
HETATM    3  O   UNL     1     -11.588  16.339  70.783  1.00  0.00    -0.377 OA 
ENDROOT
BRANCH   1   4
HETATM    4  C   UNL     1      -9.846  15.509  69.205  1.00  0.00    -0.270 C  
BRANCH   4   5
HETATM    5  C   UNL     1      -9.333  16.744  68.401  1.00  0.00    -0.231 C  
HETATM    6  O   UNL     1      -8.465  17.566  69.196  1.00  0.00    -0.093 OA 
HETATM    7  H   UNL     1      -8.153  18.318  68.707  1.00  0.00     0.000 HD 
BRANCH   5   8
HETATM    8  C   UNL     1     -10.437  17.657  67.851  1.00  0.00    -0.392 C  
HETATM    9  C   UNL     1     -10.214  17.967  66.387  1.00  0.00    -0.393 C  
HETATM   10  O   UNL     1     -10.394  18.888  68.590  1.00  0.00    -0.429 OA 
HETATM   11  O   UNL     1     -10.682  17.278  65.483  1.00  0.00    -0.515 OA 
HETATM   12  H   UNL     1     -11.078  19.453  68.249  1.00  0.00     0.000 HD 
ENDBRANCH   5   8
ENDBRANCH   4   5
BRANCH   4  13
HETATM   13  O   UNL     1      -9.530  14.297  68.477  1.00  0.00    -0.205 OA 
BRANCH  13  14
HETATM   14  C   UNL     1      -8.842  14.503  67.232  1.00  0.00    -0.208 C  
HETATM   15  H   UNL     1     -11.032  12.087  64.926  1.00  0.00     0.000 HD 
HETATM   16  O   UNL     1     -10.944  14.322  65.913  1.00  0.00    -0.295 OA 
HETATM   17  C   UNL     1      -9.606  13.826  66.082  1.00  0.00    -0.216 C  
HETATM   18  O   UNL     1      -7.513  14.002  67.225  1.00  0.00    -0.157 OA 
HETATM   19  O   UNL     1     -10.187  11.699  65.124  1.00  0.00    -0.250 OA 
HETATM   20  C   UNL     1      -7.414  12.602  67.506  1.00  0.00    -0.155 C  
HETATM   21  H   UNL     1     -11.416  13.904  65.203  1.00  0.00     0.000 HD 
HETATM   22  C   UNL     1      -9.674  12.323  66.319  1.00  0.00    -0.244 C  
HETATM   23  C   UNL     1      -8.309  11.697  66.640  1.00  0.00    -0.154 C  
BRANCH  20  24
HETATM   24  C   UNL     1      -5.920  12.218  67.403  1.00  0.00    -0.149 C  
HETATM   25  O   UNL     1      -5.482  11.944  66.071  1.00  0.00    -0.472 OA 
HETATM   26  H   UNL     1      -4.564  11.708  66.008  1.00  0.00     0.000 HD 
ENDBRANCH  20  24
BRANCH  23  27
HETATM   27  O   UNL     1      -8.470  10.458  67.388  1.00  0.00    -0.121 OA 
BRANCH  27  28
HETATM   28  C   UNL     1      -8.011   9.301  66.679  1.00  0.00    -0.108 C  
HETATM   29  O   UNL     1      -6.962   8.662  67.391  1.00  0.00    -0.076 OA 
HETATM   30  C   UNL     1      -7.377   8.218  68.685  1.00  0.00    -0.089 C  
HETATM   31  C   UNL     1      -8.449   7.110  68.533  1.00  0.00    -0.125 C  
HETATM   32  C   UNL     1      -6.100   7.787  69.404  1.00  0.00    -0.034 C  
HETATM   33  C   UNL     1      -9.647   7.674  67.721  1.00  0.00    -0.144 C  
HETATM   34  H   UNL     1     -11.286   6.965  66.858  1.00  0.00     0.000 HD 
HETATM   35  C   UNL     1      -9.173   8.329  66.421  1.00  0.00    -0.195 C  
HETATM   36  O   UNL     1     -10.554   6.620  67.355  1.00  0.00    -0.220 OA 
HETATM   37  O   UNL     1     -10.276   8.979  65.765  1.00  0.00    -0.361 OA 
HETATM   38  H   UNL     1     -10.994   8.379  65.606  1.00  0.00     0.000 HD 
BRANCH  31  39
HETATM   39  N   UNL     1      -8.818   6.580  69.868  1.00  0.00    -0.143 NA 
HETATM   40  H   UNL     1      -9.093   5.607  70.006  1.00  0.00     0.000 HD 
BRANCH  39  41
HETATM   41  C   UNL     1      -8.761   7.553  70.998  1.00  0.00    -0.134 C  
HETATM   42  C   UNL     1     -10.909   8.334  72.088  1.00  0.00    -0.390 C  
HETATM   43  C   UNL     1     -10.044   8.325  71.073  1.00  0.00    -0.230 C  
HETATM   44  C   UNL     1     -10.617   7.610  73.374  1.00  0.00    -0.293 C  
HETATM   45  H   UNL     1      -8.414   4.837  72.839  1.00  0.00     0.000 HD 
HETATM   46  O   UNL     1      -8.627   5.330  72.055  1.00  0.00    -0.128 OA 
HETATM   47  C   UNL     1      -9.149   7.153  73.572  1.00  0.00    -0.168 C  
HETATM   48  O   UNL     1     -11.506   6.499  73.458  1.00  0.00    -0.361 OA 
HETATM   49  H   UNL     1      -7.497   7.906  74.349  1.00  0.00     0.000 HD 
HETATM   50  O   UNL     1      -8.396   8.187  74.228  1.00  0.00    -0.258 OA 
HETATM   51  C   UNL     1      -8.412   6.741  72.290  1.00  0.00    -0.106 C  
HETATM   52  H   UNL     1     -11.321   6.042  74.270  1.00  0.00     0.000 HD 
BRANCH  42  53
HETATM   53  C   UNL     1     -12.244   9.045  72.032  1.00  0.00    -0.375 C  
HETATM   54  O   UNL     1     -12.904   9.051  73.294  1.00  0.00    -0.449 OA 
HETATM   55  H   UNL     1     -13.743   9.496  73.259  1.00  0.00     0.000 HD 
ENDBRANCH  42  53
ENDBRANCH  39  41
ENDBRANCH  31  39
ENDBRANCH  27  28
ENDBRANCH  23  27
ENDBRANCH  13  14
ENDBRANCH   4  13
ENDBRANCH   1   4
BRANCH   1  56
HETATM   56  C   UNL     1     -12.045  14.255  69.718  1.00  0.00    -0.347 C  
HETATM   57  O   UNL     1     -12.374  13.756  68.420  1.00  0.00    -0.436 OA 
HETATM   58  H   UNL     1     -12.801  12.912  68.513  1.00  0.00     0.000 HD 
ENDBRANCH   1  56
TORSDOF 12
ENDMDL
MODEL       37
REMARK 921   NORMALIZED FREE ENERGY PREDICTED BY IDOCK:   -6.46 KCAL/MOL
REMARK 922        TOTAL FREE ENERGY PREDICTED BY IDOCK:  -14.18 KCAL/MOL
REMARK 923 INTER-LIGAND FREE ENERGY PREDICTED BY IDOCK:  -11.07 KCAL/MOL
REMARK 924 INTRA-LIGAND FREE ENERGY PREDICTED BY IDOCK:   -3.11 KCAL/MOL
REMARK 927      BINDING AFFINITY PREDICTED BY RF-SCORE:    0.00 PKD
ROOT
HETATM    1  C   UNL     1     -10.726   6.440  69.355  1.00  0.00    -0.289 C  
HETATM    2  H   UNL     1     -10.353   5.625  71.074  1.00  0.00     0.000 HD 
HETATM    3  O   UNL     1     -10.406   5.311  70.179  1.00  0.00    -0.261 OA 
ENDROOT
BRANCH   1   4
HETATM    4  C   UNL     1      -9.728   7.623  69.540  1.00  0.00    -0.168 C  
BRANCH   4   5
HETATM    5  C   UNL     1     -10.330   8.790  70.384  1.00  0.00    -0.199 C  
HETATM    6  O   UNL     1      -9.780  10.058  69.995  1.00  0.00    -0.298 OA 
HETATM    7  H   UNL     1     -10.146  10.769  70.509  1.00  0.00     0.000 HD 
BRANCH   5   8
HETATM    8  C   UNL     1     -10.129   8.659  71.899  1.00  0.00    -0.328 C  
HETATM    9  C   UNL     1      -8.710   8.255  72.232  1.00  0.00    -0.200 C  
HETATM   10  O   UNL     1     -11.018   7.633  72.370  1.00  0.00    -0.255 OA 
HETATM   11  O   UNL     1      -7.817   9.074  72.438  1.00  0.00    -0.345 OA 
HETATM   12  H   UNL     1     -10.894   7.552  73.308  1.00  0.00     0.000 HD 
ENDBRANCH   5   8
ENDBRANCH   4   5
BRANCH   4  13
HETATM   13  O   UNL     1      -9.240   8.144  68.279  1.00  0.00    -0.135 OA 
BRANCH  13  14
HETATM   14  C   UNL     1      -7.901   7.748  67.939  1.00  0.00    -0.127 C  
HETATM   15  H   UNL     1      -6.092  11.278  68.402  1.00  0.00     0.000 HD 
HETATM   16  O   UNL     1      -6.900   9.306  69.601  1.00  0.00    -0.051 OA 
HETATM   17  C   UNL     1      -6.917   8.895  68.224  1.00  0.00    -0.076 C  
HETATM   18  O   UNL     1      -7.746   7.369  66.579  1.00  0.00    -0.090 OA 
HETATM   19  O   UNL     1      -6.198  11.065  67.482  1.00  0.00    -0.051 OA 
HETATM   20  C   UNL     1      -8.107   8.390  65.644  1.00  0.00    -0.125 C  
HETATM   21  H   UNL     1      -6.292  10.015  69.777  1.00  0.00     0.000 HD 
HETATM   22  C   UNL     1      -7.265  10.101  67.363  1.00  0.00    -0.088 C  
HETATM   23  C   UNL     1      -7.438   9.756  65.876  1.00  0.00    -0.103 C  
BRANCH  20  24
HETATM   24  C   UNL     1      -7.826   7.835  64.228  1.00  0.00    -0.138 C  
HETATM   25  O   UNL     1      -8.625   8.430  63.203  1.00  0.00    -0.405 OA 
HETATM   26  H   UNL     1      -8.452   8.088  62.334  1.00  0.00     0.000 HD 
ENDBRANCH  20  24
BRANCH  23  27
HETATM   27  O   UNL     1      -8.284  10.737  65.212  1.00  0.00    -0.142 OA 
BRANCH  27  28
HETATM   28  C   UNL     1      -9.556  10.913  65.846  1.00  0.00    -0.216 C  
HETATM   29  O   UNL     1      -9.445  11.795  66.954  1.00  0.00    -0.185 OA 
HETATM   30  C   UNL     1      -8.989  13.095  66.570  1.00  0.00    -0.059 C  
HETATM   31  C   UNL     1     -10.051  13.769  65.665  1.00  0.00    -0.298 C  
HETATM   32  C   UNL     1      -8.689  13.830  67.874  1.00  0.00    -0.183 C  
HETATM   33  C   UNL     1     -10.303  12.870  64.424  1.00  0.00    -0.369 C  
HETATM   34  H   UNL     1     -11.597  12.786  62.923  1.00  0.00     0.000 HD 
HETATM   35  C   UNL     1     -10.596  11.426  64.838  1.00  0.00    -0.307 C  
HETATM   36  O   UNL     1     -11.443  13.336  63.682  1.00  0.00    -0.367 OA 
HETATM   37  O   UNL     1     -10.670  10.584  63.673  1.00  0.00    -0.366 OA 
HETATM   38  H   UNL     1     -11.312  10.901  63.050  1.00  0.00     0.000 HD 
BRANCH  31  39
HETATM   39  N   UNL     1      -9.628  15.152  65.338  1.00  0.00    -0.385 NA 
HETATM   40  H   UNL     1      -8.803  15.345  64.769  1.00  0.00     0.000 HD 
BRANCH  39  41
HETATM   41  C   UNL     1     -10.480  16.246  65.890  1.00  0.00    -0.345 C  
HETATM   42  C   UNL     1     -10.948  16.336  68.377  1.00  0.00    -0.351 C  
HETATM   43  C   UNL     1     -11.122  15.799  67.169  1.00  0.00    -0.180 C  
HETATM   44  C   UNL     1     -10.123  17.579  68.571  1.00  0.00    -0.363 C  
HETATM   45  H   UNL     1      -7.630  17.903  66.020  1.00  0.00     0.000 HD 
HETATM   46  O   UNL     1      -8.180  17.133  65.939  1.00  0.00    -0.526 OA 
HETATM   47  C   UNL     1      -9.782  18.370  67.282  1.00  0.00    -0.297 C  
HETATM   48  O   UNL     1      -8.935  17.208  69.264  1.00  0.00    -0.067 OA 
HETATM   49  H   UNL     1     -10.595  19.828  66.226  1.00  0.00     0.000 HD 
HETATM   50  O   UNL     1     -10.805  19.343  67.016  1.00  0.00    -0.476 OA 
HETATM   51  C   UNL     1      -9.572  17.515  66.024  1.00  0.00    -0.102 C  
HETATM   52  H   UNL     1      -8.414  17.993  69.386  1.00  0.00     0.000 HD 
BRANCH  42  53
HETATM   53  C   UNL     1     -11.538  15.746  69.639  1.00  0.00    -0.358 C  
HETATM   54  O   UNL     1     -12.845  15.221  69.429  1.00  0.00    -0.462 OA 
HETATM   55  H   UNL     1     -13.215  14.851  70.222  1.00  0.00     0.000 HD 
ENDBRANCH  42  53
ENDBRANCH  39  41
ENDBRANCH  31  39
ENDBRANCH  27  28
ENDBRANCH  23  27
ENDBRANCH  13  14
ENDBRANCH   4  13
ENDBRANCH   1   4
BRANCH   1  56
HETATM   56  C   UNL     1     -10.811   5.935  67.913  1.00  0.00    -0.233 C  
HETATM   57  O   UNL     1     -11.424   6.942  67.104  1.00  0.00    -0.703 OA 
HETATM   58  H   UNL     1     -11.476   6.628  66.209  1.00  0.00     0.000 HD 
ENDBRANCH   1  56
TORSDOF 12
ENDMDL
MODEL       38
REMARK 921   NORMALIZED FREE ENERGY PREDICTED BY IDOCK:   -6.45 KCAL/MOL
REMARK 922        TOTAL FREE ENERGY PREDICTED BY IDOCK:  -14.17 KCAL/MOL
REMARK 923 INTER-LIGAND FREE ENERGY PREDICTED BY IDOCK:  -10.49 KCAL/MOL
REMARK 924 INTRA-LIGAND FREE ENERGY PREDICTED BY IDOCK:   -3.68 KCAL/MOL
REMARK 927      BINDING AFFINITY PREDICTED BY RF-SCORE:    0.00 PKD
ROOT
HETATM    1  C   UNL     1      -8.474   5.342  73.137  1.00  0.00    -0.114 C  
HETATM    2  H   UNL     1      -8.546   6.414  74.750  1.00  0.00     0.000 HD 
HETATM    3  O   UNL     1      -8.221   5.548  74.533  1.00  0.00    -0.106 OA 
ENDROOT
BRANCH   1   4
HETATM    4  C   UNL     1      -7.877   6.470  72.243  1.00  0.00    -0.101 C  
BRANCH   4   5
HETATM    5  C   UNL     1      -7.663   7.805  73.024  1.00  0.00    -0.117 C  
HETATM    6  O   UNL     1      -8.539   8.839  72.548  1.00  0.00    -0.403 OA 
HETATM    7  H   UNL     1      -8.409   9.651  73.023  1.00  0.00     0.000 HD 
BRANCH   5   8
HETATM    8  C   UNL     1      -6.235   8.363  72.964  1.00  0.00    -0.094 C  
HETATM    9  C   UNL     1      -5.937   8.964  71.609  1.00  0.00    -0.063 C  
HETATM   10  O   UNL     1      -5.330   7.271  73.189  1.00  0.00    -0.041 OA 
HETATM   11  O   UNL     1      -6.141  10.148  71.347  1.00  0.00    -0.301 OA 
HETATM   12  H   UNL     1      -4.446   7.617  73.153  1.00  0.00     0.000 HD 
ENDBRANCH   5   8
ENDBRANCH   4   5
BRANCH   4  13
HETATM   13  O   UNL     1      -8.674   6.727  71.062  1.00  0.00    -0.136 OA 
BRANCH  13  14
HETATM   14  C   UNL     1     -10.001   6.176  71.096  1.00  0.00    -0.183 C  
HETATM   15  H   UNL     1     -10.352   5.210  67.237  1.00  0.00     0.000 HD 
HETATM   16  O   UNL     1      -9.450   4.459  69.382  1.00  0.00    -0.147 OA 
HETATM   17  C   UNL     1     -10.343   5.524  69.745  1.00  0.00    -0.296 C  
HETATM   18  O   UNL     1     -11.010   7.133  71.385  1.00  0.00    -0.231 OA 
HETATM   19  O   UNL     1     -10.861   5.985  67.444  1.00  0.00    -0.280 OA 
HETATM   20  C   UNL     1     -11.059   8.226  70.463  1.00  0.00    -0.249 C  
HETATM   21  H   UNL     1      -9.661   4.056  68.547  1.00  0.00     0.000 HD 
HETATM   22  C   UNL     1     -10.317   6.574  68.643  1.00  0.00    -0.191 C  
HETATM   23  C   UNL     1     -11.140   7.828  68.979  1.00  0.00     0.208 C  
BRANCH  20  24
HETATM   24  C   UNL     1     -12.237   9.133  70.889  1.00  0.00    -0.183 C  
HETATM   25  O   UNL     1     -12.385  10.306  70.088  1.00  0.00    -0.449 OA 
HETATM   26  H   UNL     1     -13.109  10.863  70.350  1.00  0.00     0.000 HD 
ENDBRANCH  20  24
BRANCH  23  27
HETATM   27  O   UNL     1     -10.661   8.978  68.227  1.00  0.00    -0.214 OA 
BRANCH  27  28
HETATM   28  C   UNL     1      -9.252   8.941  67.965  1.00  0.00    -0.139 C  
HETATM   29  O   UNL     1      -9.004   8.915  66.568  1.00  0.00    -0.141 OA 
HETATM   30  C   UNL     1      -9.519  10.070  65.902  1.00  0.00    -0.205 C  
HETATM   31  C   UNL     1      -8.758  11.330  66.390  1.00  0.00    -0.180 C  
HETATM   32  C   UNL     1      -9.396   9.778  64.409  1.00  0.00    -0.278 C  
HETATM   33  C   UNL     1      -8.914  11.450  67.930  1.00  0.00    -0.153 C  
HETATM   34  H   UNL     1      -8.131  12.536  69.394  1.00  0.00     0.000 HD 
HETATM   35  C   UNL     1      -8.549  10.137  68.626  1.00  0.00    -0.123 C  
HETATM   36  O   UNL     1      -8.035  12.462  68.452  1.00  0.00    -0.151 OA 
HETATM   37  O   UNL     1      -8.849  10.222  70.031  1.00  0.00    -0.378 OA 
HETATM   38  H   UNL     1      -8.415  10.961  70.440  1.00  0.00     0.000 HD 
BRANCH  31  39
HETATM   39  N   UNL     1      -9.223  12.521  65.638  1.00  0.00    -0.430 NA 
HETATM   40  H   UNL     1      -8.690  12.911  64.860  1.00  0.00     0.000 HD 
BRANCH  39  41
HETATM   41  C   UNL     1     -10.517  13.114  66.085  1.00  0.00    -0.281 C  
HETATM   42  C   UNL     1     -10.773  15.631  66.186  1.00  0.00    -0.305 C  
HETATM   43  C   UNL     1     -10.283  14.482  66.653  1.00  0.00    -0.276 C  
HETATM   44  C   UNL     1     -11.747  15.661  65.040  1.00  0.00     0.028 C  
HETATM   45  H   UNL     1     -11.335  12.816  62.903  1.00  0.00     0.000 HD 
HETATM   46  O   UNL     1     -10.743  12.842  63.646  1.00  0.00    -0.407 OA 
HETATM   47  C   UNL     1     -12.393  14.301  64.668  1.00  0.00    -0.415 C  
HETATM   48  O   UNL     1     -11.077  16.225  63.915  1.00  0.00    -1.111 OA 
HETATM   49  H   UNL     1     -13.999  13.278  65.190  1.00  0.00     0.000 HD 
HETATM   50  O   UNL     1     -13.604  14.111  65.418  1.00  0.00    -0.568 OA 
HETATM   51  C   UNL     1     -11.492  13.073  64.861  1.00  0.00    -0.316 C  
HETATM   52  H   UNL     1     -11.692  16.243  63.192  1.00  0.00     0.000 HD 
BRANCH  42  53
HETATM   53  C   UNL     1     -10.387  16.983  66.744  1.00  0.00    -0.302 C  
HETATM   54  O   UNL     1     -10.087  17.925  65.719  1.00  0.00    -0.563 OA 
HETATM   55  H   UNL     1      -9.844  18.774  66.069  1.00  0.00     0.000 HD 
ENDBRANCH  42  53
ENDBRANCH  39  41
ENDBRANCH  31  39
ENDBRANCH  27  28
ENDBRANCH  23  27
ENDBRANCH  13  14
ENDBRANCH   4  13
ENDBRANCH   1   4
BRANCH   1  56
HETATM   56  C   UNL     1      -7.950   3.947  72.787  1.00  0.00    -0.082 C  
HETATM   57  O   UNL     1      -6.754   4.081  72.015  1.00  0.00    -0.024 OA 
HETATM   58  H   UNL     1      -6.429   3.215  71.798  1.00  0.00     0.000 HD 
ENDBRANCH   1  56
TORSDOF 12
ENDMDL
MODEL       39
REMARK 921   NORMALIZED FREE ENERGY PREDICTED BY IDOCK:   -6.42 KCAL/MOL
REMARK 922        TOTAL FREE ENERGY PREDICTED BY IDOCK:  -14.12 KCAL/MOL
REMARK 923 INTER-LIGAND FREE ENERGY PREDICTED BY IDOCK:  -11.64 KCAL/MOL
REMARK 924 INTRA-LIGAND FREE ENERGY PREDICTED BY IDOCK:   -2.48 KCAL/MOL
REMARK 927      BINDING AFFINITY PREDICTED BY RF-SCORE:    0.00 PKD
ROOT
HETATM    1  C   UNL     1      -7.984  16.852  67.117  1.00  0.00    -0.182 C  
HETATM    2  H   UNL     1      -6.700  16.962  65.669  1.00  0.00     0.000 HD 
HETATM    3  O   UNL     1      -6.722  16.533  66.517  1.00  0.00    -0.227 OA 
ENDROOT
BRANCH   1   4
HETATM    4  C   UNL     1      -9.195  16.489  66.206  1.00  0.00    -0.310 C  
BRANCH   4   5
HETATM    5  C   UNL     1     -10.287  17.604  66.187  1.00  0.00    -0.334 C  
HETATM    6  O   UNL     1     -10.919  17.699  64.901  1.00  0.00    -0.886 OA 
HETATM    7  H   UNL     1     -11.584  18.377  64.889  1.00  0.00     0.000 HD 
BRANCH   5   8
HETATM    8  C   UNL     1      -9.781  19.007  66.544  1.00  0.00    -0.357 C  
HETATM    9  C   UNL     1     -10.483  19.549  67.769  1.00  0.00    -0.449 C  
HETATM   10  O   UNL     1     -10.069  19.871  65.433  1.00  0.00    -0.312 OA 
HETATM   11  O   UNL     1     -10.057  19.379  68.909  1.00  0.00    -0.428 OA 
HETATM   12  H   UNL     1      -9.756  20.740  65.654  1.00  0.00     0.000 HD 
ENDBRANCH   5   8
ENDBRANCH   4   5
BRANCH   4  13
HETATM   13  O   UNL     1      -9.804  15.225  66.565  1.00  0.00    -0.244 OA 
BRANCH  13  14
HETATM   14  C   UNL     1     -11.240  15.208  66.503  1.00  0.00    -0.283 C  
HETATM   15  H   UNL     1     -11.940  12.606  69.451  1.00  0.00     0.000 HD 
HETATM   16  O   UNL     1     -11.454  14.954  68.968  1.00  0.00    -0.270 OA 
HETATM   17  C   UNL     1     -11.816  14.414  67.687  1.00  0.00    -0.378 C  
HETATM   18  O   UNL     1     -11.753  14.638  65.307  1.00  0.00    -0.353 OA 
HETATM   19  O   UNL     1     -12.076  12.205  68.600  1.00  0.00    -0.282 OA 
HETATM   20  C   UNL     1     -11.330  13.291  65.073  1.00  0.00    -0.305 C  
HETATM   21  H   UNL     1     -11.809  14.463  69.700  1.00  0.00     0.000 HD 
HETATM   22  C   UNL     1     -11.342  12.968  67.620  1.00  0.00    -0.300 C  
HETATM   23  C   UNL     1     -11.561  12.320  66.244  1.00  0.00    -0.385 C  
BRANCH  20  24
HETATM   24  C   UNL     1     -12.018  12.813  63.773  1.00  0.00    -0.510 C  
HETATM   25  O   UNL     1     -12.521  13.874  62.960  1.00  0.00    -1.099 OA 
HETATM   26  H   UNL     1     -12.943  13.580  62.161  1.00  0.00     0.000 HD 
ENDBRANCH  20  24
BRANCH  23  27
HETATM   27  O   UNL     1     -10.636  11.215  66.039  1.00  0.00    -0.256 OA 
BRANCH  27  28
HETATM   28  C   UNL     1      -9.378  11.620  65.485  1.00  0.00    -0.156 C  
HETATM   29  O   UNL     1      -8.574  12.246  66.474  1.00  0.00    -0.149 OA 
HETATM   30  C   UNL     1      -8.283  11.374  67.569  1.00  0.00    -0.130 C  
HETATM   31  C   UNL     1      -7.409  10.195  67.072  1.00  0.00    -0.091 C  
HETATM   32  C   UNL     1      -7.637  12.252  68.637  1.00  0.00    -0.089 C  
HETATM   33  C   UNL     1      -8.164   9.446  65.941  1.00  0.00    -0.115 C  
HETATM   34  H   UNL     1      -7.761   8.039  64.601  1.00  0.00     0.000 HD 
HETATM   35  C   UNL     1      -8.650  10.418  64.863  1.00  0.00    -0.182 C  
HETATM   36  O   UNL     1      -7.299   8.497  65.293  1.00  0.00    -0.081 OA 
HETATM   37  O   UNL     1      -9.478   9.727  63.911  1.00  0.00    -0.392 OA 
HETATM   38  H   UNL     1      -9.029   8.985  63.527  1.00  0.00     0.000 HD 
BRANCH  31  39
HETATM   39  N   UNL     1      -7.025   9.335  68.218  1.00  0.00    -0.071 NA 
HETATM   40  H   UNL     1      -6.091   8.935  68.305  1.00  0.00     0.000 HD 
BRANCH  39  41
HETATM   41  C   UNL     1      -8.087   9.091  69.238  1.00  0.00    -0.105 C  
HETATM   42  C   UNL     1      -8.647   6.718  69.920  1.00  0.00    -0.141 C  
HETATM   43  C   UNL     1      -8.675   7.725  69.047  1.00  0.00    -0.135 C  
HETATM   44  C   UNL     1      -8.081   6.893  71.303  1.00  0.00    -0.110 C  
HETATM   45  H   UNL     1      -5.610   9.485  71.380  1.00  0.00     0.000 HD 
HETATM   46  O   UNL     1      -6.001   9.337  70.527  1.00  0.00    -0.039 OA 
HETATM   47  C   UNL     1      -7.852   8.358  71.757  1.00  0.00    -0.126 C  
HETATM   48  O   UNL     1      -6.867   6.149  71.372  1.00  0.00    -0.063 OA 
HETATM   49  H   UNL     1      -8.892   9.760  72.681  1.00  0.00     0.000 HD 
HETATM   50  O   UNL     1      -9.032   8.862  72.403  1.00  0.00    -0.383 OA 
HETATM   51  C   UNL     1      -7.442   9.333  70.643  1.00  0.00    -0.136 C  
HETATM   52  H   UNL     1      -6.510   6.261  72.245  1.00  0.00     0.000 HD 
BRANCH  42  53
HETATM   53  C   UNL     1      -9.156   5.329  69.599  1.00  0.00    -0.116 C  
HETATM   54  O   UNL     1     -10.569   5.299  69.426  1.00  0.00    -0.252 OA 
HETATM   55  H   UNL     1     -10.889   4.427  69.225  1.00  0.00     0.000 HD 
ENDBRANCH  42  53
ENDBRANCH  39  41
ENDBRANCH  31  39
ENDBRANCH  27  28
ENDBRANCH  23  27
ENDBRANCH  13  14
ENDBRANCH   4  13
ENDBRANCH   1   4
BRANCH   1  56
HETATM   56  C   UNL     1      -8.020  16.160  68.482  1.00  0.00    -0.175 C  
HETATM   57  O   UNL     1      -9.223  16.532  69.159  1.00  0.00    -0.259 OA 
HETATM   58  H   UNL     1      -9.245  16.102  70.006  1.00  0.00     0.000 HD 
ENDBRANCH   1  56
TORSDOF 12
ENDMDL
MODEL       40
REMARK 921   NORMALIZED FREE ENERGY PREDICTED BY IDOCK:   -6.39 KCAL/MOL
REMARK 922        TOTAL FREE ENERGY PREDICTED BY IDOCK:  -14.07 KCAL/MOL
REMARK 923 INTER-LIGAND FREE ENERGY PREDICTED BY IDOCK:  -11.37 KCAL/MOL
REMARK 924 INTRA-LIGAND FREE ENERGY PREDICTED BY IDOCK:   -2.70 KCAL/MOL
REMARK 927      BINDING AFFINITY PREDICTED BY RF-SCORE:    0.00 PKD
ROOT
HETATM    1  C   UNL     1     -11.982  12.535  67.832  1.00  0.00    -0.223 C  
HETATM    2  H   UNL     1     -11.896  14.337  68.540  1.00  0.00     0.000 HD 
HETATM    3  O   UNL     1     -11.674  13.474  68.870  1.00  0.00    -0.293 OA 
ENDROOT
BRANCH   1   4
HETATM    4  C   UNL     1     -11.288  12.880  66.480  1.00  0.00    -0.318 C  
BRANCH   4   5
HETATM    5  C   UNL     1     -12.261  13.550  65.460  1.00  0.00    -0.451 C  
HETATM    6  O   UNL     1     -13.193  12.600  64.921  1.00  0.00    -0.819 OA 
HETATM    7  H   UNL     1     -13.786  13.008  64.300  1.00  0.00     0.000 HD 
BRANCH   5   8
HETATM    8  C   UNL     1     -11.575  14.232  64.269  1.00  0.00    -0.282 C  
HETATM    9  C   UNL     1     -11.457  15.724  64.484  1.00  0.00    -0.289 C  
HETATM   10  O   UNL     1     -12.386  14.001  63.106  1.00  0.00    -1.133 OA 
HETATM   11  O   UNL     1     -10.481  16.243  65.021  1.00  0.00    -0.621 OA 
HETATM   12  H   UNL     1     -11.961  14.423  62.369  1.00  0.00     0.000 HD 
ENDBRANCH   5   8
ENDBRANCH   4   5
BRANCH   4  13
HETATM   13  O   UNL     1     -10.663  11.728  65.863  1.00  0.00    -0.264 OA 
BRANCH  13  14
HETATM   14  C   UNL     1      -9.338  11.958  65.357  1.00  0.00    -0.036 C  
HETATM   15  H   UNL     1      -9.150   8.933  62.757  1.00  0.00     0.000 HD 
HETATM   16  O   UNL     1      -9.964  11.218  63.066  1.00  0.00    -0.457 OA 
HETATM   17  C   UNL     1      -9.054  11.033  64.162  1.00  0.00    -0.097 C  
HETATM   18  O   UNL     1      -8.315  11.751  66.321  1.00  0.00    -0.106 OA 
HETATM   19  O   UNL     1      -8.631   8.752  63.532  1.00  0.00    -0.155 OA 
HETATM   20  C   UNL     1      -8.302  10.435  66.884  1.00  0.00    -0.124 C  
HETATM   21  H   UNL     1      -9.789  10.646  62.328  1.00  0.00     0.000 HD 
HETATM   22  C   UNL     1      -9.123   9.578  64.607  1.00  0.00    -0.210 C  
HETATM   23  C   UNL     1      -8.284   9.285  65.861  1.00  0.00    -0.116 C  
BRANCH  20  24
HETATM   24  C   UNL     1      -7.105  10.366  67.861  1.00  0.00    -0.083 C  
HETATM   25  O   UNL     1      -5.910   9.845  67.277  1.00  0.00    -0.050 OA 
HETATM   26  H   UNL     1      -5.174   9.803  67.877  1.00  0.00     0.000 HD 
ENDBRANCH  20  24
BRANCH  23  27
HETATM   27  O   UNL     1      -8.792   8.115  66.562  1.00  0.00    -0.133 OA 
BRANCH  27  28
HETATM   28  C   UNL     1      -8.000   6.939  66.354  1.00  0.00    -0.106 C  
HETATM   29  O   UNL     1      -6.911   6.902  67.263  1.00  0.00    -0.067 OA 
HETATM   30  C   UNL     1      -7.341   6.877  68.626  1.00  0.00    -0.094 C  
HETATM   31  C   UNL     1      -8.100   5.554  68.904  1.00  0.00    -0.095 C  
HETATM   32  C   UNL     1      -6.082   7.087  69.463  1.00  0.00    -0.030 C  
HETATM   33  C   UNL     1      -9.305   5.448  67.930  1.00  0.00    -0.113 C  
HETATM   34  H   UNL     1     -10.631   4.073  67.395  1.00  0.00     0.000 HD 
HETATM   35  C   UNL     1      -8.866   5.676  66.481  1.00  0.00    -0.123 C  
HETATM   36  O   UNL     1      -9.894   4.137  67.990  1.00  0.00    -0.122 OA 
HETATM   37  O   UNL     1     -10.017   5.729  65.619  1.00  0.00    -0.372 OA 
HETATM   38  H   UNL     1     -10.552   4.949  65.698  1.00  0.00     0.000 HD 
BRANCH  31  39
HETATM   39  N   UNL     1      -8.470   5.478  70.338  1.00  0.00    -0.120 NA 
HETATM   40  H   UNL     1      -8.503   4.591  70.842  1.00  0.00     0.000 HD 
BRANCH  39  41
HETATM   41  C   UNL     1      -8.792   6.775  71.002  1.00  0.00    -0.141 C  
HETATM   42  C   UNL     1     -11.116   7.166  71.929  1.00  0.00    -0.268 C  
HETATM   43  C   UNL     1     -10.264   7.045  70.910  1.00  0.00    -0.210 C  
HETATM   44  C   UNL     1     -10.639   7.145  73.356  1.00  0.00    -0.382 C  
HETATM   45  H   UNL     1      -7.600   5.279  73.689  1.00  0.00     0.000 HD 
HETATM   46  O   UNL     1      -7.941   5.325  72.803  1.00  0.00    -0.100 OA 
HETATM   47  C   UNL     1      -9.112   7.314  73.560  1.00  0.00    -0.184 C  
HETATM   48  O   UNL     1     -11.096   5.931  73.947  1.00  0.00    -0.374 OA 
HETATM   49  H   UNL     1      -7.848   8.809  73.816  1.00  0.00     0.000 HD 
HETATM   50  O   UNL     1      -8.784   8.706  73.691  1.00  0.00    -0.276 OA 
HETATM   51  C   UNL     1      -8.232   6.699  72.461  1.00  0.00    -0.105 C  
HETATM   52  H   UNL     1     -10.794   5.917  74.848  1.00  0.00     0.000 HD 
BRANCH  42  53
HETATM   53  C   UNL     1     -12.610   7.315  71.746  1.00  0.00    -0.341 C  
HETATM   54  O   UNL     1     -12.947   8.449  70.954  1.00  0.00    -0.501 OA 
HETATM   55  H   UNL     1     -13.885   8.543  70.839  1.00  0.00     0.000 HD 
ENDBRANCH  42  53
ENDBRANCH  39  41
ENDBRANCH  31  39
ENDBRANCH  27  28
ENDBRANCH  23  27
ENDBRANCH  13  14
ENDBRANCH   4  13
ENDBRANCH   1   4
BRANCH   1  56
HETATM   56  C   UNL     1     -11.622  11.145  68.364  1.00  0.00    -0.306 C  
HETATM   57  O   UNL     1     -12.632  10.726  69.285  1.00  0.00    -0.681 OA 
HETATM   58  H   UNL     1     -12.409   9.863  69.615  1.00  0.00     0.000 HD 
ENDBRANCH   1  56
TORSDOF 12
ENDMDL
MODEL       41
REMARK 921   NORMALIZED FREE ENERGY PREDICTED BY IDOCK:   -6.39 KCAL/MOL
REMARK 922        TOTAL FREE ENERGY PREDICTED BY IDOCK:  -14.07 KCAL/MOL
REMARK 923 INTER-LIGAND FREE ENERGY PREDICTED BY IDOCK:  -11.80 KCAL/MOL
REMARK 924 INTRA-LIGAND FREE ENERGY PREDICTED BY IDOCK:   -2.27 KCAL/MOL
REMARK 927      BINDING AFFINITY PREDICTED BY RF-SCORE:    0.00 PKD
ROOT
HETATM    1  C   UNL     1      -6.834   8.214  67.146  1.00  0.00    -0.070 C  
HETATM    2  H   UNL     1      -5.438   9.444  66.601  1.00  0.00     0.000 HD 
HETATM    3  O   UNL     1      -5.470   8.523  66.832  1.00  0.00    -0.035 OA 
ENDROOT
BRANCH   1   4
HETATM    4  C   UNL     1      -7.818   8.601  66.002  1.00  0.00    -0.102 C  
BRANCH   4   5
HETATM    5  C   UNL     1      -7.081   9.038  64.697  1.00  0.00    -0.089 C  
HETATM    6  O   UNL     1      -6.868  10.458  64.663  1.00  0.00    -0.258 OA 
HETATM    7  H   UNL     1      -6.419  10.724  63.870  1.00  0.00     0.000 HD 
BRANCH   5   8
HETATM    8  C   UNL     1      -7.799   8.661  63.395  1.00  0.00    -0.151 C  
HETATM    9  C   UNL     1      -8.885   9.657  63.058  1.00  0.00    -0.243 C  
HETATM   10  O   UNL     1      -8.405   7.373  63.588  1.00  0.00    -0.361 OA 
HETATM   11  O   UNL     1      -8.683  10.651  62.363  1.00  0.00    -0.213 OA 
HETATM   12  H   UNL     1      -8.849   7.139  62.781  1.00  0.00     0.000 HD 
ENDBRANCH   5   8
ENDBRANCH   4   5
BRANCH   4  13
HETATM   13  O   UNL     1      -8.753   9.636  66.394  1.00  0.00    -0.131 OA 
BRANCH  13  14
HETATM   14  C   UNL     1      -8.883   9.827  67.813  1.00  0.00    -0.129 C  
HETATM   15  H   UNL     1     -12.730  10.889  67.929  1.00  0.00     0.000 HD 
HETATM   16  O   UNL     1     -11.219   8.970  67.826  1.00  0.00    -0.460 OA 
HETATM   17  C   UNL     1     -10.356  10.061  68.187  1.00  0.00    -0.194 C  
HETATM   18  O   UNL     1      -8.127  10.920  68.313  1.00  0.00    -0.113 OA 
HETATM   19  O   UNL     1     -12.163  11.640  68.060  1.00  0.00    -0.551 OA 
HETATM   20  C   UNL     1      -8.453  12.178  67.713  1.00  0.00    -0.160 C  
HETATM   21  H   UNL     1     -12.129   9.115  68.057  1.00  0.00     0.000 HD 
HETATM   22  C   UNL     1     -10.867  11.326  67.511  1.00  0.00    -0.245 C  
HETATM   23  C   UNL     1      -9.949  12.540  67.722  1.00  0.00    -0.210 C  
BRANCH  20  24
HETATM   24  C   UNL     1      -7.587  13.255  68.406  1.00  0.00    -0.137 C  
HETATM   25  O   UNL     1      -7.489  14.479  67.676  1.00  0.00    -0.146 OA 
HETATM   26  H   UNL     1      -6.957  15.140  68.102  1.00  0.00     0.000 HD 
ENDBRANCH  20  24
BRANCH  23  27
HETATM   27  O   UNL     1     -10.132  13.518  66.660  1.00  0.00    -0.264 OA 
BRANCH  27  28
HETATM   28  C   UNL     1     -11.467  14.033  66.584  1.00  0.00    -0.364 C  
HETATM   29  O   UNL     1     -11.756  14.842  67.715  1.00  0.00    -0.346 OA 
HETATM   30  C   UNL     1     -10.881  15.968  67.815  1.00  0.00    -0.324 C  
HETATM   31  C   UNL     1     -11.120  16.916  66.612  1.00  0.00     0.308 C  
HETATM   32  C   UNL     1     -11.153  16.583  69.186  1.00  0.00    -0.270 C  
HETATM   33  C   UNL     1     -10.879  16.130  65.294  1.00  0.00    -0.336 C  
HETATM   34  H   UNL     1     -11.168  16.417  63.352  1.00  0.00     0.000 HD 
HETATM   35  C   UNL     1     -11.669  14.820  65.280  1.00  0.00    -0.311 C  
HETATM   36  O   UNL     1     -11.316  16.898  64.158  1.00  0.00    -1.208 OA 
HETATM   37  O   UNL     1     -11.311  14.039  64.126  1.00  0.00    -0.580 OA 
HETATM   38  H   UNL     1     -11.436  14.525  63.319  1.00  0.00     0.000 HD 
BRANCH  31  39
HETATM   39  N   UNL     1     -10.283  18.132  66.756  1.00  0.00    -0.354 NA 
HETATM   40  H   UNL     1     -10.606  19.050  66.448  1.00  0.00     0.000 HD 
BRANCH  39  41
HETATM   41  C   UNL     1      -8.941  17.934  67.376  1.00  0.00    -0.245 C  
HETATM   42  C   UNL     1      -6.892  18.943  66.282  1.00  0.00    -0.248 C  
HETATM   43  C   UNL     1      -7.873  18.040  66.330  1.00  0.00    -0.304 C  
HETATM   44  C   UNL     1      -6.689  19.938  67.392  1.00  0.00    -0.213 C  
HETATM   45  H   UNL     1      -9.754  20.616  69.116  1.00  0.00     0.000 HD 
HETATM   46  O   UNL     1      -9.830  19.989  68.407  1.00  0.00    -0.367 OA 
HETATM   47  C   UNL     1      -7.445  19.641  68.712  1.00  0.00    -0.329 C  
HETATM   48  O   UNL     1      -7.038  21.226  66.889  1.00  0.00    -0.684 OA 
HETATM   49  H   UNL     1      -7.095  18.648  70.382  1.00  0.00     0.000 HD 
HETATM   50  O   UNL     1      -6.631  18.830  69.573  1.00  0.00    -0.268 OA 
HETATM   51  C   UNL     1      -8.815  18.968  68.545  1.00  0.00    -0.362 C  
HETATM   52  H   UNL     1      -6.909  21.854  67.590  1.00  0.00     0.000 HD 
BRANCH  42  53
HETATM   53  C   UNL     1      -5.927  19.057  65.123  1.00  0.00    -0.264 C  
HETATM   54  O   UNL     1      -6.422  19.905  64.091  1.00  0.00    -0.308 OA 
HETATM   55  H   UNL     1      -5.816  19.977  63.363  1.00  0.00     0.000 HD 
ENDBRANCH  42  53
ENDBRANCH  39  41
ENDBRANCH  31  39
ENDBRANCH  27  28
ENDBRANCH  23  27
ENDBRANCH  13  14
ENDBRANCH   4  13
ENDBRANCH   1   4
BRANCH   1  56
HETATM   56  C   UNL     1      -6.885   6.731  67.518  1.00  0.00    -0.077 C  
HETATM   57  O   UNL     1      -7.525   6.010  66.461  1.00  0.00    -0.086 OA 
HETATM   58  H   UNL     1      -7.557   5.089  66.692  1.00  0.00     0.000 HD 
ENDBRANCH   1  56
TORSDOF 12
ENDMDL
MODEL       42
REMARK 921   NORMALIZED FREE ENERGY PREDICTED BY IDOCK:   -6.39 KCAL/MOL
REMARK 922        TOTAL FREE ENERGY PREDICTED BY IDOCK:  -14.06 KCAL/MOL
REMARK 923 INTER-LIGAND FREE ENERGY PREDICTED BY IDOCK:  -10.29 KCAL/MOL
REMARK 924 INTRA-LIGAND FREE ENERGY PREDICTED BY IDOCK:   -3.77 KCAL/MOL
REMARK 927      BINDING AFFINITY PREDICTED BY RF-SCORE:    0.00 PKD
ROOT
HETATM    1  C   UNL     1     -11.560  13.963  66.168  1.00  0.00    -0.359 C  
HETATM    2  H   UNL     1     -10.931  14.857  67.769  1.00  0.00     0.000 HD 
HETATM    3  O   UNL     1     -11.544  15.072  67.076  1.00  0.00    -0.331 OA 
ENDROOT
BRANCH   1   4
HETATM    4  C   UNL     1     -11.873  12.610  66.874  1.00  0.00    -0.355 C  
BRANCH   4   5
HETATM    5  C   UNL     1     -11.724  12.694  68.426  1.00  0.00    -0.333 C  
HETATM    6  O   UNL     1     -10.350  12.841  68.815  1.00  0.00    -0.351 OA 
HETATM    7  H   UNL     1     -10.259  12.893  69.760  1.00  0.00     0.000 HD 
BRANCH   5   8
HETATM    8  C   UNL     1     -12.281  11.486  69.191  1.00  0.00    -0.156 C  
HETATM    9  C   UNL     1     -12.087  11.646  70.683  1.00  0.00    -0.335 C  
HETATM   10  O   UNL     1     -11.557  10.323  68.759  1.00  0.00    -0.481 OA 
HETATM   11  O   UNL     1     -12.927  12.175  71.409  1.00  0.00    -0.368 OA 
HETATM   12  H   UNL     1     -11.902   9.576  69.233  1.00  0.00     0.000 HD 
ENDBRANCH   5   8
ENDBRANCH   4   5
BRANCH   4  13
HETATM   13  O   UNL     1     -11.065  11.518  66.373  1.00  0.00    -0.296 OA 
BRANCH  13  14
HETATM   14  C   UNL     1      -9.885  11.918  65.656  1.00  0.00    -0.241 C  
HETATM   15  H   UNL     1      -9.578   8.784  63.200  1.00  0.00     0.000 HD 
HETATM   16  O   UNL     1     -10.708  10.927  63.527  1.00  0.00    -0.558 OA 
HETATM   17  C   UNL     1      -9.629  10.966  64.475  1.00  0.00    -0.264 C  
HETATM   18  O   UNL     1      -8.712  11.943  66.456  1.00  0.00    -0.194 OA 
HETATM   19  O   UNL     1      -8.928   8.743  63.892  1.00  0.00     0.044 OA 
HETATM   20  C   UNL     1      -8.396  10.690  67.070  1.00  0.00    -0.126 C  
HETATM   21  H   UNL     1     -10.550  10.339  62.798  1.00  0.00     0.000 HD 
HETATM   22  C   UNL     1      -9.388   9.554  64.992  1.00  0.00    -0.229 C  
HETATM   23  C   UNL     1      -8.337   9.488  66.111  1.00  0.00    -0.115 C  
BRANCH  20  24
HETATM   24  C   UNL     1      -7.075  10.881  67.849  1.00  0.00    -0.081 C  
HETATM   25  O   UNL     1      -6.064   9.927  67.519  1.00  0.00    -0.057 OA 
HETATM   26  H   UNL     1      -5.252  10.044  67.998  1.00  0.00     0.000 HD 
ENDBRANCH  20  24
BRANCH  23  27
HETATM   27  O   UNL     1      -8.533   8.305  66.935  1.00  0.00    -0.115 OA 
BRANCH  27  28
HETATM   28  C   UNL     1      -7.602   7.253  66.654  1.00  0.00    -0.093 C  
HETATM   29  O   UNL     1      -6.669   7.113  67.715  1.00  0.00    -0.059 OA 
HETATM   30  C   UNL     1      -7.302   6.786  68.955  1.00  0.00    -0.094 C  
HETATM   31  C   UNL     1      -7.954   5.384  68.848  1.00  0.00    -0.094 C  
HETATM   32  C   UNL     1      -6.216   6.915  70.020  1.00  0.00    -0.031 C  
HETATM   33  C   UNL     1      -8.975   5.389  67.678  1.00  0.00    -0.108 C  
HETATM   34  H   UNL     1     -10.052   4.057  66.677  1.00  0.00     0.000 HD 
HETATM   35  C   UNL     1      -8.342   5.932  66.394  1.00  0.00    -0.114 C  
HETATM   36  O   UNL     1      -9.427   4.054  67.393  1.00  0.00    -0.170 OA 
HETATM   37  O   UNL     1      -9.344   6.073  65.371  1.00  0.00    -0.370 OA 
HETATM   38  H   UNL     1      -9.801   5.257  65.211  1.00  0.00     0.000 HD 
BRANCH  31  39
HETATM   39  N   UNL     1      -8.533   4.998  70.158  1.00  0.00    -0.091 NA 
HETATM   40  H   UNL     1      -8.693   4.022  70.411  1.00  0.00     0.000 HD 
BRANCH  39  41
HETATM   41  C   UNL     1      -8.867   6.120  71.083  1.00  0.00    -0.139 C  
HETATM   42  C   UNL     1     -11.286   6.588  71.663  1.00  0.00    -0.332 C  
HETATM   43  C   UNL     1     -10.258   6.607  70.814  1.00  0.00    -0.221 C  
HETATM   44  C   UNL     1     -11.116   6.143  73.091  1.00  0.00    -0.185 C  
HETATM   45  H   UNL     1      -8.388   3.846  73.425  1.00  0.00     0.000 HD 
HETATM   46  O   UNL     1      -8.535   4.160  72.540  1.00  0.00    -0.098 OA 
HETATM   47  C   UNL     1      -9.653   6.040  73.595  1.00  0.00    -0.148 C  
HETATM   48  O   UNL     1     -11.790   4.896  73.240  1.00  0.00    -0.467 OA 
HETATM   49  H   UNL     1      -8.341   7.231  74.465  1.00  0.00     0.000 HD 
HETATM   50  O   UNL     1      -9.237   7.295  74.157  1.00  0.00    -0.229 OA 
HETATM   51  C   UNL     1      -8.626   5.603  72.541  1.00  0.00    -0.124 C  
HETATM   52  H   UNL     1     -11.682   4.615  74.141  1.00  0.00     0.000 HD 
BRANCH  42  53
HETATM   53  C   UNL     1     -12.692   6.986  71.272  1.00  0.00    -0.351 C  
HETATM   54  O   UNL     1     -12.772   8.344  70.852  1.00  0.00    -0.501 OA 
HETATM   55  H   UNL     1     -13.655   8.594  70.607  1.00  0.00     0.000 HD 
ENDBRANCH  42  53
ENDBRANCH  39  41
ENDBRANCH  31  39
ENDBRANCH  27  28
ENDBRANCH  23  27
ENDBRANCH  13  14
ENDBRANCH   4  13
ENDBRANCH   1   4
BRANCH   1  56
HETATM   56  C   UNL     1     -12.547  14.310  65.051  1.00  0.00    -0.347 C  
HETATM   57  O   UNL     1     -12.335  13.421  63.952  1.00  0.00    -0.615 OA 
HETATM   58  H   UNL     1     -12.948  13.636  63.258  1.00  0.00     0.000 HD 
ENDBRANCH   1  56
TORSDOF 12
ENDMDL
MODEL       43
REMARK 921   NORMALIZED FREE ENERGY PREDICTED BY IDOCK:   -6.35 KCAL/MOL
REMARK 922        TOTAL FREE ENERGY PREDICTED BY IDOCK:  -13.99 KCAL/MOL
REMARK 923 INTER-LIGAND FREE ENERGY PREDICTED BY IDOCK:  -11.16 KCAL/MOL
REMARK 924 INTRA-LIGAND FREE ENERGY PREDICTED BY IDOCK:   -2.83 KCAL/MOL
REMARK 927      BINDING AFFINITY PREDICTED BY RF-SCORE:    0.00 PKD
ROOT
HETATM    1  C   UNL     1      -6.375  11.251  68.420  1.00  0.00    -0.046 C  
HETATM    2  H   UNL     1      -6.742  11.634  70.284  1.00  0.00     0.000 HD 
HETATM    3  O   UNL     1      -6.663  12.156  69.494  1.00  0.00    -0.096 OA 
ENDROOT
BRANCH   1   4
HETATM    4  C   UNL     1      -7.420  10.101  68.302  1.00  0.00    -0.082 C  
BRANCH   4   5
HETATM    5  C   UNL     1      -6.850   8.722  68.759  1.00  0.00    -0.062 C  
HETATM    6  O   UNL     1      -6.767   7.798  67.663  1.00  0.00    -0.064 OA 
HETATM    7  H   UNL     1      -6.420   6.958  67.941  1.00  0.00     0.000 HD 
BRANCH   5   8
HETATM    8  C   UNL     1      -7.651   8.030  69.870  1.00  0.00    -0.087 C  
HETATM    9  C   UNL     1      -8.342   6.787  69.356  1.00  0.00    -0.132 C  
HETATM   10  O   UNL     1      -8.652   8.953  70.326  1.00  0.00    -0.138 OA 
HETATM   11  O   UNL     1      -7.819   5.675  69.387  1.00  0.00    -0.086 OA 
HETATM   12  H   UNL     1      -9.148   8.525  71.014  1.00  0.00     0.000 HD 
ENDBRANCH   5   8
ENDBRANCH   4   5
BRANCH   4  13
HETATM   13  O   UNL     1      -7.966   9.976  66.967  1.00  0.00    -0.105 OA 
BRANCH  13  14
HETATM   14  C   UNL     1      -9.230   9.296  66.891  1.00  0.00    -0.144 C  
HETATM   15  H   UNL     1     -10.449  10.680  63.349  1.00  0.00     0.000 HD 
HETATM   16  O   UNL     1      -9.045   8.993  64.429  1.00  0.00    -0.429 OA 
HETATM   17  C   UNL     1      -9.859   9.493  65.502  1.00  0.00    -0.234 C  
HETATM   18  O   UNL     1     -10.172   9.733  67.861  1.00  0.00    -0.171 OA 
HETATM   19  O   UNL     1     -10.918  11.099  64.061  1.00  0.00    -0.364 OA 
HETATM   20  C   UNL     1     -10.470  11.131  67.799  1.00  0.00    -0.193 C  
HETATM   21  H   UNL     1      -9.434   9.115  63.570  1.00  0.00     0.000 HD 
HETATM   22  C   UNL     1     -10.126  10.972  65.259  1.00  0.00    -0.275 C  
HETATM   23  C   UNL     1     -10.884  11.650  66.411  1.00  0.00    -0.287 C  
BRANCH  20  24
HETATM   24  C   UNL     1     -11.541  11.420  68.875  1.00  0.00    -0.323 C  
HETATM   25  O   UNL     1     -12.646  10.514  68.852  1.00  0.00    -0.682 OA 
HETATM   26  H   UNL     1     -13.304  10.692  69.513  1.00  0.00     0.000 HD 
ENDBRANCH  20  24
BRANCH  23  27
HETATM   27  O   UNL     1     -10.631  13.083  66.425  1.00  0.00    -0.278 OA 
BRANCH  27  28
HETATM   28  C   UNL     1     -11.826  13.873  66.423  1.00  0.00    -0.411 C  
HETATM   29  O   UNL     1     -12.000  14.521  67.674  1.00  0.00    -0.374 OA 
HETATM   30  C   UNL     1     -10.919  15.405  67.983  1.00  0.00    -0.307 C  
HETATM   31  C   UNL     1     -10.897  16.571  66.962  1.00  0.00    -0.113 C  
HETATM   32  C   UNL     1     -11.127  15.822  69.437  1.00  0.00    -0.314 C  
HETATM   33  C   UNL     1     -10.756  15.987  65.530  1.00  0.00    -0.361 C  
HETATM   34  H   UNL     1     -10.882  16.652  63.666  1.00  0.00     0.000 HD 
HETATM   35  C   UNL     1     -11.797  14.894  65.274  1.00  0.00    -0.217 C  
HETATM   36  O   UNL     1     -10.968  17.010  64.541  1.00  0.00    -1.031 OA 
HETATM   37  O   UNL     1     -11.548  14.262  64.006  1.00  0.00    -0.627 OA 
HETATM   38  H   UNL     1     -11.530  14.893  63.296  1.00  0.00     0.000 HD 
BRANCH  31  39
HETATM   39  N   UNL     1      -9.837  17.541  67.330  1.00  0.00    -0.285 NA 
HETATM   40  H   UNL     1      -9.983  18.258  68.040  1.00  0.00     0.000 HD 
BRANCH  39  41
HETATM   41  C   UNL     1      -8.542  17.405  66.599  1.00  0.00    -0.255 C  
HETATM   42  C   UNL     1      -6.958  19.376  66.479  1.00  0.00    -0.219 C  
HETATM   43  C   UNL     1      -8.080  18.749  66.123  1.00  0.00    -0.221 C  
HETATM   44  C   UNL     1      -5.937  18.714  67.364  1.00  0.00    -0.169 C  
HETATM   45  H   UNL     1      -7.447  16.263  69.493  1.00  0.00     0.000 HD 
HETATM   46  O   UNL     1      -8.053  16.708  68.911  1.00  0.00    -0.234 OA 
HETATM   47  C   UNL     1      -6.097  17.184  67.551  1.00  0.00    -0.139 C  
HETATM   48  O   UNL     1      -5.956  19.382  68.622  1.00  0.00    -0.218 OA 
HETATM   49  H   UNL     1      -5.461  15.546  66.650  1.00  0.00     0.000 HD 
HETATM   50  O   UNL     1      -5.363  16.484  66.535  1.00  0.00    -0.334 OA 
HETATM   51  C   UNL     1      -7.546  16.673  67.558  1.00  0.00    -0.155 C  
HETATM   52  H   UNL     1      -5.311  18.964  69.181  1.00  0.00     0.000 HD 
BRANCH  42  53
HETATM   53  C   UNL     1      -6.626  20.788  66.048  1.00  0.00    -0.192 C  
HETATM   54  O   UNL     1      -5.348  20.875  65.426  1.00  0.00    -0.187 OA 
HETATM   55  H   UNL     1      -5.139  21.762  65.156  1.00  0.00     0.000 HD 
ENDBRANCH  42  53
ENDBRANCH  39  41
ENDBRANCH  31  39
ENDBRANCH  27  28
ENDBRANCH  23  27
ENDBRANCH  13  14
ENDBRANCH   4  13
ENDBRANCH   1   4
BRANCH   1  56
HETATM   56  C   UNL     1      -6.248  12.091  67.146  1.00  0.00    -0.151 C  
HETATM   57  O   UNL     1      -7.427  12.886  66.996  1.00  0.00    -0.364 OA 
HETATM   58  H   UNL     1      -7.349  13.407  66.206  1.00  0.00     0.000 HD 
ENDBRANCH   1  56
TORSDOF 12
ENDMDL
MODEL       44
REMARK 921   NORMALIZED FREE ENERGY PREDICTED BY IDOCK:   -6.31 KCAL/MOL
REMARK 922        TOTAL FREE ENERGY PREDICTED BY IDOCK:  -13.93 KCAL/MOL
REMARK 923 INTER-LIGAND FREE ENERGY PREDICTED BY IDOCK:  -10.85 KCAL/MOL
REMARK 924 INTRA-LIGAND FREE ENERGY PREDICTED BY IDOCK:   -3.08 KCAL/MOL
REMARK 927      BINDING AFFINITY PREDICTED BY RF-SCORE:    0.00 PKD
ROOT
HETATM    1  C   UNL     1      -7.046   8.281  69.238  1.00  0.00    -0.060 C  
HETATM    2  H   UNL     1      -6.839   6.447  68.646  1.00  0.00     0.000 HD 
HETATM    3  O   UNL     1      -7.408   6.894  69.263  1.00  0.00    -0.087 OA 
ENDROOT
BRANCH   1   4
HETATM    4  C   UNL     1      -7.086   8.889  67.804  1.00  0.00    -0.079 C  
BRANCH   4   5
HETATM    5  C   UNL     1      -5.769   9.642  67.434  1.00  0.00    -0.040 C  
HETATM    6  O   UNL     1      -5.265  10.398  68.546  1.00  0.00    -0.039 OA 
HETATM    7  H   UNL     1      -4.464  10.856  68.321  1.00  0.00     0.000 HD 
BRANCH   5   8
HETATM    8  C   UNL     1      -5.893  10.612  66.251  1.00  0.00    -0.104 C  
HETATM    9  C   UNL     1      -6.459  11.944  66.690  1.00  0.00     0.069 C  
HETATM   10  O   UNL     1      -6.793  10.025  65.298  1.00  0.00    -0.114 OA 
HETATM   11  O   UNL     1      -5.750  12.879  67.057  1.00  0.00    -0.323 OA 
HETATM   12  H   UNL     1      -6.870  10.625  64.565  1.00  0.00     0.000 HD 
ENDBRANCH   5   8
ENDBRANCH   4   5
BRANCH   4  13
HETATM   13  O   UNL     1      -8.216   9.772  67.602  1.00  0.00    -0.113 OA 
BRANCH  13  14
HETATM   14  C   UNL     1      -9.476   9.108  67.409  1.00  0.00    -0.143 C  
HETATM   15  H   UNL     1     -10.297  10.429  63.731  1.00  0.00     0.000 HD 
HETATM   16  O   UNL     1      -9.040   8.749  64.986  1.00  0.00    -0.403 OA 
HETATM   17  C   UNL     1      -9.954   9.282  65.958  1.00  0.00    -0.255 C  
HETATM   18  O   UNL     1     -10.506   9.577  68.266  1.00  0.00    -0.205 OA 
HETATM   19  O   UNL     1     -10.832  10.870  64.381  1.00  0.00    -0.299 OA 
HETATM   20  C   UNL     1     -10.775  10.977  68.144  1.00  0.00    -0.205 C  
HETATM   21  H   UNL     1      -9.335   8.857  64.089  1.00  0.00     0.000 HD 
HETATM   22  C   UNL     1     -10.171  10.759  65.658  1.00  0.00    -0.257 C  
HETATM   23  C   UNL     1     -11.035  11.472  66.710  1.00  0.00    -0.294 C  
BRANCH  20  24
HETATM   24  C   UNL     1     -11.948  11.304  69.097  1.00  0.00    -0.336 C  
HETATM   25  O   UNL     1     -11.541  11.648  70.422  1.00  0.00    -0.490 OA 
HETATM   26  H   UNL     1     -12.263  11.849  71.007  1.00  0.00     0.000 HD 
ENDBRANCH  20  24
BRANCH  23  27
HETATM   27  O   UNL     1     -10.762  12.901  66.722  1.00  0.00    -0.258 OA 
BRANCH  27  28
HETATM   28  C   UNL     1     -11.925  13.705  66.486  1.00  0.00    -0.424 C  
HETATM   29  O   UNL     1     -12.269  14.442  67.649  1.00  0.00    -0.328 OA 
HETATM   30  C   UNL     1     -11.226  15.331  68.057  1.00  0.00    -0.326 C  
HETATM   31  C   UNL     1     -11.024  16.421  66.974  1.00  0.00    -0.048 C  
HETATM   32  C   UNL     1     -11.640  15.852  69.431  1.00  0.00    -0.352 C  
HETATM   33  C   UNL     1     -10.683  15.736  65.623  1.00  0.00    -0.348 C  
HETATM   34  H   UNL     1     -10.512  16.269  63.720  1.00  0.00     0.000 HD 
HETATM   35  C   UNL     1     -11.699  14.641  65.288  1.00  0.00    -0.346 C  
HETATM   36  O   UNL     1     -10.720  16.689  64.547  1.00  0.00    -0.741 OA 
HETATM   37  O   UNL     1     -11.278  13.918  64.118  1.00  0.00    -0.577 OA 
HETATM   38  H   UNL     1     -11.139  14.496  63.378  1.00  0.00     0.000 HD 
BRANCH  31  39
HETATM   39  N   UNL     1     -10.008  17.401  67.431  1.00  0.00    -0.295 NA 
HETATM   40  H   UNL     1     -10.216  18.104  68.140  1.00  0.00     0.000 HD 
BRANCH  39  41
HETATM   41  C   UNL     1      -8.663  17.297  66.792  1.00  0.00    -0.251 C  
HETATM   42  C   UNL     1      -7.096  19.285  66.838  1.00  0.00    -0.214 C  
HETATM   43  C   UNL     1      -8.183  18.658  66.386  1.00  0.00    -0.295 C  
HETATM   44  C   UNL     1      -6.134  18.610  67.776  1.00  0.00    -0.189 C  
HETATM   45  H   UNL     1      -7.766  16.088  69.727  1.00  0.00     0.000 HD 
HETATM   46  O   UNL     1      -8.333  16.543  69.115  1.00  0.00    -0.235 OA 
HETATM   47  C   UNL     1      -6.290  17.073  67.912  1.00  0.00    -0.137 C  
HETATM   48  O   UNL     1      -6.251  19.243  69.048  1.00  0.00    -0.240 OA 
HETATM   49  H   UNL     1      -5.573  15.466  67.017  1.00  0.00     0.000 HD 
HETATM   50  O   UNL     1      -5.477  16.407  66.933  1.00  0.00    -0.329 OA 
HETATM   51  C   UNL     1      -7.729  16.549  67.801  1.00  0.00    -0.152 C  
HETATM   52  H   UNL     1      -5.643  18.816  69.640  1.00  0.00     0.000 HD 
BRANCH  42  53
HETATM   53  C   UNL     1      -6.750  20.711  66.469  1.00  0.00    -0.261 C  
HETATM   54  O   UNL     1      -5.384  21.018  66.728  1.00  0.00    -0.176 OA 
HETATM   55  H   UNL     1      -5.166  21.914  66.497  1.00  0.00     0.000 HD 
ENDBRANCH  42  53
ENDBRANCH  39  41
ENDBRANCH  31  39
ENDBRANCH  27  28
ENDBRANCH  23  27
ENDBRANCH  13  14
ENDBRANCH   4  13
ENDBRANCH   1   4
BRANCH   1  56
HETATM   56  C   UNL     1      -7.962   9.002  70.230  1.00  0.00    -0.121 C  
HETATM   57  O   UNL     1      -7.521  10.355  70.368  1.00  0.00    -0.430 OA 
HETATM   58  H   UNL     1      -8.090  10.803  70.984  1.00  0.00     0.000 HD 
ENDBRANCH   1  56
TORSDOF 12
ENDMDL
MODEL       45
REMARK 921   NORMALIZED FREE ENERGY PREDICTED BY IDOCK:   -6.26 KCAL/MOL
REMARK 922        TOTAL FREE ENERGY PREDICTED BY IDOCK:  -13.85 KCAL/MOL
REMARK 923 INTER-LIGAND FREE ENERGY PREDICTED BY IDOCK:  -10.44 KCAL/MOL
REMARK 924 INTRA-LIGAND FREE ENERGY PREDICTED BY IDOCK:   -3.41 KCAL/MOL
REMARK 927      BINDING AFFINITY PREDICTED BY RF-SCORE:    0.00 PKD
ROOT
HETATM    1  C   UNL     1      -7.973  15.599  67.876  1.00  0.00    -0.142 C  
HETATM    2  H   UNL     1      -7.126  17.291  67.453  1.00  0.00     0.000 HD 
HETATM    3  O   UNL     1      -6.828  16.392  67.540  1.00  0.00    -0.125 OA 
ENDROOT
BRANCH   1   4
HETATM    4  C   UNL     1      -9.143  15.768  66.860  1.00  0.00    -0.235 C  
BRANCH   4   5
HETATM    5  C   UNL     1     -10.223  16.781  67.351  1.00  0.00    -0.288 C  
HETATM    6  O   UNL     1     -10.327  17.909  66.468  1.00  0.00    -0.357 OA 
HETATM    7  H   UNL     1     -10.985  18.526  66.766  1.00  0.00     0.000 HD 
BRANCH   5   8
HETATM    8  C   UNL     1      -9.991  17.336  68.762  1.00  0.00    -0.325 C  
HETATM    9  C   UNL     1     -10.853  16.623  69.781  1.00  0.00    -0.237 C  
HETATM   10  O   UNL     1     -10.354  18.726  68.750  1.00  0.00    -0.447 OA 
HETATM   11  O   UNL     1     -10.476  15.621  70.385  1.00  0.00    -0.315 OA 
HETATM   12  H   UNL     1     -10.209  19.070  69.624  1.00  0.00     0.000 HD 
ENDBRANCH   5   8
ENDBRANCH   4   5
BRANCH   4  13
HETATM   13  O   UNL     1      -9.780  14.510  66.528  1.00  0.00    -0.261 OA 
BRANCH  13  14
HETATM   14  C   UNL     1     -11.217  14.536  66.550  1.00  0.00    -0.344 C  
HETATM   15  H   UNL     1     -11.848  11.208  68.665  1.00  0.00     0.000 HD 
HETATM   16  O   UNL     1     -11.309  13.586  68.847  1.00  0.00    -0.255 OA 
HETATM   17  C   UNL     1     -11.756  13.445  67.490  1.00  0.00    -0.366 C  
HETATM   18  O   UNL     1     -11.811  14.345  65.274  1.00  0.00    -0.353 OA 
HETATM   19  O   UNL     1     -12.042  11.072  67.745  1.00  0.00    -0.534 OA 
HETATM   20  C   UNL     1     -11.447  13.115  64.639  1.00  0.00    -0.333 C  
HETATM   21  H   UNL     1     -11.642  12.911  69.428  1.00  0.00     0.000 HD 
HETATM   22  C   UNL     1     -11.335  12.072  66.983  1.00  0.00    -0.336 C  
HETATM   23  C   UNL     1     -11.648  11.852  65.494  1.00  0.00    -0.218 C  
BRANCH  20  24
HETATM   24  C   UNL     1     -12.218  13.044  63.301  1.00  0.00    -0.382 C  
HETATM   25  O   UNL     1     -12.546  11.715  62.891  1.00  0.00    -0.914 OA 
HETATM   26  H   UNL     1     -13.020  11.672  62.069  1.00  0.00     0.000 HD 
ENDBRANCH  20  24
BRANCH  23  27
HETATM   27  O   UNL     1     -10.774  10.837  64.926  1.00  0.00    -0.250 OA 
BRANCH  27  28
HETATM   28  C   UNL     1      -9.447  10.862  65.465  1.00  0.00    -0.211 C  
HETATM   29  O   UNL     1      -9.367  10.059  66.634  1.00  0.00    -0.158 OA 
HETATM   30  C   UNL     1      -9.683   8.689  66.375  1.00  0.00    -0.263 C  
HETATM   31  C   UNL     1      -8.613   8.081  65.433  1.00  0.00    -0.114 C  
HETATM   32  C   UNL     1      -9.794   8.023  67.744  1.00  0.00    -0.207 C  
HETATM   33  C   UNL     1      -8.567   8.907  64.119  1.00  0.00    -0.106 C  
HETATM   34  H   UNL     1      -7.405   9.031  62.516  1.00  0.00     0.000 HD 
HETATM   35  C   UNL     1      -8.427  10.402  64.412  1.00  0.00    -0.163 C  
HETATM   36  O   UNL     1      -7.433   8.526  63.320  1.00  0.00    -0.100 OA 
HETATM   37  O   UNL     1      -8.544  11.157  63.192  1.00  0.00    -0.405 OA 
HETATM   38  H   UNL     1      -7.913  10.874  62.541  1.00  0.00     0.000 HD 
BRANCH  31  39
HETATM   39  N   UNL     1      -8.883   6.636  65.233  1.00  0.00    -0.364 NA 
HETATM   40  H   UNL     1      -9.756   6.300  64.827  1.00  0.00     0.000 HD 
BRANCH  39  41
HETATM   41  C   UNL     1      -7.801   5.701  65.662  1.00  0.00    -0.099 C  
HETATM   42  C   UNL     1      -6.651   6.053  67.890  1.00  0.00    -0.056 C  
HETATM   43  C   UNL     1      -6.879   6.392  66.620  1.00  0.00    -0.066 C  
HETATM   44  C   UNL     1      -7.253   4.811  68.490  1.00  0.00    -0.061 C  
HETATM   45  H   UNL     1     -10.310   3.921  66.850  1.00  0.00     0.000 HD 
HETATM   46  O   UNL     1      -9.888   4.699  66.504  1.00  0.00    -0.181 OA 
HETATM   47  C   UNL     1      -7.855   3.799  67.482  1.00  0.00    -0.082 C  
HETATM   48  O   UNL     1      -8.234   5.220  69.440  1.00  0.00    -0.093 OA 
HETATM   49  H   UNL     1      -7.220   2.239  66.451  1.00  0.00     0.000 HD 
HETATM   50  O   UNL     1      -6.850   2.859  67.069  1.00  0.00    -0.044 OA 
HETATM   51  C   UNL     1      -8.496   4.421  66.232  1.00  0.00    -0.112 C  
HETATM   52  H   UNL     1      -8.614   4.436  69.818  1.00  0.00     0.000 HD 
BRANCH  42  53
HETATM   53  C   UNL     1      -5.799   6.879  68.828  1.00  0.00    -0.018 C  
HETATM   54  O   UNL     1      -6.551   7.409  69.915  1.00  0.00    -0.041 OA 
HETATM   55  H   UNL     1      -6.015   7.928  70.504  1.00  0.00     0.000 HD 
ENDBRANCH  42  53
ENDBRANCH  39  41
ENDBRANCH  31  39
ENDBRANCH  27  28
ENDBRANCH  23  27
ENDBRANCH  13  14
ENDBRANCH   4  13
ENDBRANCH   1   4
BRANCH   1  56
HETATM   56  C   UNL     1      -7.493  14.153  68.016  1.00  0.00    -0.140 C  
HETATM   57  O   UNL     1      -8.218  13.524  69.076  1.00  0.00    -0.339 OA 
HETATM   58  H   UNL     1      -7.920  12.626  69.163  1.00  0.00     0.000 HD 
ENDBRANCH   1  56
TORSDOF 12
ENDMDL
MODEL       46
REMARK 921   NORMALIZED FREE ENERGY PREDICTED BY IDOCK:   -6.25 KCAL/MOL
REMARK 922        TOTAL FREE ENERGY PREDICTED BY IDOCK:  -13.83 KCAL/MOL
REMARK 923 INTER-LIGAND FREE ENERGY PREDICTED BY IDOCK:  -10.89 KCAL/MOL
REMARK 924 INTRA-LIGAND FREE ENERGY PREDICTED BY IDOCK:   -2.93 KCAL/MOL
REMARK 927      BINDING AFFINITY PREDICTED BY RF-SCORE:    0.00 PKD
ROOT
HETATM    1  C   UNL     1     -11.110  15.769  69.978  1.00  0.00    -0.344 C  
HETATM    2  H   UNL     1     -11.603  15.310  71.795  1.00  0.00     0.000 HD 
HETATM    3  O   UNL     1     -11.317  16.103  71.357  1.00  0.00    -0.380 OA 
ENDROOT
BRANCH   1   4
HETATM    4  C   UNL     1     -12.362  15.114  69.321  1.00  0.00    -0.093 C  
BRANCH   4   5
HETATM    5  C   UNL     1     -13.350  14.519  70.373  1.00  0.00     0.153 C  
HETATM    6  O   UNL     1     -14.069  15.552  71.064  1.00  0.00    -0.810 OA 
HETATM    7  H   UNL     1     -14.670  15.190  71.704  1.00  0.00     0.000 HD 
BRANCH   5   8
HETATM    8  C   UNL     1     -12.695  13.635  71.442  1.00  0.00    -0.352 C  
HETATM    9  C   UNL     1     -13.001  12.173  71.209  1.00  0.00    -0.207 C  
HETATM   10  O   UNL     1     -13.237  14.017  72.717  1.00  0.00    -0.503 OA 
HETATM   11  O   UNL     1     -12.284  11.444  70.526  1.00  0.00    -0.352 OA 
HETATM   12  H   UNL     1     -12.832  13.470  73.379  1.00  0.00     0.000 HD 
ENDBRANCH   5   8
ENDBRANCH   4   5
BRANCH   4  13
HETATM   13  O   UNL     1     -12.016  14.092  68.355  1.00  0.00    -0.347 OA 
BRANCH  13  14
HETATM   14  C   UNL     1     -11.346  14.574  67.179  1.00  0.00    -0.350 C  
HETATM   15  H   UNL     1     -12.039  11.463  64.773  1.00  0.00     0.000 HD 
HETATM   16  O   UNL     1     -13.014  13.521  65.663  1.00  0.00    -0.496 OA 
HETATM   17  C   UNL     1     -11.620  13.640  65.988  1.00  0.00    -0.337 C  
HETATM   18  O   UNL     1      -9.938  14.685  67.329  1.00  0.00    -0.233 OA 
HETATM   19  O   UNL     1     -11.138  11.470  65.073  1.00  0.00    -0.275 OA 
HETATM   20  C   UNL     1      -9.289  13.459  67.681  1.00  0.00    -0.217 C  
HETATM   21  H   UNL     1     -13.183  12.944  64.927  1.00  0.00     0.000 HD 
HETATM   22  C   UNL     1     -11.073  12.250  66.285  1.00  0.00    -0.302 C  
HETATM   23  C   UNL     1      -9.615  12.262  66.770  1.00  0.00    -0.218 C  
BRANCH  20  24
HETATM   24  C   UNL     1      -7.771  13.746  67.748  1.00  0.00    -0.168 C  
HETATM   25  O   UNL     1      -7.076  12.965  68.721  1.00  0.00    -0.100 OA 
HETATM   26  H   UNL     1      -6.143  13.142  68.762  1.00  0.00     0.000 HD 
ENDBRANCH  20  24
BRANCH  23  27
HETATM   27  O   UNL     1      -9.320  11.070  67.552  1.00  0.00    -0.157 OA 
BRANCH  27  28
HETATM   28  C   UNL     1      -8.293  10.253  66.978  1.00  0.00    -0.126 C  
HETATM   29  O   UNL     1      -7.173  10.172  67.848  1.00  0.00    -0.084 OA 
HETATM   30  C   UNL     1      -7.508   9.593  69.111  1.00  0.00    -0.079 C  
HETATM   31  C   UNL     1      -7.925   8.114  68.907  1.00  0.00    -0.114 C  
HETATM   32  C   UNL     1      -6.284   9.803  70.000  1.00  0.00    -0.059 C  
HETATM   33  C   UNL     1      -9.127   8.058  67.926  1.00  0.00    -0.132 C  
HETATM   34  H   UNL     1     -10.129   6.669  66.926  1.00  0.00     0.000 HD 
HETATM   35  C   UNL     1      -8.836   8.853  66.651  1.00  0.00    -0.129 C  
HETATM   36  O   UNL     1      -9.394   6.703  67.526  1.00  0.00    -0.123 OA 
HETATM   37  O   UNL     1     -10.016   8.918  65.830  1.00  0.00    -0.459 OA 
HETATM   38  H   UNL     1     -10.352   8.053  65.627  1.00  0.00     0.000 HD 
BRANCH  31  39
HETATM   39  N   UNL     1      -8.184   7.479  70.223  1.00  0.00    -0.126 NA 
HETATM   40  H   UNL     1      -7.427   7.147  70.821  1.00  0.00     0.000 HD 
BRANCH  39  41
HETATM   41  C   UNL     1      -9.618   7.355  70.619  1.00  0.00    -0.171 C  
HETATM   42  C   UNL     1     -10.311   5.564  72.268  1.00  0.00    -0.257 C  
HETATM   43  C   UNL     1      -9.907   5.951  71.058  1.00  0.00    -0.225 C  
HETATM   44  C   UNL     1     -10.634   6.564  73.345  1.00  0.00    -0.285 C  
HETATM   45  H   UNL     1      -8.808   9.610  72.885  1.00  0.00     0.000 HD 
HETATM   46  O   UNL     1      -8.641   8.946  72.227  1.00  0.00    -0.397 OA 
HETATM   47  C   UNL     1     -10.796   8.032  72.874  1.00  0.00    -0.330 C  
HETATM   48  O   UNL     1      -9.626   6.464  74.347  1.00  0.00    -0.206 OA 
HETATM   49  H   UNL     1     -12.263   9.187  72.231  1.00  0.00     0.000 HD 
HETATM   50  O   UNL     1     -12.164   8.287  72.519  1.00  0.00    -0.370 OA 
HETATM   51  C   UNL     1      -9.893   8.448  71.704  1.00  0.00    -0.221 C  
HETATM   52  H   UNL     1      -9.830   7.096  75.027  1.00  0.00     0.000 HD 
BRANCH  42  53
HETATM   53  C   UNL     1     -10.461   4.112  72.666  1.00  0.00    -0.155 C  
HETATM   54  O   UNL     1     -11.278   3.950  73.821  1.00  0.00    -0.226 OA 
HETATM   55  H   UNL     1     -11.372   3.038  74.071  1.00  0.00     0.000 HD 
ENDBRANCH  42  53
ENDBRANCH  39  41
ENDBRANCH  31  39
ENDBRANCH  27  28
ENDBRANCH  23  27
ENDBRANCH  13  14
ENDBRANCH   4  13
ENDBRANCH   1   4
BRANCH   1  56
HETATM   56  C   UNL     1     -10.650  17.047  69.271  1.00  0.00    -0.276 C  
HETATM   57  O   UNL     1      -9.259  16.929  68.962  1.00  0.00    -0.252 OA 
HETATM   58  H   UNL     1      -8.973  17.722  68.523  1.00  0.00     0.000 HD 
ENDBRANCH   1  56
TORSDOF 12
ENDMDL
MODEL       47
REMARK 921   NORMALIZED FREE ENERGY PREDICTED BY IDOCK:   -6.23 KCAL/MOL
REMARK 922        TOTAL FREE ENERGY PREDICTED BY IDOCK:  -13.79 KCAL/MOL
REMARK 923 INTER-LIGAND FREE ENERGY PREDICTED BY IDOCK:  -10.60 KCAL/MOL
REMARK 924 INTRA-LIGAND FREE ENERGY PREDICTED BY IDOCK:   -3.19 KCAL/MOL
REMARK 927      BINDING AFFINITY PREDICTED BY RF-SCORE:    0.00 PKD
ROOT
HETATM    1  C   UNL     1      -8.458   7.951  65.343  1.00  0.00    -0.119 C  
HETATM    2  H   UNL     1      -8.764   6.804  63.810  1.00  0.00     0.000 HD 
HETATM    3  O   UNL     1      -8.038   7.335  64.119  1.00  0.00    -0.120 OA 
ENDROOT
BRANCH   1   4
HETATM    4  C   UNL     1      -8.963   6.919  66.396  1.00  0.00    -0.153 C  
BRANCH   4   5
HETATM    5  C   UNL     1      -9.777   5.753  65.751  1.00  0.00     0.141 C  
HETATM    6  O   UNL     1     -11.041   5.569  66.407  1.00  0.00    -0.681 OA 
HETATM    7  H   UNL     1     -11.537   4.860  66.015  1.00  0.00     0.000 HD 
BRANCH   5   8
HETATM    8  C   UNL     1      -9.067   4.393  65.755  1.00  0.00    -0.135 C  
HETATM    9  C   UNL     1      -8.063   4.301  66.882  1.00  0.00    -0.101 C  
HETATM   10  O   UNL     1      -8.367   4.263  64.507  1.00  0.00    -0.101 OA 
HETATM   11  O   UNL     1      -8.351   3.871  67.996  1.00  0.00    -0.091 OA 
HETATM   12  H   UNL     1      -7.928   3.421  64.509  1.00  0.00     0.000 HD 
ENDBRANCH   5   8
ENDBRANCH   4   5
BRANCH   4  13
HETATM   13  O   UNL     1      -9.750   7.531  67.446  1.00  0.00    -0.144 OA 
BRANCH  13  14
HETATM   14  C   UNL     1      -9.310   7.237  68.782  1.00  0.00    -0.143 C  
HETATM   15  H   UNL     1     -12.600   8.338  70.759  1.00  0.00     0.000 HD 
HETATM   16  O   UNL     1     -11.582   6.513  69.490  1.00  0.00    -0.594 OA 
HETATM   17  C   UNL     1     -10.476   7.385  69.773  1.00  0.00    -0.229 C  
HETATM   18  O   UNL     1      -8.250   8.069  69.229  1.00  0.00    -0.123 OA 
HETATM   19  O   UNL     1     -11.907   8.980  70.862  1.00  0.00    -0.282 OA 
HETATM   20  C   UNL     1      -8.557   9.467  69.213  1.00  0.00    -0.143 C  
HETATM   21  H   UNL     1     -12.303   6.604  70.102  1.00  0.00     0.000 HD 
HETATM   22  C   UNL     1     -10.980   8.822  69.768  1.00  0.00    -0.140 C  
HETATM   23  C   UNL     1      -9.859   9.859  69.935  1.00  0.00    -0.245 C  
BRANCH  20  24
HETATM   24  C   UNL     1      -7.328  10.214  69.778  1.00  0.00    -0.158 C  
HETATM   25  O   UNL     1      -7.424  11.637  69.692  1.00  0.00    -0.346 OA 
HETATM   26  H   UNL     1      -6.668  12.096  70.040  1.00  0.00     0.000 HD 
ENDBRANCH  20  24
BRANCH  23  27
HETATM   27  O   UNL     1     -10.256  11.144  69.379  1.00  0.00    -0.145 OA 
BRANCH  27  28
HETATM   28  C   UNL     1     -11.578  11.142  68.827  1.00  0.00    -0.322 C  
HETATM   29  O   UNL     1     -12.450  11.939  69.615  1.00  0.00    -0.091 OA 
HETATM   30  C   UNL     1     -12.029  13.304  69.678  1.00  0.00    -0.314 C  
HETATM   31  C   UNL     1     -12.120  13.939  68.268  1.00  0.00    -0.287 C  
HETATM   32  C   UNL     1     -12.909  13.959  70.740  1.00  0.00    -0.329 C  
HETATM   33  C   UNL     1     -11.235  13.122  67.287  1.00  0.00    -0.287 C  
HETATM   34  H   UNL     1     -10.932  13.030  65.329  1.00  0.00     0.000 HD 
HETATM   35  C   UNL     1     -11.555  11.628  67.369  1.00  0.00    -0.254 C  
HETATM   36  O   UNL     1     -11.473  13.530  65.928  1.00  0.00    -0.310 OA 
HETATM   37  O   UNL     1     -10.621  10.878  66.572  1.00  0.00    -0.248 OA 
HETATM   38  H   UNL     1     -10.606  11.178  65.672  1.00  0.00     0.000 HD 
BRANCH  31  39
HETATM   39  N   UNL     1     -11.774  15.380  68.342  1.00  0.00    -0.436 NA 
HETATM   40  H   UNL     1     -12.398  16.064  68.769  1.00  0.00     0.000 HD 
BRANCH  39  41
HETATM   41  C   UNL     1     -10.459  15.768  67.753  1.00  0.00    -0.283 C  
HETATM   42  C   UNL     1     -10.101  18.139  66.940  1.00  0.00    -0.362 C  
HETATM   43  C   UNL     1     -10.639  16.925  66.817  1.00  0.00    -0.201 C  
HETATM   44  C   UNL     1      -9.122  18.456  68.038  1.00  0.00    -0.294 C  
HETATM   45  H   UNL     1      -9.642  16.359  70.894  1.00  0.00     0.000 HD 
HETATM   46  O   UNL     1     -10.235  16.195  70.170  1.00  0.00    -0.163 OA 
HETATM   47  C   UNL     1      -8.531  17.235  68.787  1.00  0.00    -0.233 C  
HETATM   48  O   UNL     1      -9.765  19.344  68.949  1.00  0.00    -0.411 OA 
HETATM   49  H   UNL     1      -6.969  16.041  68.592  1.00  0.00     0.000 HD 
HETATM   50  O   UNL     1      -7.332  16.790  68.132  1.00  0.00    -0.163 OA 
HETATM   51  C   UNL     1      -9.482  16.040  68.946  1.00  0.00    -0.235 C  
HETATM   52  H   UNL     1      -9.146  19.544  69.642  1.00  0.00     0.000 HD 
BRANCH  42  53
HETATM   53  C   UNL     1     -10.434  19.290  66.016  1.00  0.00    -0.487 C  
HETATM   54  O   UNL     1      -9.496  20.356  66.121  1.00  0.00    -0.627 OA 
HETATM   55  H   UNL     1      -9.705  21.079  65.541  1.00  0.00     0.000 HD 
ENDBRANCH  42  53
ENDBRANCH  39  41
ENDBRANCH  31  39
ENDBRANCH  27  28
ENDBRANCH  23  27
ENDBRANCH  13  14
ENDBRANCH   4  13
ENDBRANCH   1   4
BRANCH   1  56
HETATM   56  C   UNL     1      -7.288   8.804  65.840  1.00  0.00    -0.085 C  
HETATM   57  O   UNL     1      -7.680  10.179  65.827  1.00  0.00    -0.124 OA 
HETATM   58  H   UNL     1      -6.954  10.710  66.136  1.00  0.00     0.000 HD 
ENDBRANCH   1  56
TORSDOF 12
ENDMDL
MODEL       48
REMARK 921   NORMALIZED FREE ENERGY PREDICTED BY IDOCK:   -6.20 KCAL/MOL
REMARK 922        TOTAL FREE ENERGY PREDICTED BY IDOCK:  -13.74 KCAL/MOL
REMARK 923 INTER-LIGAND FREE ENERGY PREDICTED BY IDOCK:  -10.59 KCAL/MOL
REMARK 924 INTRA-LIGAND FREE ENERGY PREDICTED BY IDOCK:   -3.15 KCAL/MOL
REMARK 927      BINDING AFFINITY PREDICTED BY RF-SCORE:    0.00 PKD
ROOT
HETATM    1  C   UNL     1      -9.157   4.320  72.957  1.00  0.00    -0.111 C  
HETATM    2  H   UNL     1     -10.165   4.847  74.527  1.00  0.00     0.000 HD 
HETATM    3  O   UNL     1      -9.594   4.120  74.308  1.00  0.00    -0.105 OA 
ENDROOT
BRANCH   1   4
HETATM    4  C   UNL     1      -8.497   5.714  72.737  1.00  0.00    -0.120 C  
BRANCH   4   5
HETATM    5  C   UNL     1      -8.272   6.490  74.073  1.00  0.00    -0.118 C  
HETATM    6  O   UNL     1      -9.058   7.690  74.124  1.00  0.00    -0.350 OA 
HETATM    7  H   UNL     1      -8.921   8.162  74.937  1.00  0.00     0.000 HD 
BRANCH   5   8
HETATM    8  C   UNL     1      -6.817   6.894  74.344  1.00  0.00    -0.086 C  
HETATM    9  C   UNL     1      -6.502   8.246  73.744  1.00  0.00    -0.121 C  
HETATM   10  O   UNL     1      -5.968   5.912  73.728  1.00  0.00    -0.057 OA 
HETATM   11  O   UNL     1      -6.645   9.298  74.364  1.00  0.00    -0.361 OA 
HETATM   12  H   UNL     1      -5.068   6.162  73.897  1.00  0.00     0.000 HD 
ENDBRANCH   5   8
ENDBRANCH   4   5
BRANCH   4  13
HETATM   13  O   UNL     1      -9.246   6.547  71.819  1.00  0.00    -0.150 OA 
BRANCH  13  14
HETATM   14  C   UNL     1     -10.624   6.174  71.649  1.00  0.00    -0.230 C  
HETATM   15  H   UNL     1     -10.652   5.756  67.678  1.00  0.00     0.000 HD 
HETATM   16  O   UNL     1     -10.090   4.629  69.774  1.00  0.00    -0.234 OA 
HETATM   17  C   UNL     1     -10.886   5.748  70.195  1.00  0.00    -0.313 C  
HETATM   18  O   UNL     1     -11.539   7.211  71.971  1.00  0.00    -0.265 OA 
HETATM   19  O   UNL     1     -11.086   6.559  67.942  1.00  0.00    -0.303 OA 
HETATM   20  C   UNL     1     -11.356   8.409  71.209  1.00  0.00    -0.266 C  
HETATM   21  H   UNL     1     -10.251   4.366  68.875  1.00  0.00     0.000 HD 
HETATM   22  C   UNL     1     -10.614   6.916  69.257  1.00  0.00    -0.226 C  
HETATM   23  C   UNL     1     -11.316   8.215  69.683  1.00  0.00     0.214 C  
BRANCH  20  24
HETATM   24  C   UNL     1     -12.460   9.401  71.643  1.00  0.00    -0.378 C  
HETATM   25  O   UNL     1     -13.295   9.844  70.572  1.00  0.00    -0.620 OA 
HETATM   26  H   UNL     1     -13.973  10.454  70.838  1.00  0.00     0.000 HD 
ENDBRANCH  20  24
BRANCH  23  27
HETATM   27  O   UNL     1     -10.625   9.377  69.147  1.00  0.00    -0.217 OA 
BRANCH  27  28
HETATM   28  C   UNL     1     -11.223   9.895  67.953  1.00  0.00    -0.038 C  
HETATM   29  O   UNL     1     -11.824  11.157  68.201  1.00  0.00    -0.559 OA 
HETATM   30  C   UNL     1     -10.878  12.131  68.647  1.00  0.00    -0.235 C  
HETATM   31  C   UNL     1      -9.862  12.422  67.514  1.00  0.00    -0.194 C  
HETATM   32  C   UNL     1     -11.703  13.333  69.100  1.00  0.00    -0.379 C  
HETATM   33  C   UNL     1      -9.159  11.097  67.112  1.00  0.00    -0.147 C  
HETATM   34  H   UNL     1      -7.956  10.464  65.667  1.00  0.00     0.000 HD 
HETATM   35  C   UNL     1     -10.181   9.994  66.827  1.00  0.00    -0.232 C  
HETATM   36  O   UNL     1      -8.386  11.275  65.912  1.00  0.00    -0.130 OA 
HETATM   37  O   UNL     1      -9.509   8.741  66.611  1.00  0.00    -0.170 OA 
HETATM   38  H   UNL     1      -8.865   8.802  65.915  1.00  0.00     0.000 HD 
BRANCH  31  39
HETATM   39  N   UNL     1      -8.932  13.499  67.935  1.00  0.00    -0.190 NA 
HETATM   40  H   UNL     1      -8.577  13.563  68.890  1.00  0.00     0.000 HD 
BRANCH  39  41
HETATM   41  C   UNL     1      -8.547  14.482  66.881  1.00  0.00    -0.179 C  
HETATM   42  C   UNL     1     -10.345  15.799  65.679  1.00  0.00    -0.411 C  
HETATM   43  C   UNL     1      -9.679  14.668  65.917  1.00  0.00    -0.341 C  
HETATM   44  C   UNL     1      -9.935  17.099  66.316  1.00  0.00    -0.304 C  
HETATM   45  H   UNL     1      -8.259  16.552  69.433  1.00  0.00     0.000 HD 
HETATM   46  O   UNL     1      -8.536  15.759  68.989  1.00  0.00    -0.207 OA 
HETATM   47  C   UNL     1      -8.531  17.114  66.974  1.00  0.00    -0.211 C  
HETATM   48  O   UNL     1     -10.939  17.454  67.262  1.00  0.00    -0.190 OA 
HETATM   49  H   UNL     1      -6.682  17.525  66.415  1.00  0.00     0.000 HD 
HETATM   50  O   UNL     1      -7.542  17.515  66.012  1.00  0.00    -0.414 OA 
HETATM   51  C   UNL     1      -8.092  15.789  67.613  1.00  0.00    -0.147 C  
HETATM   52  H   UNL     1     -10.680  18.274  67.665  1.00  0.00     0.000 HD 
BRANCH  42  53
HETATM   53  C   UNL     1     -11.559  15.872  64.779  1.00  0.00    -0.137 C  
HETATM   54  O   UNL     1     -11.312  16.631  63.600  1.00  0.00    -1.230 OA 
HETATM   55  H   UNL     1     -12.074  16.678  63.035  1.00  0.00     0.000 HD 
ENDBRANCH  42  53
ENDBRANCH  39  41
ENDBRANCH  31  39
ENDBRANCH  27  28
ENDBRANCH  23  27
ENDBRANCH  13  14
ENDBRANCH   4  13
ENDBRANCH   1   4
BRANCH   1  56
HETATM   56  C   UNL     1      -8.237   3.148  72.605  1.00  0.00    -0.075 C  
HETATM   57  O   UNL     1      -7.834   2.496  73.812  1.00  0.00    -0.053 OA 
HETATM   58  H   UNL     1      -7.263   1.769  73.594  1.00  0.00     0.000 HD 
ENDBRANCH   1  56
TORSDOF 12
ENDMDL
MODEL       49
REMARK 921   NORMALIZED FREE ENERGY PREDICTED BY IDOCK:   -6.17 KCAL/MOL
REMARK 922        TOTAL FREE ENERGY PREDICTED BY IDOCK:  -13.68 KCAL/MOL
REMARK 923 INTER-LIGAND FREE ENERGY PREDICTED BY IDOCK:  -10.28 KCAL/MOL
REMARK 924 INTRA-LIGAND FREE ENERGY PREDICTED BY IDOCK:   -3.41 KCAL/MOL
REMARK 927      BINDING AFFINITY PREDICTED BY RF-SCORE:    0.00 PKD
ROOT
HETATM    1  C   UNL     1      -9.827   5.718  71.982  1.00  0.00    -0.155 C  
HETATM    2  H   UNL     1     -11.575   5.009  71.533  1.00  0.00     0.000 HD 
HETATM    3  O   UNL     1     -10.924   4.820  72.199  1.00  0.00    -0.087 OA 
ENDROOT
BRANCH   1   4
HETATM    4  C   UNL     1     -10.268   7.212  71.951  1.00  0.00    -0.190 C  
BRANCH   4   5
HETATM    5  C   UNL     1     -11.820   7.380  71.901  1.00  0.00    -0.297 C  
HETATM    6  O   UNL     1     -12.385   6.706  70.766  1.00  0.00    -0.377 OA 
HETATM    7  H   UNL     1     -13.329   6.807  70.736  1.00  0.00     0.000 HD 
BRANCH   5   8
HETATM    8  C   UNL     1     -12.308   8.833  71.849  1.00  0.00    -0.363 C  
HETATM    9  C   UNL     1     -13.808   8.915  72.027  1.00  0.00    -0.456 C  
HETATM   10  O   UNL     1     -11.973   9.361  70.556  1.00  0.00    -0.416 OA 
HETATM   11  O   UNL     1     -14.341   9.040  73.128  1.00  0.00    -0.346 OA 
HETATM   12  H   UNL     1     -12.275  10.261  70.524  1.00  0.00     0.000 HD 
ENDBRANCH   5   8
ENDBRANCH   4   5
BRANCH   4  13
HETATM   13  O   UNL     1      -9.670   7.949  70.857  1.00  0.00    -0.164 OA 
BRANCH  13  14
HETATM   14  C   UNL     1      -8.855   7.163  69.973  1.00  0.00    -0.142 C  
HETATM   15  H   UNL     1      -5.881   9.768  69.415  1.00  0.00     0.000 HD 
HETATM   16  O   UNL     1      -6.746   8.061  70.937  1.00  0.00    -0.037 OA 
HETATM   17  C   UNL     1      -7.503   7.856  69.735  1.00  0.00    -0.088 C  
HETATM   18  O   UNL     1      -9.453   6.926  68.706  1.00  0.00    -0.137 OA 
HETATM   19  O   UNL     1      -6.444   9.721  68.651  1.00  0.00    -0.047 OA 
HETATM   20  C   UNL     1      -9.784   8.117  67.985  1.00  0.00    -0.161 C  
HETATM   21  H   UNL     1      -5.911   8.490  70.790  1.00  0.00     0.000 HD 
HETATM   22  C   UNL     1      -7.725   9.206  69.066  1.00  0.00    -0.078 C  
HETATM   23  C   UNL     1      -8.636   9.130  67.830  1.00  0.00    -0.121 C  
BRANCH  20  24
HETATM   24  C   UNL     1     -10.366   7.681  66.621  1.00  0.00    -0.187 C  
HETATM   25  O   UNL     1      -9.692   8.248  65.495  1.00  0.00    -0.375 OA 
HETATM   26  H   UNL     1     -10.050   7.980  64.657  1.00  0.00     0.000 HD 
ENDBRANCH  20  24
BRANCH  23  27
HETATM   27  O   UNL     1      -9.265  10.416  67.572  1.00  0.00    -0.144 OA 
BRANCH  27  28
HETATM   28  C   UNL     1      -9.744  11.065  68.756  1.00  0.00    -0.191 C  
HETATM   29  O   UNL     1      -8.822  12.053  69.193  1.00  0.00     0.267 OA 
HETATM   30  C   UNL     1      -8.617  13.075  68.214  1.00  0.00    -0.167 C  
HETATM   31  C   UNL     1      -9.935  13.864  68.008  1.00  0.00    -0.241 C  
HETATM   32  C   UNL     1      -7.439  13.904  68.722  1.00  0.00    -0.114 C  
HETATM   33  C   UNL     1     -11.051  12.878  67.567  1.00  0.00    -0.269 C  
HETATM   34  H   UNL     1     -13.019  12.919  67.323  1.00  0.00     0.000 HD 
HETATM   35  C   UNL     1     -11.132  11.678  68.513  1.00  0.00    -0.235 C  
HETATM   36  O   UNL     1     -12.337  13.523  67.593  1.00  0.00    -0.248 OA 
HETATM   37  O   UNL     1     -12.061  10.706  67.999  1.00  0.00    -0.755 OA 
HETATM   38  H   UNL     1     -12.919  11.085  67.849  1.00  0.00     0.000 HD 
BRANCH  31  39
HETATM   39  N   UNL     1      -9.706  14.984  67.062  1.00  0.00    -0.231 NA 
HETATM   40  H   UNL     1      -9.293  14.838  66.141  1.00  0.00     0.000 HD 
BRANCH  39  41
HETATM   41  C   UNL     1     -10.117  16.338  67.539  1.00  0.00    -0.258 C  
HETATM   42  C   UNL     1      -8.350  18.083  68.028  1.00  0.00    -0.263 C  
HETATM   43  C   UNL     1      -9.005  16.961  68.327  1.00  0.00    -0.235 C  
HETATM   44  C   UNL     1      -8.753  18.939  66.858  1.00  0.00    -0.300 C  
HETATM   45  H   UNL     1     -10.364  16.996  64.316  1.00  0.00     0.000 HD 
HETATM   46  O   UNL     1     -10.093  16.501  65.080  1.00  0.00    -0.536 OA 
HETATM   47  C   UNL     1     -10.144  18.631  66.245  1.00  0.00    -0.400 C  
HETATM   48  O   UNL     1      -7.732  18.831  65.869  1.00  0.00    -0.439 OA 
HETATM   49  H   UNL     1     -12.005  19.228  66.523  1.00  0.00     0.000 HD 
HETATM   50  O   UNL     1     -11.153  19.417  66.899  1.00  0.00    -0.388 OA 
HETATM   51  C   UNL     1     -10.563  17.154  66.281  1.00  0.00    -0.185 C  
HETATM   52  H   UNL     1      -7.987  19.371  65.130  1.00  0.00     0.000 HD 
BRANCH  42  53
HETATM   53  C   UNL     1      -7.154  18.579  68.811  1.00  0.00    -0.291 C  
HETATM   54  O   UNL     1      -6.276  19.368  68.015  1.00  0.00    -0.205 OA 
HETATM   55  H   UNL     1      -5.525  19.679  68.507  1.00  0.00     0.000 HD 
ENDBRANCH  42  53
ENDBRANCH  39  41
ENDBRANCH  31  39
ENDBRANCH  27  28
ENDBRANCH  23  27
ENDBRANCH  13  14
ENDBRANCH   4  13
ENDBRANCH   1   4
BRANCH   1  56
HETATM   56  C   UNL     1      -8.779   5.415  73.055  1.00  0.00    -0.121 C  
HETATM   57  O   UNL     1      -8.046   6.609  73.338  1.00  0.00    -0.107 OA 
HETATM   58  H   UNL     1      -7.395   6.421  74.004  1.00  0.00     0.000 HD 
ENDBRANCH   1  56
TORSDOF 12
ENDMDL
MODEL       50
REMARK 921   NORMALIZED FREE ENERGY PREDICTED BY IDOCK:   -6.14 KCAL/MOL
REMARK 922        TOTAL FREE ENERGY PREDICTED BY IDOCK:  -13.65 KCAL/MOL
REMARK 923 INTER-LIGAND FREE ENERGY PREDICTED BY IDOCK:   -9.88 KCAL/MOL
REMARK 924 INTRA-LIGAND FREE ENERGY PREDICTED BY IDOCK:   -3.76 KCAL/MOL
REMARK 927      BINDING AFFINITY PREDICTED BY RF-SCORE:    0.00 PKD
ROOT
HETATM    1  C   UNL     1      -7.582  15.642  68.130  1.00  0.00    -0.120 C  
HETATM    2  H   UNL     1      -6.017  16.163  67.113  1.00  0.00     0.000 HD 
HETATM    3  O   UNL     1      -6.192  15.529  67.798  1.00  0.00    -0.136 OA 
ENDROOT
BRANCH   1   4
HETATM    4  C   UNL     1      -8.513  15.488  66.891  1.00  0.00    -0.254 C  
BRANCH   4   5
HETATM    5  C   UNL     1      -9.542  16.655  66.763  1.00  0.00    -0.257 C  
HETATM    6  O   UNL     1      -9.307  17.436  65.582  1.00  0.00    -0.496 OA 
HETATM    7  H   UNL     1      -9.933  18.147  65.504  1.00  0.00     0.000 HD 
BRANCH   5   8
HETATM    8  C   UNL     1      -9.561  17.628  67.949  1.00  0.00    -0.282 C  
HETATM    9  C   UNL     1     -10.872  17.553  68.700  1.00  0.00    -0.075 C  
HETATM   10  O   UNL     1      -9.410  18.957  67.426  1.00  0.00    -0.286 OA 
HETATM   11  O   UNL     1     -11.054  16.790  69.646  1.00  0.00    -0.237 OA 
HETATM   12  H   UNL     1      -9.421  19.559  68.161  1.00  0.00     0.000 HD 
ENDBRANCH   5   8
ENDBRANCH   4   5
BRANCH   4  13
HETATM   13  O   UNL     1      -9.218  14.223  66.875  1.00  0.00    -0.233 OA 
BRANCH  13  14
HETATM   14  C   UNL     1     -10.523  14.265  66.275  1.00  0.00    -0.291 C  
HETATM   15  H   UNL     1     -12.417  11.790  68.772  1.00  0.00     0.000 HD 
HETATM   16  O   UNL     1     -11.664  14.098  68.480  1.00  0.00    -0.306 OA 
HETATM   17  C   UNL     1     -11.543  13.534  67.164  1.00  0.00    -0.357 C  
HETATM   18  O   UNL     1     -10.576  13.682  64.981  1.00  0.00    -0.337 OA 
HETATM   19  O   UNL     1     -12.243  11.369  67.938  1.00  0.00    -0.592 OA 
HETATM   20  C   UNL     1     -10.166  12.311  64.942  1.00  0.00    -0.281 C  
HETATM   21  H   UNL     1     -12.294  13.646  69.029  1.00  0.00     0.000 HD 
HETATM   22  C   UNL     1     -11.155  12.068  67.299  1.00  0.00    -0.285 C  
HETATM   23  C   UNL     1     -10.872  11.388  65.951  1.00  0.00    -0.234 C  
BRANCH  20  24
HETATM   24  C   UNL     1     -10.338  11.823  63.485  1.00  0.00    -0.448 C  
HETATM   25  O   UNL     1     -11.675  11.444  63.153  1.00  0.00    -0.870 OA 
HETATM   26  H   UNL     1     -11.779  11.144  62.258  1.00  0.00     0.000 HD 
ENDBRANCH  20  24
BRANCH  23  27
HETATM   27  O   UNL     1      -9.997  10.238  66.125  1.00  0.00    -0.215 OA 
BRANCH  27  28
HETATM   28  C   UNL     1      -8.735  10.567  66.718  1.00  0.00    -0.132 C  
HETATM   29  O   UNL     1      -8.841  10.599  68.133  1.00  0.00    -0.127 OA 
HETATM   30  C   UNL     1      -9.238   9.337  68.676  1.00  0.00    -0.135 C  
HETATM   31  C   UNL     1      -8.128   8.288  68.411  1.00  0.00    -0.127 C  
HETATM   32  C   UNL     1      -9.542   9.598  70.149  1.00  0.00    -0.300 C  
HETATM   33  C   UNL     1      -7.880   8.190  66.881  1.00  0.00    -0.096 C  
HETATM   34  H   UNL     1      -6.553   7.349  65.671  1.00  0.00     0.000 HD 
HETATM   35  C   UNL     1      -7.652   9.574  66.269  1.00  0.00    -0.097 C  
HETATM   36  O   UNL     1      -6.704   7.408  66.606  1.00  0.00    -0.057 OA 
HETATM   37  O   UNL     1      -7.581   9.474  64.835  1.00  0.00    -0.104 OA 
HETATM   38  H   UNL     1      -6.912   8.861  64.558  1.00  0.00     0.000 HD 
BRANCH  31  39
HETATM   39  N   UNL     1      -8.491   7.000  69.051  1.00  0.00    -0.128 NA 
HETATM   40  H   UNL     1      -9.344   6.497  68.807  1.00  0.00     0.000 HD 
BRANCH  39  41
HETATM   41  C   UNL     1      -7.534   6.484  70.073  1.00  0.00    -0.094 C  
HETATM   42  C   UNL     1      -6.335   8.108  71.602  1.00  0.00    -0.045 C  
HETATM   43  C   UNL     1      -6.526   7.541  70.410  1.00  0.00    -0.038 C  
HETATM   44  C   UNL     1      -7.087   7.644  72.820  1.00  0.00    -0.076 C  
HETATM   45  H   UNL     1     -10.242   6.198  71.935  1.00  0.00     0.000 HD 
HETATM   46  O   UNL     1      -9.727   6.505  71.197  1.00  0.00    -0.174 OA 
HETATM   47  C   UNL     1      -7.819   6.284  72.683  1.00  0.00    -0.105 C  
HETATM   48  O   UNL     1      -8.002   8.674  73.184  1.00  0.00    -0.392 OA 
HETATM   49  H   UNL     1      -7.392   4.380  72.990  1.00  0.00     0.000 HD 
HETATM   50  O   UNL     1      -6.943   5.213  73.074  1.00  0.00    -0.074 OA 
HETATM   51  C   UNL     1      -8.382   5.980  71.288  1.00  0.00    -0.124 C  
HETATM   52  H   UNL     1      -8.477   8.381  73.953  1.00  0.00     0.000 HD 
BRANCH  42  53
HETATM   53  C   UNL     1      -5.380   9.258  71.829  1.00  0.00    -0.064 C  
HETATM   54  O   UNL     1      -6.008  10.524  71.656  1.00  0.00    -0.309 OA 
HETATM   55  H   UNL     1      -5.408  11.247  71.798  1.00  0.00     0.000 HD 
ENDBRANCH  42  53
ENDBRANCH  39  41
ENDBRANCH  31  39
ENDBRANCH  27  28
ENDBRANCH  23  27
ENDBRANCH  13  14
ENDBRANCH   4  13
ENDBRANCH   1   4
BRANCH   1  56
HETATM   56  C   UNL     1      -7.864  14.620  69.235  1.00  0.00    -0.071 C  
HETATM   57  O   UNL     1      -9.195  14.818  69.720  1.00  0.00    -0.422 OA 
HETATM   58  H   UNL     1      -9.370  14.183  70.405  1.00  0.00     0.000 HD 
ENDBRANCH   1  56
TORSDOF 12
ENDMDL
MODEL       51
REMARK 921   NORMALIZED FREE ENERGY PREDICTED BY IDOCK:   -6.09 KCAL/MOL
REMARK 922        TOTAL FREE ENERGY PREDICTED BY IDOCK:  -13.56 KCAL/MOL
REMARK 923 INTER-LIGAND FREE ENERGY PREDICTED BY IDOCK:  -10.26 KCAL/MOL
REMARK 924 INTRA-LIGAND FREE ENERGY PREDICTED BY IDOCK:   -3.30 KCAL/MOL
REMARK 927      BINDING AFFINITY PREDICTED BY RF-SCORE:    0.00 PKD
ROOT
HETATM    1  C   UNL     1     -11.490  13.530  64.313  1.00  0.00    -0.383 C  
HETATM    2  H   UNL     1     -11.012  15.289  64.971  1.00  0.00     0.000 HD 
HETATM    3  O   UNL     1     -11.579  14.960  64.283  1.00  0.00    -0.300 OA 
ENDROOT
BRANCH   1   4
HETATM    4  C   UNL     1     -11.809  12.934  65.717  1.00  0.00    -0.419 C  
BRANCH   4   5
HETATM    5  C   UNL     1     -11.683  13.990  66.860  1.00  0.00    -0.410 C  
HETATM    6  O   UNL     1     -10.346  14.502  66.958  1.00  0.00    -0.260 OA 
HETATM    7  H   UNL     1     -10.269  15.145  67.654  1.00  0.00     0.000 HD 
BRANCH   5   8
HETATM    8  C   UNL     1     -12.072  13.479  68.253  1.00  0.00    -0.260 C  
HETATM    9  C   UNL     1     -11.029  13.848  69.284  1.00  0.00    -0.183 C  
HETATM   10  O   UNL     1     -12.160  12.047  68.185  1.00  0.00    -0.480 OA 
HETATM   11  O   UNL     1     -11.074  14.893  69.931  1.00  0.00    -0.258 OA 
HETATM   12  H   UNL     1     -12.401  11.731  69.047  1.00  0.00     0.000 HD 
ENDBRANCH   5   8
ENDBRANCH   4   5
BRANCH   4  13
HETATM   13  O   UNL     1     -10.989  11.783  66.035  1.00  0.00    -0.291 OA 
BRANCH  13  14
HETATM   14  C   UNL     1      -9.633  11.859  65.566  1.00  0.00    -0.182 C  
HETATM   15  H   UNL     1      -9.089   8.006  64.668  1.00  0.00     0.000 HD 
HETATM   16  O   UNL     1     -10.016  10.111  63.837  1.00  0.00    -0.438 OA 
HETATM   17  C   UNL     1      -9.205  10.515  64.952  1.00  0.00    -0.215 C  
HETATM   18  O   UNL     1      -8.696  12.192  66.580  1.00  0.00    -0.195 OA 
HETATM   19  O   UNL     1      -8.636   8.238  65.470  1.00  0.00    -0.157 OA 
HETATM   20  C   UNL     1      -8.683  11.283  67.685  1.00  0.00    -0.131 C  
HETATM   21  H   UNL     1      -9.752   9.280  63.458  1.00  0.00     0.000 HD 
HETATM   22  C   UNL     1      -9.258   9.422  66.011  1.00  0.00    -0.200 C  
HETATM   23  C   UNL     1      -8.527   9.798  67.309  1.00  0.00    -0.125 C  
BRANCH  20  24
HETATM   24  C   UNL     1      -7.580  11.758  68.658  1.00  0.00    -0.125 C  
HETATM   25  O   UNL     1      -7.600  11.099  69.925  1.00  0.00    -0.332 OA 
HETATM   26  H   UNL     1      -6.922  11.391  70.522  1.00  0.00     0.000 HD 
ENDBRANCH  20  24
BRANCH  23  27
HETATM   27  O   UNL     1      -9.050   9.041  68.436  1.00  0.00    -0.133 OA 
BRANCH  27  28
HETATM   28  C   UNL     1     -10.473   8.872  68.397  1.00  0.00    -0.187 C  
HETATM   29  O   UNL     1     -10.809   7.554  67.990  1.00  0.00    -0.144 OA 
HETATM   30  C   UNL     1     -10.297   6.562  68.884  1.00  0.00    -0.196 C  
HETATM   31  C   UNL     1     -10.983   6.709  70.265  1.00  0.00    -0.303 C  
HETATM   32  C   UNL     1     -10.524   5.222  68.188  1.00  0.00    -0.140 C  
HETATM   33  C   UNL     1     -10.728   8.141  70.808  1.00  0.00    -0.222 C  
HETATM   34  H   UNL     1     -11.381   9.273  72.300  1.00  0.00     0.000 HD 
HETATM   35  C   UNL     1     -11.093   9.200  69.764  1.00  0.00    -0.125 C  
HETATM   36  O   UNL     1     -11.537   8.397  71.969  1.00  0.00    -0.302 OA 
HETATM   37  O   UNL     1     -10.702  10.505  70.228  1.00  0.00    -0.429 OA 
HETATM   38  H   UNL     1     -11.085  10.708  71.072  1.00  0.00     0.000 HD 
BRANCH  31  39
HETATM   39  N   UNL     1     -10.527   5.626  71.171  1.00  0.00    -0.231 NA 
HETATM   40  H   UNL     1     -11.146   5.203  71.863  1.00  0.00     0.000 HD 
BRANCH  39  41
HETATM   41  C   UNL     1      -9.108   5.193  71.011  1.00  0.00    -0.145 C  
HETATM   42  C   UNL     1      -7.252   6.574  72.040  1.00  0.00    -0.086 C  
HETATM   43  C   UNL     1      -8.196   6.378  71.118  1.00  0.00    -0.122 C  
HETATM   44  C   UNL     1      -6.920   5.518  73.059  1.00  0.00    -0.080 C  
HETATM   45  H   UNL     1      -9.733   3.399  73.708  1.00  0.00     0.000 HD 
HETATM   46  O   UNL     1      -9.892   4.082  73.066  1.00  0.00    -0.125 OA 
HETATM   47  C   UNL     1      -7.481   4.102  72.772  1.00  0.00    -0.074 C  
HETATM   48  O   UNL     1      -7.362   5.988  74.330  1.00  0.00    -0.087 OA 
HETATM   49  H   UNL     1      -6.883   2.481  71.816  1.00  0.00     0.000 HD 
HETATM   50  O   UNL     1      -6.539   3.348  71.992  1.00  0.00    -0.014 OA 
HETATM   51  C   UNL     1      -8.846   4.069  72.068  1.00  0.00    -0.109 C  
HETATM   52  H   UNL     1      -7.153   5.321  74.974  1.00  0.00     0.000 HD 
BRANCH  42  53
HETATM   53  C   UNL     1      -6.458   7.857  72.152  1.00  0.00    -0.056 C  
HETATM   54  O   UNL     1      -7.289   9.012  72.106  1.00  0.00    -0.334 OA 
HETATM   55  H   UNL     1      -6.790   9.817  72.176  1.00  0.00     0.000 HD 
ENDBRANCH  42  53
ENDBRANCH  39  41
ENDBRANCH  31  39
ENDBRANCH  27  28
ENDBRANCH  23  27
ENDBRANCH  13  14
ENDBRANCH   4  13
ENDBRANCH   1   4
BRANCH   1  56
HETATM   56  C   UNL     1     -12.404  13.000  63.205  1.00  0.00    -0.306 C  
HETATM   57  O   UNL     1     -12.211  11.589  63.080  1.00  0.00    -0.968 OA 
HETATM   58  H   UNL     1     -12.779  11.260  62.392  1.00  0.00     0.000 HD 
ENDBRANCH   1  56
TORSDOF 12
ENDMDL
MODEL       52
REMARK 921   NORMALIZED FREE ENERGY PREDICTED BY IDOCK:   -6.00 KCAL/MOL
REMARK 922        TOTAL FREE ENERGY PREDICTED BY IDOCK:  -13.40 KCAL/MOL
REMARK 923 INTER-LIGAND FREE ENERGY PREDICTED BY IDOCK:  -10.46 KCAL/MOL
REMARK 924 INTRA-LIGAND FREE ENERGY PREDICTED BY IDOCK:   -2.95 KCAL/MOL
REMARK 927      BINDING AFFINITY PREDICTED BY RF-SCORE:    0.00 PKD
ROOT
HETATM    1  C   UNL     1      -9.179   5.141  70.960  1.00  0.00    -0.147 C  
HETATM    2  H   UNL     1     -10.677   4.213  70.152  1.00  0.00     0.000 HD 
HETATM    3  O   UNL     1     -10.148   4.085  70.932  1.00  0.00    -0.149 OA 
ENDROOT
BRANCH   1   4
HETATM    4  C   UNL     1      -9.826   6.556  70.875  1.00  0.00    -0.183 C  
BRANCH   4   5
HETATM    5  C   UNL     1     -11.367   6.498  70.634  1.00  0.00    -0.351 C  
HETATM    6  O   UNL     1     -11.772   7.408  69.600  1.00  0.00    -0.460 OA 
HETATM    7  H   UNL     1     -12.710   7.373  69.453  1.00  0.00     0.000 HD 
BRANCH   5   8
HETATM    8  C   UNL     1     -12.223   6.811  71.868  1.00  0.00    -0.335 C  
HETATM    9  C   UNL     1     -11.870   8.160  72.454  1.00  0.00    -0.388 C  
HETATM   10  O   UNL     1     -11.955   5.801  72.854  1.00  0.00    -0.535 OA 
HETATM   11  O   UNL     1     -12.430   9.200  72.114  1.00  0.00    -0.368 OA 
HETATM   12  H   UNL     1     -12.485   5.994  73.618  1.00  0.00     0.000 HD 
ENDBRANCH   5   8
ENDBRANCH   4   5
BRANCH   4  13
HETATM   13  O   UNL     1      -9.212   7.390  69.862  1.00  0.00    -0.145 OA 
BRANCH  13  14
HETATM   14  C   UNL     1      -7.964   6.898  69.348  1.00  0.00    -0.115 C  
HETATM   15  H   UNL     1      -5.824  10.257  69.641  1.00  0.00     0.000 HD 
HETATM   16  O   UNL     1      -6.637   8.323  70.897  1.00  0.00    -0.036 OA 
HETATM   17  C   UNL     1      -6.860   7.954  69.527  1.00  0.00    -0.047 C  
HETATM   18  O   UNL     1      -8.012   6.547  67.973  1.00  0.00    -0.107 OA 
HETATM   19  O   UNL     1      -6.062  10.079  68.738  1.00  0.00    -0.041 OA 
HETATM   20  C   UNL     1      -8.401   7.620  67.109  1.00  0.00    -0.121 C  
HETATM   21  H   UNL     1      -5.955   8.976  71.007  1.00  0.00     0.000 HD 
HETATM   22  C   UNL     1      -7.212   9.208  68.739  1.00  0.00    -0.074 C  
HETATM   23  C   UNL     1      -7.597   8.921  67.279  1.00  0.00    -0.089 C  
BRANCH  20  24
HETATM   24  C   UNL     1      -8.347   7.085  65.660  1.00  0.00    -0.136 C  
HETATM   25  O   UNL     1      -9.305   6.062  65.383  1.00  0.00    -0.370 OA 
HETATM   26  H   UNL     1      -9.272   5.734  64.492  1.00  0.00     0.000 HD 
ENDBRANCH  20  24
BRANCH  23  27
HETATM   27  O   UNL     1      -8.435   9.985  66.746  1.00  0.00    -0.125 OA 
BRANCH  27  28
HETATM   28  C   UNL     1      -9.806   9.602  66.584  1.00  0.00    -0.224 C  
HETATM   29  O   UNL     1     -10.527   9.801  67.791  1.00  0.00    -0.213 OA 
HETATM   30  C   UNL     1     -10.524  11.169  68.206  1.00  0.00    -0.191 C  
HETATM   31  C   UNL     1     -11.295  12.025  67.169  1.00  0.00    -0.333 C  
HETATM   32  C   UNL     1     -11.112  11.176  69.615  1.00  0.00    -0.297 C  
HETATM   33  C   UNL     1     -10.626  11.857  65.777  1.00  0.00    -0.267 C  
HETATM   34  H   UNL     1     -11.034  12.339  63.896  1.00  0.00     0.000 HD 
HETATM   35  C   UNL     1     -10.450  10.379  65.424  1.00  0.00    -0.117 C  
HETATM   36  O   UNL     1     -11.443  12.442  64.747  1.00  0.00    -0.307 OA 
HETATM   37  O   UNL     1      -9.691  10.248  64.209  1.00  0.00    -0.304 OA 
HETATM   38  H   UNL     1     -10.088  10.728  63.492  1.00  0.00     0.000 HD 
BRANCH  31  39
HETATM   39  N   UNL     1     -11.376  13.430  67.638  1.00  0.00    -0.276 NA 
HETATM   40  H   UNL     1     -12.245  13.833  67.990  1.00  0.00     0.000 HD 
BRANCH  39  41
HETATM   41  C   UNL     1     -10.112  14.220  67.564  1.00  0.00    -0.236 C  
HETATM   42  C   UNL     1     -10.189  16.643  66.833  1.00  0.00    -0.291 C  
HETATM   43  C   UNL     1     -10.264  15.337  66.575  1.00  0.00    -0.282 C  
HETATM   44  C   UNL     1      -9.823  17.153  68.200  1.00  0.00    -0.281 C  
HETATM   45  H   UNL     1     -10.722  14.806  70.752  1.00  0.00     0.000 HD 
HETATM   46  O   UNL     1     -10.930  14.528  69.868  1.00  0.00    -0.209 OA 
HETATM   47  C   UNL     1      -9.220  16.105  69.171  1.00  0.00    -0.246 C  
HETATM   48  O   UNL     1     -10.984  17.754  68.765  1.00  0.00    -0.217 OA 
HETATM   49  H   UNL     1      -7.422  15.428  69.626  1.00  0.00     0.000 HD 
HETATM   50  O   UNL     1      -7.791  16.070  69.031  1.00  0.00    -0.196 OA 
HETATM   51  C   UNL     1      -9.769  14.679  69.020  1.00  0.00    -0.160 C  
HETATM   52  H   UNL     1     -10.753  18.076  69.628  1.00  0.00     0.000 HD 
BRANCH  42  53
HETATM   53  C   UNL     1     -10.478  17.709  65.799  1.00  0.00    -0.205 C  
HETATM   54  O   UNL     1     -11.110  17.178  64.639  1.00  0.00    -1.036 OA 
HETATM   55  H   UNL     1     -11.291  17.848  63.989  1.00  0.00     0.000 HD 
ENDBRANCH  42  53
ENDBRANCH  39  41
ENDBRANCH  31  39
ENDBRANCH  27  28
ENDBRANCH  23  27
ENDBRANCH  13  14
ENDBRANCH   4  13
ENDBRANCH   1   4
BRANCH   1  56
HETATM   56  C   UNL     1      -8.328   4.935  72.216  1.00  0.00    -0.120 C  
HETATM   57  O   UNL     1      -9.106   5.280  73.365  1.00  0.00    -0.128 OA 
HETATM   58  H   UNL     1      -8.578   5.152  74.144  1.00  0.00     0.000 HD 
ENDBRANCH   1  56
TORSDOF 12
ENDMDL
MODEL       53
REMARK 921   NORMALIZED FREE ENERGY PREDICTED BY IDOCK:   -5.99 KCAL/MOL
REMARK 922        TOTAL FREE ENERGY PREDICTED BY IDOCK:  -13.38 KCAL/MOL
REMARK 923 INTER-LIGAND FREE ENERGY PREDICTED BY IDOCK:  -10.15 KCAL/MOL
REMARK 924 INTRA-LIGAND FREE ENERGY PREDICTED BY IDOCK:   -3.23 KCAL/MOL
REMARK 927      BINDING AFFINITY PREDICTED BY RF-SCORE:    0.00 PKD
ROOT
HETATM    1  C   UNL     1     -11.536  14.233  64.947  1.00  0.00    -0.384 C  
HETATM    2  H   UNL     1     -11.152  15.992  65.667  1.00  0.00     0.000 HD 
HETATM    3  O   UNL     1     -11.678  15.660  64.948  1.00  0.00    -0.189 OA 
ENDROOT
BRANCH   1   4
HETATM    4  C   UNL     1     -11.891  13.591  66.321  1.00  0.00    -0.392 C  
BRANCH   4   5
HETATM    5  C   UNL     1     -11.745  14.594  67.509  1.00  0.00    -0.379 C  
HETATM    6  O   UNL     1     -10.413  15.125  67.588  1.00  0.00    -0.246 OA 
HETATM    7  H   UNL     1     -10.324  15.735  68.311  1.00  0.00     0.000 HD 
BRANCH   5   8
HETATM    8  C   UNL     1     -12.080  14.012  68.888  1.00  0.00    -0.316 C  
HETATM    9  C   UNL     1     -12.107  15.090  69.948  1.00  0.00    -0.334 C  
HETATM   10  O   UNL     1     -11.052  13.067  69.224  1.00  0.00    -0.372 OA 
HETATM   11  O   UNL     1     -13.128  15.710  70.240  1.00  0.00    -0.301 OA 
HETATM   12  H   UNL     1     -11.259  12.706  70.078  1.00  0.00     0.000 HD 
ENDBRANCH   5   8
ENDBRANCH   4   5
BRANCH   4  13
HETATM   13  O   UNL     1     -11.113  12.402  66.600  1.00  0.00    -0.263 OA 
BRANCH  13  14
HETATM   14  C   UNL     1      -9.852  12.330  65.913  1.00  0.00    -0.251 C  
HETATM   15  H   UNL     1      -9.843   8.425  65.075  1.00  0.00     0.000 HD 
HETATM   16  O   UNL     1     -10.685  10.598  64.333  1.00  0.00    -0.317 OA 
HETATM   17  C   UNL     1      -9.665  10.938  65.285  1.00  0.00    -0.246 C  
HETATM   18  O   UNL     1      -8.732  12.584  66.749  1.00  0.00    -0.200 OA 
HETATM   19  O   UNL     1      -9.244   8.625  65.784  1.00  0.00    -0.212 OA 
HETATM   20  C   UNL     1      -8.625  11.699  67.868  1.00  0.00    -0.150 C  
HETATM   21  H   UNL     1     -10.570   9.738  63.946  1.00  0.00     0.000 HD 
HETATM   22  C   UNL     1      -9.648   9.877  66.377  1.00  0.00    -0.200 C  
HETATM   23  C   UNL     1      -8.679  10.200  67.524  1.00  0.00    -0.125 C  
BRANCH  20  24
HETATM   24  C   UNL     1      -7.334  12.077  68.630  1.00  0.00    -0.111 C  
HETATM   25  O   UNL     1      -6.944  11.123  69.619  1.00  0.00    -0.184 OA 
HETATM   26  H   UNL     1      -6.151  11.356  70.087  1.00  0.00     0.000 HD 
ENDBRANCH  20  24
BRANCH  23  27
HETATM   27  O   UNL     1      -9.080   9.521  68.747  1.00  0.00    -0.130 OA 
BRANCH  27  28
HETATM   28  C   UNL     1     -10.445   9.085  68.736  1.00  0.00    -0.206 C  
HETATM   29  O   UNL     1     -10.530   7.718  68.362  1.00  0.00    -0.201 OA 
HETATM   30  C   UNL     1      -9.829   6.862  69.268  1.00  0.00    -0.157 C  
HETATM   31  C   UNL     1     -10.514   6.910  70.658  1.00  0.00    -0.210 C  
HETATM   32  C   UNL     1      -9.807   5.487  68.606  1.00  0.00    -0.198 C  
HETATM   33  C   UNL     1     -10.527   8.378  71.166  1.00  0.00    -0.212 C  
HETATM   34  H   UNL     1     -11.364   9.402  72.644  1.00  0.00     0.000 HD 
HETATM   35  C   UNL     1     -11.099   9.323  70.106  1.00  0.00    -0.230 C  
HETATM   36  O   UNL     1     -11.356   8.504  72.334  1.00  0.00    -0.366 OA 
HETATM   37  O   UNL     1     -10.957  10.689  70.535  1.00  0.00    -0.438 OA 
HETATM   38  H   UNL     1     -11.361  10.836  71.381  1.00  0.00     0.000 HD 
BRANCH  31  39
HETATM   39  N   UNL     1      -9.849   5.955  71.579  1.00  0.00    -0.165 NA 
HETATM   40  H   UNL     1      -8.995   6.196  72.083  1.00  0.00     0.000 HD 
BRANCH  39  41
HETATM   41  C   UNL     1     -10.503   4.622  71.724  1.00  0.00    -0.079 C  
HETATM   42  C   UNL     1      -9.091   2.581  72.224  1.00  0.00    -0.129 C  
HETATM   43  C   UNL     1      -9.525   3.534  71.398  1.00  0.00    -0.226 C  
HETATM   44  C   UNL     1      -9.649   2.433  73.613  1.00  0.00    -0.086 C  
HETATM   45  H   UNL     1     -10.877   5.555  74.866  1.00  0.00     0.000 HD 
HETATM   46  O   UNL     1     -10.516   5.596  73.988  1.00  0.00    -0.258 OA 
HETATM   47  C   UNL     1     -10.960   3.210  73.900  1.00  0.00    -0.190 C  
HETATM   48  O   UNL     1      -8.628   2.809  74.533  1.00  0.00    -0.070 OA 
HETATM   49  H   UNL     1     -12.899   2.868  73.758  1.00  0.00     0.000 HD 
HETATM   50  O   UNL     1     -12.097   2.391  73.582  1.00  0.00    -0.070 OA 
HETATM   51  C   UNL     1     -11.097   4.555  73.171  1.00  0.00    -0.264 C  
HETATM   52  H   UNL     1      -8.981   2.716  75.411  1.00  0.00     0.000 HD 
BRANCH  42  53
HETATM   53  C   UNL     1      -8.007   1.594  71.852  1.00  0.00    -0.041 C  
HETATM   54  O   UNL     1      -6.757   1.912  72.456  1.00  0.00    -0.017 OA 
HETATM   55  H   UNL     1      -6.076   1.292  72.222  1.00  0.00     0.000 HD 
ENDBRANCH  42  53
ENDBRANCH  39  41
ENDBRANCH  31  39
ENDBRANCH  27  28
ENDBRANCH  23  27
ENDBRANCH  13  14
ENDBRANCH   4  13
ENDBRANCH   1   4
BRANCH   1  56
HETATM   56  C   UNL     1     -12.383  13.699  63.789  1.00  0.00    -0.296 C  
HETATM   57  O   UNL     1     -12.961  12.450  64.175  1.00  0.00    -0.744 OA 
HETATM   58  H   UNL     1     -13.487  12.118  63.456  1.00  0.00     0.000 HD 
ENDBRANCH   1  56
TORSDOF 12
ENDMDL
MODEL       54
REMARK 921   NORMALIZED FREE ENERGY PREDICTED BY IDOCK:   -5.98 KCAL/MOL
REMARK 922        TOTAL FREE ENERGY PREDICTED BY IDOCK:  -13.37 KCAL/MOL
REMARK 923 INTER-LIGAND FREE ENERGY PREDICTED BY IDOCK:  -10.37 KCAL/MOL
REMARK 924 INTRA-LIGAND FREE ENERGY PREDICTED BY IDOCK:   -3.01 KCAL/MOL
REMARK 927      BINDING AFFINITY PREDICTED BY RF-SCORE:    0.00 PKD
ROOT
HETATM    1  C   UNL     1      -7.316  13.183  67.509  1.00  0.00    -0.148 C  
HETATM    2  H   UNL     1      -8.448  12.117  68.666  1.00  0.00     0.000 HD 
HETATM    3  O   UNL     1      -7.510  12.231  68.563  1.00  0.00    -0.106 OA 
ENDROOT
BRANCH   1   4
HETATM    4  C   UNL     1      -8.079  14.519  67.754  1.00  0.00    -0.158 C  
BRANCH   4   5
HETATM    5  C   UNL     1      -7.120  15.713  68.055  1.00  0.00    -0.122 C  
HETATM    6  O   UNL     1      -7.245  16.158  69.415  1.00  0.00    -0.219 OA 
HETATM    7  H   UNL     1      -6.661  16.885  69.598  1.00  0.00     0.000 HD 
BRANCH   5   8
HETATM    8  C   UNL     1      -7.320  16.942  67.159  1.00  0.00    -0.179 C  
HETATM    9  C   UNL     1      -7.033  18.222  67.911  1.00  0.00    -0.211 C  
HETATM   10  O   UNL     1      -8.694  16.957  66.739  1.00  0.00    -0.204 OA 
HETATM   11  O   UNL     1      -5.919  18.740  67.942  1.00  0.00    -0.191 OA 
HETATM   12  H   UNL     1      -8.818  17.717  66.184  1.00  0.00     0.000 HD 
ENDBRANCH   5   8
ENDBRANCH   4   5
BRANCH   4  13
HETATM   13  O   UNL     1      -9.063  14.414  68.812  1.00  0.00    -0.188 OA 
BRANCH  13  14
HETATM   14  C   UNL     1     -10.272  15.158  68.589  1.00  0.00    -0.227 C  
HETATM   15  H   UNL     1     -12.586  13.380  71.315  1.00  0.00     0.000 HD 
HETATM   16  O   UNL     1     -10.881  15.104  71.001  1.00  0.00    -0.531 OA 
HETATM   17  C   UNL     1     -11.317  14.813  69.663  1.00  0.00    -0.283 C  
HETATM   18  O   UNL     1     -10.860  14.924  67.318  1.00  0.00    -0.291 OA 
HETATM   19  O   UNL     1     -12.810  13.096  70.437  1.00  0.00    -0.060 OA 
HETATM   20  C   UNL     1     -11.187  13.553  67.070  1.00  0.00    -0.312 C  
HETATM   21  H   UNL     1     -11.526  14.890  71.664  1.00  0.00     0.000 HD 
HETATM   22  C   UNL     1     -11.673  13.335  69.582  1.00  0.00    -0.303 C  
HETATM   23  C   UNL     1     -12.034  12.874  68.161  1.00  0.00    -0.261 C  
BRANCH  20  24
HETATM   24  C   UNL     1     -11.863  13.486  65.681  1.00  0.00    -0.369 C  
HETATM   25  O   UNL     1     -12.454  12.220  65.383  1.00  0.00    -0.596 OA 
HETATM   26  H   UNL     1     -12.869  12.179  64.530  1.00  0.00     0.000 HD 
ENDBRANCH  20  24
BRANCH  23  27
HETATM   27  O   UNL     1     -11.815  11.443  68.009  1.00  0.00    -0.570 OA 
BRANCH  27  28
HETATM   28  C   UNL     1     -10.470  11.040  68.292  1.00  0.00    -0.186 C  
HETATM   29  O   UNL     1     -10.327  10.699  69.663  1.00  0.00    -0.216 OA 
HETATM   30  C   UNL     1     -11.175   9.613  70.044  1.00  0.00    -0.231 C  
HETATM   31  C   UNL     1     -10.735   8.328  69.295  1.00  0.00    -0.128 C  
HETATM   32  C   UNL     1     -11.090   9.535  71.566  1.00  0.00    -0.406 C  
HETATM   33  C   UNL     1     -10.802   8.586  67.765  1.00  0.00     0.005 C  
HETATM   34  H   UNL     1     -10.224   7.667  66.106  1.00  0.00     0.000 HD 
HETATM   35  C   UNL     1     -10.056   9.868  67.389  1.00  0.00    -0.205 C  
HETATM   36  O   UNL     1     -10.182   7.509  67.041  1.00  0.00    -0.240 OA 
HETATM   37  O   UNL     1     -10.263  10.169  65.997  1.00  0.00    -0.252 OA 
HETATM   38  H   UNL     1     -10.007   9.445  65.438  1.00  0.00     0.000 HD 
BRANCH  31  39
HETATM   39  N   UNL     1     -11.550   7.176  69.753  1.00  0.00    -0.538 NA 
HETATM   40  H   UNL     1     -12.560   7.138  69.612  1.00  0.00     0.000 HD 
BRANCH  39  41
HETATM   41  C   UNL     1     -10.805   6.076  70.433  1.00  0.00    -0.318 C  
HETATM   42  C   UNL     1      -8.928   6.638  72.036  1.00  0.00    -0.139 C  
HETATM   43  C   UNL     1      -9.430   6.543  70.805  1.00  0.00    -0.180 C  
HETATM   44  C   UNL     1      -9.700   6.162  73.237  1.00  0.00    -0.157 C  
HETATM   45  H   UNL     1     -13.231   6.302  72.657  1.00  0.00     0.000 HD 
HETATM   46  O   UNL     1     -12.699   6.590  71.925  1.00  0.00    -0.325 OA 
HETATM   47  C   UNL     1     -10.931   5.268  72.936  1.00  0.00    -0.287 C  
HETATM   48  O   UNL     1     -10.083   7.309  73.990  1.00  0.00    -0.382 OA 
HETATM   49  H   UNL     1     -11.293   3.339  72.718  1.00  0.00     0.000 HD 
HETATM   50  O   UNL     1     -10.538   3.886  72.902  1.00  0.00    -0.169 OA 
HETATM   51  C   UNL     1     -11.682   5.602  71.640  1.00  0.00     0.221 C  
HETATM   52  H   UNL     1     -10.570   7.009  74.748  1.00  0.00     0.000 HD 
BRANCH  42  53
HETATM   53  C   UNL     1      -7.571   7.237  72.334  1.00  0.00    -0.088 C  
HETATM   54  O   UNL     1      -7.604   8.660  72.358  1.00  0.00    -0.296 OA 
HETATM   55  H   UNL     1      -6.752   9.037  72.545  1.00  0.00     0.000 HD 
ENDBRANCH  42  53
ENDBRANCH  39  41
ENDBRANCH  31  39
ENDBRANCH  27  28
ENDBRANCH  23  27
ENDBRANCH  13  14
ENDBRANCH   4  13
ENDBRANCH   1   4
BRANCH   1  56
HETATM   56  C   UNL     1      -5.805  13.367  67.343  1.00  0.00     0.110 C  
HETATM   57  O   UNL     1      -5.293  12.298  66.543  1.00  0.00    -0.434 OA 
HETATM   58  H   UNL     1      -4.355  12.412  66.440  1.00  0.00     0.000 HD 
ENDBRANCH   1  56
TORSDOF 12
ENDMDL
MODEL       55
REMARK 921   NORMALIZED FREE ENERGY PREDICTED BY IDOCK:   -5.98 KCAL/MOL
REMARK 922        TOTAL FREE ENERGY PREDICTED BY IDOCK:  -13.37 KCAL/MOL
REMARK 923 INTER-LIGAND FREE ENERGY PREDICTED BY IDOCK:  -10.24 KCAL/MOL
REMARK 924 INTRA-LIGAND FREE ENERGY PREDICTED BY IDOCK:   -3.14 KCAL/MOL
REMARK 927      BINDING AFFINITY PREDICTED BY RF-SCORE:    0.00 PKD
ROOT
HETATM    1  C   UNL     1      -8.827   4.182  68.809  1.00  0.00    -0.103 C  
HETATM    2  H   UNL     1      -7.134   4.839  69.487  1.00  0.00     0.000 HD 
HETATM    3  O   UNL     1      -7.415   4.058  69.024  1.00  0.00    -0.054 OA 
ENDROOT
BRANCH   1   4
HETATM    4  C   UNL     1      -9.213   5.506  68.084  1.00  0.00    -0.109 C  
BRANCH   4   5
HETATM    5  C   UNL     1      -8.046   6.080  67.220  1.00  0.00    -0.106 C  
HETATM    6  O   UNL     1      -7.091   6.785  68.028  1.00  0.00    -0.080 OA 
HETATM    7  H   UNL     1      -6.381   7.134  67.503  1.00  0.00     0.000 HD 
BRANCH   5   8
HETATM    8  C   UNL     1      -8.483   7.037  66.103  1.00  0.00    -0.135 C  
HETATM    9  C   UNL     1      -7.630   8.286  66.087  1.00  0.00    -0.085 C  
HETATM   10  O   UNL     1      -9.844   7.416  66.360  1.00  0.00    -0.380 OA 
HETATM   11  O   UNL     1      -6.601   8.380  65.420  1.00  0.00    -0.055 OA 
HETATM   12  H   UNL     1     -10.114   8.009  65.669  1.00  0.00     0.000 HD 
ENDBRANCH   5   8
ENDBRANCH   4   5
BRANCH   4  13
HETATM   13  O   UNL     1      -9.682   6.527  68.997  1.00  0.00    -0.135 OA 
BRANCH  13  14
HETATM   14  C   UNL     1      -9.098   6.479  70.309  1.00  0.00    -0.155 C  
HETATM   15  H   UNL     1     -12.226   7.800  72.411  1.00  0.00     0.000 HD 
HETATM   16  O   UNL     1     -11.251   5.817  71.364  1.00  0.00    -0.251 OA 
HETATM   17  C   UNL     1     -10.166   6.758  71.379  1.00  0.00    -0.198 C  
HETATM   18  O   UNL     1      -8.040   7.408  70.498  1.00  0.00    -0.102 OA 
HETATM   19  O   UNL     1     -11.558   8.471  72.332  1.00  0.00    -0.372 OA 
HETATM   20  C   UNL     1      -8.415   8.772  70.281  1.00  0.00    -0.149 C  
HETATM   21  H   UNL     1     -11.912   5.989  72.025  1.00  0.00     0.000 HD 
HETATM   22  C   UNL     1     -10.737   8.157  71.188  1.00  0.00    -0.221 C  
HETATM   23  C   UNL     1      -9.656   9.242  71.061  1.00  0.00    -0.259 C  
BRANCH  20  24
HETATM   24  C   UNL     1      -7.173   9.642  70.581  1.00  0.00    -0.103 C  
HETATM   25  O   UNL     1      -7.344  11.025  70.264  1.00  0.00    -0.420 OA 
HETATM   26  H   UNL     1      -6.580  11.560  70.449  1.00  0.00     0.000 HD 
ENDBRANCH  20  24
BRANCH  23  27
HETATM   27  O   UNL     1     -10.167  10.400  70.343  1.00  0.00    -0.061 OA 
BRANCH  27  28
HETATM   28  C   UNL     1     -11.526  10.249  69.913  1.00  0.00    -0.273 C  
HETATM   29  O   UNL     1     -12.381  11.112  70.647  1.00  0.00    -0.339 OA 
HETATM   30  C   UNL     1     -12.042  12.490  70.474  1.00  0.00    -0.274 C  
HETATM   31  C   UNL     1     -12.280  12.900  68.998  1.00  0.00    -0.013 C  
HETATM   32  C   UNL     1     -12.875  13.254  71.500  1.00  0.00    -0.419 C  
HETATM   33  C   UNL     1     -11.426  11.989  68.076  1.00  0.00    -0.328 C  
HETATM   34  H   UNL     1     -11.270  11.617  66.134  1.00  0.00     0.000 HD 
HETATM   35  C   UNL     1     -11.646  10.510  68.403  1.00  0.00    -0.128 C  
HETATM   36  O   UNL     1     -11.793  12.174  66.698  1.00  0.00    -0.566 OA 
HETATM   37  O   UNL     1     -10.732   9.696  67.647  1.00  0.00    -0.267 OA 
HETATM   38  H   UNL     1     -10.806   9.856  66.715  1.00  0.00     0.000 HD 
BRANCH  31  39
HETATM   39  N   UNL     1     -12.019  14.350  68.831  1.00  0.00    -0.438 NA 
HETATM   40  H   UNL     1     -12.706  15.057  69.092  1.00  0.00     0.000 HD 
BRANCH  39  41
HETATM   41  C   UNL     1     -10.690  14.714  68.256  1.00  0.00    -0.239 C  
HETATM   42  C   UNL     1     -10.426  16.891  66.991  1.00  0.00    -0.281 C  
HETATM   43  C   UNL     1     -10.873  15.639  67.091  1.00  0.00    -0.297 C  
HETATM   44  C   UNL     1      -9.556  17.501  68.057  1.00  0.00    -0.282 C  
HETATM   45  H   UNL     1     -10.155  15.993  71.250  1.00  0.00     0.000 HD 
HETATM   46  O   UNL     1     -10.679  15.639  70.541  1.00  0.00    -0.320 OA 
HETATM   47  C   UNL     1      -8.945  16.507  69.079  1.00  0.00    -0.225 C  
HETATM   48  O   UNL     1     -10.322  18.501  68.722  1.00  0.00    -0.422 OA 
HETATM   49  H   UNL     1      -7.300  15.426  69.232  1.00  0.00     0.000 HD 
HETATM   50  O   UNL     1      -7.674  16.035  68.606  1.00  0.00    -0.156 OA 
HETATM   51  C   UNL     1      -9.827  15.298  69.424  1.00  0.00    -0.252 C  
HETATM   52  H   UNL     1      -9.773  18.886  69.395  1.00  0.00     0.000 HD 
BRANCH  42  53
HETATM   53  C   UNL     1     -10.761  17.800  65.829  1.00  0.00    -0.098 C  
HETATM   54  O   UNL     1     -10.053  19.035  65.889  1.00  0.00    -0.484 OA 
HETATM   55  H   UNL     1     -10.264  19.606  65.159  1.00  0.00     0.000 HD 
ENDBRANCH  42  53
ENDBRANCH  39  41
ENDBRANCH  31  39
ENDBRANCH  27  28
ENDBRANCH  23  27
ENDBRANCH  13  14
ENDBRANCH   4  13
ENDBRANCH   1   4
BRANCH   1  56
HETATM   56  C   UNL     1      -9.279   2.924  68.063  1.00  0.00    -0.198 C  
HETATM   57  O   UNL     1      -9.840   3.308  66.805  1.00  0.00    -0.405 OA 
HETATM   58  H   UNL     1     -10.121   2.528  66.342  1.00  0.00     0.000 HD 
ENDBRANCH   1  56
TORSDOF 12
ENDMDL
MODEL       56
REMARK 921   NORMALIZED FREE ENERGY PREDICTED BY IDOCK:   -5.97 KCAL/MOL
REMARK 922        TOTAL FREE ENERGY PREDICTED BY IDOCK:  -13.35 KCAL/MOL
REMARK 923 INTER-LIGAND FREE ENERGY PREDICTED BY IDOCK:   -9.69 KCAL/MOL
REMARK 924 INTRA-LIGAND FREE ENERGY PREDICTED BY IDOCK:   -3.66 KCAL/MOL
REMARK 927      BINDING AFFINITY PREDICTED BY RF-SCORE:    0.00 PKD
ROOT
HETATM    1  C   UNL     1      -8.512  17.867  67.098  1.00  0.00    -0.233 C  
HETATM    2  H   UNL     1      -6.995  17.415  65.979  1.00  0.00     0.000 HD 
HETATM    3  O   UNL     1      -7.237  18.162  66.515  1.00  0.00    -0.204 OA 
ENDROOT
BRANCH   1   4
HETATM    4  C   UNL     1      -8.522  16.517  67.877  1.00  0.00    -0.181 C  
BRANCH   4   5
HETATM    5  C   UNL     1      -7.104  15.872  67.977  1.00  0.00    -0.130 C  
HETATM    6  O   UNL     1      -6.690  15.313  66.721  1.00  0.00    -0.212 OA 
HETATM    7  H   UNL     1      -5.827  14.920  66.782  1.00  0.00     0.000 HD 
BRANCH   5   8
HETATM    8  C   UNL     1      -6.976  14.760  69.027  1.00  0.00    -0.118 C  
HETATM    9  C   UNL     1      -6.617  13.438  68.386  1.00  0.00    -0.094 C  
HETATM   10  O   UNL     1      -8.251  14.622  69.675  1.00  0.00    -0.397 OA 
HETATM   11  O   UNL     1      -5.455  13.072  68.223  1.00  0.00    -0.065 OA 
HETATM   12  H   UNL     1      -8.171  13.934  70.325  1.00  0.00     0.000 HD 
ENDBRANCH   5   8
ENDBRANCH   4   5
BRANCH   4  13
HETATM   13  O   UNL     1      -9.449  15.556  67.317  1.00  0.00    -0.209 OA 
BRANCH  13  14
HETATM   14  C   UNL     1     -10.826  15.966  67.328  1.00  0.00    -0.279 C  
HETATM   15  H   UNL     1     -12.156  13.540  70.208  1.00  0.00     0.000 HD 
HETATM   16  O   UNL     1     -11.012  15.661  69.790  1.00  0.00    -0.252 OA 
HETATM   17  C   UNL     1     -11.567  15.318  68.510  1.00  0.00    -0.352 C  
HETATM   18  O   UNL     1     -11.529  15.636  66.139  1.00  0.00    -0.037 OA 
HETATM   19  O   UNL     1     -12.437  13.241  69.350  1.00  0.00    -0.122 OA 
HETATM   20  C   UNL     1     -11.535  14.238  65.833  1.00  0.00    -0.335 C  
HETATM   21  H   UNL     1     -11.470  15.259  70.520  1.00  0.00     0.000 HD 
HETATM   22  C   UNL     1     -11.547  13.802  68.364  1.00  0.00    -0.334 C  
HETATM   23  C   UNL     1     -12.000  13.319  66.977  1.00  0.00    -0.365 C  
BRANCH  20  24
HETATM   24  C   UNL     1     -12.383  14.052  64.554  1.00  0.00    -0.378 C  
HETATM   25  O   UNL     1     -11.641  13.569  63.432  1.00  0.00    -0.646 OA 
HETATM   26  H   UNL     1     -12.162  13.455  62.646  1.00  0.00     0.000 HD 
ENDBRANCH  20  24
BRANCH  23  27
HETATM   27  O   UNL     1     -11.454  12.003  66.684  1.00  0.00    -0.339 OA 
BRANCH  27  28
HETATM   28  C   UNL     1     -10.114  11.823  67.158  1.00  0.00    -0.203 C  
HETATM   29  O   UNL     1     -10.073  10.841  68.182  1.00  0.00    -0.157 OA 
HETATM   30  C   UNL     1     -10.527   9.564  67.728  1.00  0.00    -0.254 C  
HETATM   31  C   UNL     1      -9.551   9.020  66.655  1.00  0.00    -0.213 C  
HETATM   32  C   UNL     1     -10.656   8.701  68.981  1.00  0.00    -0.179 C  
HETATM   33  C   UNL     1      -9.468  10.037  65.484  1.00  0.00    -0.237 C  
HETATM   34  H   UNL     1      -8.353  10.311  63.867  1.00  0.00     0.000 HD 
HETATM   35  C   UNL     1      -9.177  11.448  65.998  1.00  0.00    -0.214 C  
HETATM   36  O   UNL     1      -8.403   9.689  64.582  1.00  0.00    -0.138 OA 
HETATM   37  O   UNL     1      -9.261  12.395  64.918  1.00  0.00    -0.305 OA 
HETATM   38  H   UNL     1      -8.682  12.163  64.202  1.00  0.00     0.000 HD 
BRANCH  31  39
HETATM   39  N   UNL     1      -9.963   7.655  66.245  1.00  0.00    -0.464 NA 
HETATM   40  H   UNL     1     -10.933   7.426  66.027  1.00  0.00     0.000 HD 
BRANCH  39  41
HETATM   41  C   UNL     1      -8.875   6.636  66.171  1.00  0.00    -0.149 C  
HETATM   42  C   UNL     1      -7.789   5.804  68.302  1.00  0.00    -0.100 C  
HETATM   43  C   UNL     1      -7.991   6.743  67.376  1.00  0.00    -0.114 C  
HETATM   44  C   UNL     1      -8.384   4.429  68.166  1.00  0.00    -0.093 C  
HETATM   45  H   UNL     1     -11.381   4.491  66.206  1.00  0.00     0.000 HD 
HETATM   46  O   UNL     1     -10.965   5.338  66.319  1.00  0.00    -0.237 OA 
HETATM   47  C   UNL     1      -8.941   4.071  66.764  1.00  0.00    -0.131 C  
HETATM   48  O   UNL     1      -9.395   4.293  69.160  1.00  0.00    -0.133 OA 
HETATM   49  H   UNL     1      -8.251   3.257  65.103  1.00  0.00     0.000 HD 
HETATM   50  O   UNL     1      -7.908   3.476  65.961  1.00  0.00    -0.087 OA 
HETATM   51  C   UNL     1      -9.561   5.241  65.987  1.00  0.00    -0.149 C  
HETATM   52  H   UNL     1      -9.771   3.424  69.074  1.00  0.00     0.000 HD 
BRANCH  42  53
HETATM   53  C   UNL     1      -6.976   6.038  69.556  1.00  0.00    -0.067 C  
HETATM   54  O   UNL     1      -7.701   5.710  70.737  1.00  0.00    -0.088 OA 
HETATM   55  H   UNL     1      -7.190   5.857  71.525  1.00  0.00     0.000 HD 
ENDBRANCH  42  53
ENDBRANCH  39  41
ENDBRANCH  31  39
ENDBRANCH  27  28
ENDBRANCH  23  27
ENDBRANCH  13  14
ENDBRANCH   4  13
ENDBRANCH   1   4
BRANCH   1  56
HETATM   56  C   UNL     1      -8.900  19.070  67.961  1.00  0.00    -0.309 C  
HETATM   57  O   UNL     1      -9.839  18.646  68.953  1.00  0.00    -0.382 OA 
HETATM   58  H   UNL     1     -10.080  19.393  69.489  1.00  0.00     0.000 HD 
ENDBRANCH   1  56
TORSDOF 12
ENDMDL
MODEL       57
REMARK 921   NORMALIZED FREE ENERGY PREDICTED BY IDOCK:   -5.97 KCAL/MOL
REMARK 922        TOTAL FREE ENERGY PREDICTED BY IDOCK:  -13.35 KCAL/MOL
REMARK 923 INTER-LIGAND FREE ENERGY PREDICTED BY IDOCK:   -9.31 KCAL/MOL
REMARK 924 INTRA-LIGAND FREE ENERGY PREDICTED BY IDOCK:   -4.04 KCAL/MOL
REMARK 927      BINDING AFFINITY PREDICTED BY RF-SCORE:    0.00 PKD
ROOT
HETATM    1  C   UNL     1     -11.519  13.770  66.238  1.00  0.00    -0.335 C  
HETATM    2  H   UNL     1     -10.801  14.767  67.738  1.00  0.00     0.000 HD 
HETATM    3  O   UNL     1     -11.499  14.909  67.109  1.00  0.00    -0.352 OA 
ENDROOT
BRANCH   1   4
HETATM    4  C   UNL     1     -11.645  12.423  67.011  1.00  0.00    -0.365 C  
BRANCH   4   5
HETATM    5  C   UNL     1     -11.283  12.561  68.523  1.00  0.00    -0.283 C  
HETATM    6  O   UNL     1      -9.895  12.880  68.705  1.00  0.00    -0.400 OA 
HETATM    7  H   UNL     1      -9.675  12.965  69.626  1.00  0.00     0.000 HD 
BRANCH   5   8
HETATM    8  C   UNL     1     -11.573  11.315  69.371  1.00  0.00    -0.321 C  
HETATM    9  C   UNL     1     -10.439  10.318  69.286  1.00  0.00    -0.228 C  
HETATM   10  O   UNL     1     -12.762  10.700  68.850  1.00  0.00    -0.657 OA 
HETATM   11  O   UNL     1      -9.491  10.321  70.069  1.00  0.00    -0.122 OA 
HETATM   12  H   UNL     1     -12.942   9.929  69.375  1.00  0.00     0.000 HD 
ENDBRANCH   5   8
ENDBRANCH   4   5
BRANCH   4  13
HETATM   13  O   UNL     1     -10.849  11.365  66.422  1.00  0.00    -0.269 OA 
BRANCH  13  14
HETATM   14  C   UNL     1      -9.760  11.814  65.599  1.00  0.00    -0.233 C  
HETATM   15  H   UNL     1      -9.426   8.609  63.240  1.00  0.00     0.000 HD 
HETATM   16  O   UNL     1     -10.675  10.683  63.580  1.00  0.00    -0.472 OA 
HETATM   17  C   UNL     1      -9.531  10.834  64.436  1.00  0.00    -0.256 C  
HETATM   18  O   UNL     1      -8.533  11.951  66.301  1.00  0.00    -0.104 OA 
HETATM   19  O   UNL     1      -8.722   8.640  63.878  1.00  0.00    -0.068 OA 
HETATM   20  C   UNL     1      -8.083  10.748  66.931  1.00  0.00    -0.132 C  
HETATM   21  H   UNL     1     -10.533  10.077  62.862  1.00  0.00     0.000 HD 
HETATM   22  C   UNL     1      -9.152   9.464  64.982  1.00  0.00    -0.215 C  
HETATM   23  C   UNL     1      -8.014   9.514  66.014  1.00  0.00    -0.107 C  
BRANCH  20  24
HETATM   24  C   UNL     1      -6.721  11.059  67.594  1.00  0.00    -0.073 C  
HETATM   25  O   UNL     1      -6.783  11.179  69.017  1.00  0.00    -0.069 OA 
HETATM   26  H   UNL     1      -5.946  11.370  69.424  1.00  0.00     0.000 HD 
ENDBRANCH  20  24
BRANCH  23  27
HETATM   27  O   UNL     1      -8.062   8.356  66.894  1.00  0.00    -0.098 OA 
BRANCH  27  28
HETATM   28  C   UNL     1      -6.881   7.546  66.833  1.00  0.00    -0.070 C  
HETATM   29  O   UNL     1      -6.081   7.740  67.989  1.00  0.00    -0.042 OA 
HETATM   30  C   UNL     1      -6.768   7.383  69.191  1.00  0.00    -0.052 C  
HETATM   31  C   UNL     1      -7.053   5.860  69.190  1.00  0.00    -0.069 C  
HETATM   32  C   UNL     1      -5.884   7.875  70.335  1.00  0.00    -0.029 C  
HETATM   33  C   UNL     1      -7.894   5.503  67.934  1.00  0.00    -0.096 C  
HETATM   34  H   UNL     1      -8.494   3.859  67.000  1.00  0.00     0.000 HD 
HETATM   35  C   UNL     1      -7.252   6.064  66.663  1.00  0.00    -0.074 C  
HETATM   36  O   UNL     1      -7.980   4.077  67.768  1.00  0.00    -0.088 OA 
HETATM   37  O   UNL     1      -8.124   5.858  65.537  1.00  0.00    -0.117 OA 
HETATM   38  H   UNL     1      -8.352   4.943  65.432  1.00  0.00     0.000 HD 
BRANCH  31  39
HETATM   39  N   UNL     1      -7.683   5.465  70.474  1.00  0.00    -0.082 NA 
HETATM   40  H   UNL     1      -7.134   5.307  71.319  1.00  0.00     0.000 HD 
BRANCH  39  41
HETATM   41  C   UNL     1      -9.168   5.313  70.457  1.00  0.00    -0.146 C  
HETATM   42  C   UNL     1     -10.291   3.783  72.131  1.00  0.00    -0.120 C  
HETATM   43  C   UNL     1      -9.553   3.987  71.039  1.00  0.00    -0.249 C  
HETATM   44  C   UNL     1     -10.932   4.926  72.870  1.00  0.00    -0.262 C  
HETATM   45  H   UNL     1      -9.096   7.967  72.415  1.00  0.00     0.000 HD 
HETATM   46  O   UNL     1      -8.732   7.214  71.964  1.00  0.00    -0.122 OA 
HETATM   47  C   UNL     1     -10.969   6.280  72.117  1.00  0.00    -0.257 C  
HETATM   48  O   UNL     1     -10.264   5.063  74.121  1.00  0.00    -0.197 OA 
HETATM   49  H   UNL     1     -12.197   7.210  70.881  1.00  0.00     0.000 HD 
HETATM   50  O   UNL     1     -12.175   6.379  71.342  1.00  0.00    -0.292 OA 
HETATM   51  C   UNL     1      -9.767   6.553  71.201  1.00  0.00    -0.174 C  
HETATM   52  H   UNL     1     -10.668   5.785  74.588  1.00  0.00     0.000 HD 
BRANCH  42  53
HETATM   53  C   UNL     1     -10.531   2.411  72.724  1.00  0.00    -0.148 C  
HETATM   54  O   UNL     1     -11.100   2.479  74.027  1.00  0.00    -0.181 OA 
HETATM   55  H   UNL     1     -11.250   1.618  74.400  1.00  0.00     0.000 HD 
ENDBRANCH  42  53
ENDBRANCH  39  41
ENDBRANCH  31  39
ENDBRANCH  27  28
ENDBRANCH  23  27
ENDBRANCH  13  14
ENDBRANCH   4  13
ENDBRANCH   1   4
BRANCH   1  56
HETATM   56  C   UNL     1     -12.643  13.998  65.225  1.00  0.00    -0.470 C  
HETATM   57  O   UNL     1     -13.065  12.734  64.709  1.00  0.00    -0.813 OA 
HETATM   58  H   UNL     1     -13.764  12.875  64.080  1.00  0.00     0.000 HD 
ENDBRANCH   1  56
TORSDOF 12
ENDMDL
MODEL       58
REMARK 921   NORMALIZED FREE ENERGY PREDICTED BY IDOCK:   -5.97 KCAL/MOL
REMARK 922        TOTAL FREE ENERGY PREDICTED BY IDOCK:  -13.35 KCAL/MOL
REMARK 923 INTER-LIGAND FREE ENERGY PREDICTED BY IDOCK:   -9.86 KCAL/MOL
REMARK 924 INTRA-LIGAND FREE ENERGY PREDICTED BY IDOCK:   -3.49 KCAL/MOL
REMARK 927      BINDING AFFINITY PREDICTED BY RF-SCORE:    0.00 PKD
ROOT
HETATM    1  C   UNL     1     -12.094  14.506  64.915  1.00  0.00    -0.416 C  
HETATM    2  H   UNL     1     -13.130  13.159  65.847  1.00  0.00     0.000 HD 
HETATM    3  O   UNL     1     -13.320  13.816  65.188  1.00  0.00    -0.688 OA 
ENDROOT
BRANCH   1   4
HETATM    4  C   UNL     1     -10.936  13.544  64.515  1.00  0.00    -0.394 C  
BRANCH   4   5
HETATM    5  C   UNL     1     -11.413  12.066  64.350  1.00  0.00    -0.343 C  
HETATM    6  O   UNL     1     -11.918  11.536  65.585  1.00  0.00    -0.150 OA 
HETATM    7  H   UNL     1     -12.208  10.637  65.485  1.00  0.00     0.000 HD 
BRANCH   5   8
HETATM    8  C   UNL     1     -10.335  11.095  63.851  1.00  0.00    -0.380 C  
HETATM    9  C   UNL     1      -9.578  10.476  65.005  1.00  0.00    -0.276 C  
HETATM   10  O   UNL     1      -9.410  11.843  63.047  1.00  0.00    -0.630 OA 
HETATM   11  O   UNL     1      -9.923   9.423  65.539  1.00  0.00    -0.281 OA 
HETATM   12  H   UNL     1      -8.744  11.242  62.738  1.00  0.00     0.000 HD 
ENDBRANCH   5   8
ENDBRANCH   4   5
BRANCH   4  13
HETATM   13  O   UNL     1      -9.825  13.589  65.443  1.00  0.00    -0.225 OA 
BRANCH  13  14
HETATM   14  C   UNL     1     -10.094  14.283  66.673  1.00  0.00    -0.273 C  
HETATM   15  H   UNL     1      -6.332  14.782  67.918  1.00  0.00     0.000 HD 
HETATM   16  O   UNL     1      -8.059  15.697  66.448  1.00  0.00    -0.312 OA 
HETATM   17  C   UNL     1      -8.783  14.791  67.296  1.00  0.00    -0.210 C  
HETATM   18  O   UNL     1     -10.757  13.487  67.644  1.00  0.00    -0.244 OA 
HETATM   19  O   UNL     1      -6.770  14.100  68.414  1.00  0.00    -0.088 OA 
HETATM   20  C   UNL     1     -10.050  12.297  68.007  1.00  0.00    -0.206 C  
HETATM   21  H   UNL     1      -7.249  16.010  66.833  1.00  0.00     0.000 HD 
HETATM   22  C   UNL     1      -7.877  13.613  67.629  1.00  0.00    -0.174 C  
HETATM   23  C   UNL     1      -8.586  12.510  68.431  1.00  0.00    -0.123 C  
BRANCH  20  24
HETATM   24  C   UNL     1     -10.878  11.587  69.103  1.00  0.00    -0.195 C  
HETATM   25  O   UNL     1     -11.889  10.716  68.592  1.00  0.00    -0.612 OA 
HETATM   26  H   UNL     1     -12.397  10.279  69.266  1.00  0.00     0.000 HD 
ENDBRANCH  20  24
BRANCH  23  27
HETATM   27  O   UNL     1      -7.923  11.227  68.245  1.00  0.00    -0.119 OA 
BRANCH  27  28
HETATM   28  C   UNL     1      -6.968  10.926  69.270  1.00  0.00    -0.112 C  
HETATM   29  O   UNL     1      -7.600  10.295  70.373  1.00  0.00    -0.228 OA 
HETATM   30  C   UNL     1      -8.221   9.060  70.009  1.00  0.00    -0.127 C  
HETATM   31  C   UNL     1      -7.135   8.044  69.573  1.00  0.00    -0.058 C  
HETATM   32  C   UNL     1      -9.050   8.640  71.220  1.00  0.00    -0.272 C  
HETATM   33  C   UNL     1      -6.330   8.641  68.387  1.00  0.00    -0.055 C  
HETATM   34  H   UNL     1      -4.677   8.205  67.381  1.00  0.00     0.000 HD 
HETATM   35  C   UNL     1      -5.834  10.052  68.711  1.00  0.00    -0.034 C  
HETATM   36  O   UNL     1      -5.169   7.840  68.106  1.00  0.00    -0.028 OA 
HETATM   37  O   UNL     1      -5.230  10.642  67.546  1.00  0.00    -0.037 OA 
HETATM   38  H   UNL     1      -4.529  10.102  67.201  1.00  0.00     0.000 HD 
BRANCH  31  39
HETATM   39  N   UNL     1      -7.762   6.731  69.282  1.00  0.00    -0.103 NA 
HETATM   40  H   UNL     1      -7.722   5.955  69.943  1.00  0.00     0.000 HD 
BRANCH  39  41
HETATM   41  C   UNL     1      -8.455   6.614  67.966  1.00  0.00    -0.116 C  
HETATM   42  C   UNL     1      -8.271   4.465  66.640  1.00  0.00    -0.102 C  
HETATM   43  C   UNL     1      -7.757   5.602  67.108  1.00  0.00    -0.101 C  
HETATM   44  C   UNL     1      -9.719   4.113  66.852  1.00  0.00    -0.205 C  
HETATM   45  H   UNL     1     -11.016   5.657  69.812  1.00  0.00     0.000 HD 
HETATM   46  O   UNL     1     -10.103   5.852  69.632  1.00  0.00    -0.173 OA 
HETATM   47  C   UNL     1     -10.631   5.271  67.334  1.00  0.00    -0.093 C  
HETATM   48  O   UNL     1      -9.770   3.019  67.764  1.00  0.00    -0.280 OA 
HETATM   49  H   UNL     1     -11.741   6.674  66.499  1.00  0.00     0.000 HD 
HETATM   50  O   UNL     1     -11.182   5.965  66.203  1.00  0.00     0.168 OA 
HETATM   51  C   UNL     1      -9.958   6.292  68.263  1.00  0.00    -0.139 C  
HETATM   52  H   UNL     1     -10.684   2.797  67.898  1.00  0.00     0.000 HD 
BRANCH  42  53
HETATM   53  C   UNL     1      -7.459   3.437  65.883  1.00  0.00    -0.076 C  
HETATM   54  O   UNL     1      -7.549   3.610  64.473  1.00  0.00    -0.074 OA 
HETATM   55  H   UNL     1      -7.039   2.964  63.998  1.00  0.00     0.000 HD 
ENDBRANCH  42  53
ENDBRANCH  39  41
ENDBRANCH  31  39
ENDBRANCH  27  28
ENDBRANCH  23  27
ENDBRANCH  13  14
ENDBRANCH   4  13
ENDBRANCH   1   4
BRANCH   1  56
HETATM   56  C   UNL     1     -12.401  15.565  63.853  1.00  0.00     0.327 C  
HETATM   57  O   UNL     1     -11.438  16.617  63.955  1.00  0.00    -1.604 OA 
HETATM   58  H   UNL     1     -11.629  17.274  63.295  1.00  0.00     0.000 HD 
ENDBRANCH   1  56
TORSDOF 12
ENDMDL
MODEL       59
REMARK 921   NORMALIZED FREE ENERGY PREDICTED BY IDOCK:   -5.94 KCAL/MOL
REMARK 922        TOTAL FREE ENERGY PREDICTED BY IDOCK:  -13.31 KCAL/MOL
REMARK 923 INTER-LIGAND FREE ENERGY PREDICTED BY IDOCK:  -10.08 KCAL/MOL
REMARK 924 INTRA-LIGAND FREE ENERGY PREDICTED BY IDOCK:   -3.22 KCAL/MOL
REMARK 927      BINDING AFFINITY PREDICTED BY RF-SCORE:    0.00 PKD
ROOT
HETATM    1  C   UNL     1     -11.032  15.814  70.297  1.00  0.00    -0.357 C  
HETATM    2  H   UNL     1     -11.843  15.519  72.033  1.00  0.00     0.000 HD 
HETATM    3  O   UNL     1     -11.378  16.239  71.622  1.00  0.00    -0.312 OA 
ENDROOT
BRANCH   1   4
HETATM    4  C   UNL     1     -12.264  15.323  69.479  1.00  0.00    -0.239 C  
BRANCH   4   5
HETATM    5  C   UNL     1     -13.342  14.634  70.373  1.00  0.00     0.109 C  
HETATM    6  O   UNL     1     -14.269  15.590  70.910  1.00  0.00    -0.853 OA 
HETATM    7  H   UNL     1     -14.926  15.170  71.454  1.00  0.00     0.000 HD 
BRANCH   5   8
HETATM    8  C   UNL     1     -12.782  13.837  71.558  1.00  0.00    -0.346 C  
HETATM    9  C   UNL     1     -12.992  12.351  71.368  1.00  0.00    -0.250 C  
HETATM   10  O   UNL     1     -13.489  14.251  72.737  1.00  0.00    -0.505 OA 
HETATM   11  O   UNL     1     -12.166  11.628  70.815  1.00  0.00    -0.375 OA 
HETATM   12  H   UNL     1     -13.142  13.758  73.471  1.00  0.00     0.000 HD 
ENDBRANCH   5   8
ENDBRANCH   4   5
BRANCH   4  13
HETATM   13  O   UNL     1     -11.897  14.433  68.397  1.00  0.00    -0.316 OA 
BRANCH  13  14
HETATM   14  C   UNL     1     -11.776  15.063  67.111  1.00  0.00    -0.215 C  
HETATM   15  H   UNL     1     -12.074  11.810  64.814  1.00  0.00     0.000 HD 
HETATM   16  O   UNL     1     -13.370  13.470  66.057  1.00  0.00    -0.138 OA 
HETATM   17  C   UNL     1     -12.056  14.048  65.991  1.00  0.00    -0.439 C  
HETATM   18  O   UNL     1     -10.497  15.633  66.872  1.00  0.00    -0.295 OA 
HETATM   19  O   UNL     1     -11.177  12.121  64.853  1.00  0.00    -0.309 OA 
HETATM   20  C   UNL     1      -9.416  14.698  66.959  1.00  0.00    -0.241 C  
HETATM   21  H   UNL     1     -13.542  12.842  65.365  1.00  0.00     0.000 HD 
HETATM   22  C   UNL     1     -11.030  12.924  66.043  1.00  0.00    -0.276 C  
HETATM   23  C   UNL     1      -9.580  13.427  66.107  1.00  0.00    -0.202 C  
BRANCH  20  24
HETATM   24  C   UNL     1      -8.118  15.466  66.620  1.00  0.00    -0.098 C  
HETATM   25  O   UNL     1      -7.271  15.699  67.747  1.00  0.00    -0.128 OA 
HETATM   26  H   UNL     1      -6.473  16.171  67.538  1.00  0.00     0.000 HD 
ENDBRANCH  20  24
BRANCH  23  27
HETATM   27  O   UNL     1      -8.710  12.426  66.706  1.00  0.00    -0.200 OA 
BRANCH  27  28
HETATM   28  C   UNL     1      -8.817  12.360  68.133  1.00  0.00    -0.191 C  
HETATM   29  O   UNL     1      -9.894  11.517  68.515  1.00  0.00    -0.192 OA 
HETATM   30  C   UNL     1      -9.727  10.176  68.048  1.00  0.00    -0.142 C  
HETATM   31  C   UNL     1      -8.495   9.538  68.739  1.00  0.00    -0.122 C  
HETATM   32  C   UNL     1     -11.056   9.475  68.319  1.00  0.00    -0.047 C  
HETATM   33  C   UNL     1      -7.240  10.401  68.435  1.00  0.00    -0.080 C  
HETATM   34  H   UNL     1      -5.360  10.511  69.057  1.00  0.00     0.000 HD 
HETATM   35  C   UNL     1      -7.495  11.877  68.751  1.00  0.00    -0.100 C  
HETATM   36  O   UNL     1      -6.127   9.983  69.243  1.00  0.00    -0.040 OA 
HETATM   37  O   UNL     1      -6.380  12.675  68.316  1.00  0.00    -0.061 OA 
HETATM   38  H   UNL     1      -5.564  12.377  68.698  1.00  0.00     0.000 HD 
BRANCH  31  39
HETATM   39  N   UNL     1      -8.369   8.118  68.331  1.00  0.00    -0.125 NA 
HETATM   40  H   UNL     1      -8.218   7.847  67.359  1.00  0.00     0.000 HD 
BRANCH  39  41
HETATM   41  C   UNL     1      -8.476   7.109  69.425  1.00  0.00    -0.134 C  
HETATM   42  C   UNL     1     -10.185   7.432  71.265  1.00  0.00    -0.197 C  
HETATM   43  C   UNL     1      -9.041   7.749  70.657  1.00  0.00    -0.153 C  
HETATM   44  C   UNL     1     -11.020   6.267  70.808  1.00  0.00    -0.297 C  
HETATM   45  H   UNL     1     -10.518   5.589  67.327  1.00  0.00     0.000 HD 
HETATM   46  O   UNL     1     -10.009   6.316  67.665  1.00  0.00    -0.120 OA 
HETATM   47  C   UNL     1     -10.323   5.278  69.838  1.00  0.00    -0.304 C  
HETATM   48  O   UNL     1     -12.211   6.789  70.225  1.00  0.00    -0.611 OA 
HETATM   49  H   UNL     1      -9.235   3.636  69.989  1.00  0.00     0.000 HD 
HETATM   50  O   UNL     1      -9.662   4.243  70.583  1.00  0.00    -0.178 OA 
HETATM   51  C   UNL     1      -9.315   5.911  68.868  1.00  0.00    -0.126 C  
HETATM   52  H   UNL     1     -12.738   6.053  69.937  1.00  0.00     0.000 HD 
BRANCH  42  53
HETATM   53  C   UNL     1     -10.745   8.212  72.434  1.00  0.00    -0.334 C  
HETATM   54  O   UNL     1     -11.892   8.975  72.074  1.00  0.00    -0.358 OA 
HETATM   55  H   UNL     1     -12.244   9.465  72.808  1.00  0.00     0.000 HD 
ENDBRANCH  42  53
ENDBRANCH  39  41
ENDBRANCH  31  39
ENDBRANCH  27  28
ENDBRANCH  23  27
ENDBRANCH  13  14
ENDBRANCH   4  13
ENDBRANCH   1   4
BRANCH   1  56
HETATM   56  C   UNL     1     -10.284  16.974  69.635  1.00  0.00    -0.008 C  
HETATM   57  O   UNL     1     -11.150  17.602  68.687  1.00  0.00    -0.180 OA 
HETATM   58  H   UNL     1     -10.686  18.323  68.275  1.00  0.00     0.000 HD 
ENDBRANCH   1  56
TORSDOF 12
ENDMDL
MODEL       60
REMARK 921   NORMALIZED FREE ENERGY PREDICTED BY IDOCK:   -5.92 KCAL/MOL
REMARK 922        TOTAL FREE ENERGY PREDICTED BY IDOCK:  -13.27 KCAL/MOL
REMARK 923 INTER-LIGAND FREE ENERGY PREDICTED BY IDOCK:   -9.39 KCAL/MOL
REMARK 924 INTRA-LIGAND FREE ENERGY PREDICTED BY IDOCK:   -3.88 KCAL/MOL
REMARK 927      BINDING AFFINITY PREDICTED BY RF-SCORE:    0.00 PKD
ROOT
HETATM    1  C   UNL     1      -9.095   4.772  70.749  1.00  0.00    -0.130 C  
HETATM    2  H   UNL     1     -10.446   4.063  69.552  1.00  0.00     0.000 HD 
HETATM    3  O   UNL     1     -10.018   3.753  70.342  1.00  0.00    -0.137 OA 
ENDROOT
BRANCH   1   4
HETATM    4  C   UNL     1      -9.772   6.166  70.916  1.00  0.00    -0.177 C  
BRANCH   4   5
HETATM    5  C   UNL     1     -11.292   6.142  70.563  1.00  0.00    -0.310 C  
HETATM    6  O   UNL     1     -11.571   6.918  69.388  1.00  0.00    -0.568 OA 
HETATM    7  H   UNL     1     -12.496   6.904  69.173  1.00  0.00     0.000 HD 
BRANCH   5   8
HETATM    8  C   UNL     1     -12.218   6.658  71.672  1.00  0.00    -0.352 C  
HETATM    9  C   UNL     1     -12.006   8.134  71.923  1.00  0.00    -0.320 C  
HETATM   10  O   UNL     1     -11.901   5.940  72.875  1.00  0.00    -0.515 OA 
HETATM   11  O   UNL     1     -12.641   9.007  71.334  1.00  0.00    -0.309 OA 
HETATM   12  H   UNL     1     -12.474   6.259  73.562  1.00  0.00     0.000 HD 
ENDBRANCH   5   8
ENDBRANCH   4   5
BRANCH   4  13
HETATM   13  O   UNL     1      -9.116   7.202  70.145  1.00  0.00    -0.151 OA 
BRANCH  13  14
HETATM   14  C   UNL     1      -8.466   6.744  68.947  1.00  0.00    -0.120 C  
HETATM   15  H   UNL     1      -4.919   8.501  69.476  1.00  0.00     0.000 HD 
HETATM   16  O   UNL     1      -6.262   6.550  70.085  1.00  0.00    -0.033 OA 
HETATM   17  C   UNL     1      -6.974   7.117  68.974  1.00  0.00    -0.075 C  
HETATM   18  O   UNL     1      -9.027   7.275  67.756  1.00  0.00    -0.127 OA 
HETATM   19  O   UNL     1      -5.430   8.952  68.814  1.00  0.00    -0.039 OA 
HETATM   20  C   UNL     1      -9.015   8.705  67.691  1.00  0.00    -0.135 C  
HETATM   21  H   UNL     1      -5.340   6.781  70.102  1.00  0.00     0.000 HD 
HETATM   22  C   UNL     1      -6.821   8.631  69.022  1.00  0.00    -0.056 C  
HETATM   23  C   UNL     1      -7.647   9.361  67.952  1.00  0.00    -0.087 C  
BRANCH  20  24
HETATM   24  C   UNL     1      -9.603   9.107  66.319  1.00  0.00    -0.255 C  
HETATM   25  O   UNL     1     -10.270  10.371  66.322  1.00  0.00    -0.225 OA 
HETATM   26  H   UNL     1     -10.631  10.617  65.478  1.00  0.00     0.000 HD 
ENDBRANCH  20  24
BRANCH  23  27
HETATM   27  O   UNL     1      -7.929  10.730  68.358  1.00  0.00    -0.111 OA 
BRANCH  27  28
HETATM   28  C   UNL     1      -7.131  11.703  67.673  1.00  0.00    -0.095 C  
HETATM   29  O   UNL     1      -7.941  12.511  66.833  1.00  0.00    -0.122 OA 
HETATM   30  C   UNL     1      -8.935  13.231  67.566  1.00  0.00    -0.208 C  
HETATM   31  C   UNL     1      -8.245  14.251  68.507  1.00  0.00    -0.145 C  
HETATM   32  C   UNL     1      -9.861  13.843  66.518  1.00  0.00    -0.296 C  
HETATM   33  C   UNL     1      -7.283  13.490  69.460  1.00  0.00     0.274 C  
HETATM   34  H   UNL     1      -5.863  13.946  70.767  1.00  0.00     0.000 HD 
HETATM   35  C   UNL     1      -6.349  12.564  68.677  1.00  0.00    -0.073 C  
HETATM   36  O   UNL     1      -6.451  14.412  70.185  1.00  0.00    -0.159 OA 
HETATM   37  O   UNL     1      -5.579  11.757  69.585  1.00  0.00    -0.064 OA 
HETATM   38  H   UNL     1      -5.095  12.289  70.205  1.00  0.00     0.000 HD 
BRANCH  31  39
HETATM   39  N   UNL     1      -9.270  15.066  69.204  1.00  0.00    -0.285 NA 
HETATM   40  H   UNL     1     -10.049  14.640  69.706  1.00  0.00     0.000 HD 
BRANCH  39  41
HETATM   41  C   UNL     1      -9.095  16.546  69.125  1.00  0.00    -0.184 C  
HETATM   42  C   UNL     1      -8.162  17.588  67.015  1.00  0.00    -0.240 C  
HETATM   43  C   UNL     1      -8.019  16.882  68.137  1.00  0.00    -0.195 C  
HETATM   44  C   UNL     1      -9.470  18.241  66.660  1.00  0.00    -0.308 C  
HETATM   45  H   UNL     1     -12.237  16.498  68.121  1.00  0.00     0.000 HD 
HETATM   46  O   UNL     1     -11.385  16.125  68.319  1.00  0.00    -0.361 OA 
HETATM   47  C   UNL     1     -10.511  18.332  67.806  1.00  0.00    -0.410 C  
HETATM   48  O   UNL     1     -10.012  17.546  65.540  1.00  0.00    -0.552 OA 
HETATM   49  H   UNL     1     -10.974  19.614  69.235  1.00  0.00     0.000 HD 
HETATM   50  O   UNL     1     -10.336  19.558  68.533  1.00  0.00    -0.419 OA 
HETATM   51  C   UNL     1     -10.497  17.160  68.798  1.00  0.00    -0.351 C  
HETATM   52  H   UNL     1     -10.838  17.959  65.317  1.00  0.00     0.000 HD 
BRANCH  42  53
HETATM   53  C   UNL     1      -7.049  17.777  66.008  1.00  0.00    -0.300 C  
HETATM   54  O   UNL     1      -7.237  18.939  65.208  1.00  0.00    -0.471 OA 
HETATM   55  H   UNL     1      -6.538  19.058  64.575  1.00  0.00     0.000 HD 
ENDBRANCH  42  53
ENDBRANCH  39  41
ENDBRANCH  31  39
ENDBRANCH  27  28
ENDBRANCH  23  27
ENDBRANCH  13  14
ENDBRANCH   4  13
ENDBRANCH   1   4
BRANCH   1  56
HETATM   56  C   UNL     1      -8.406   4.273  72.021  1.00  0.00    -0.106 C  
HETATM   57  O   UNL     1      -7.441   5.243  72.436  1.00  0.00    -0.091 OA 
HETATM   58  H   UNL     1      -7.013   4.933  73.226  1.00  0.00     0.000 HD 
ENDBRANCH   1  56
TORSDOF 12
ENDMDL
MODEL       61
REMARK 921   NORMALIZED FREE ENERGY PREDICTED BY IDOCK:   -5.91 KCAL/MOL
REMARK 922        TOTAL FREE ENERGY PREDICTED BY IDOCK:  -13.24 KCAL/MOL
REMARK 923 INTER-LIGAND FREE ENERGY PREDICTED BY IDOCK:  -10.08 KCAL/MOL
REMARK 924 INTRA-LIGAND FREE ENERGY PREDICTED BY IDOCK:   -3.16 KCAL/MOL
REMARK 927      BINDING AFFINITY PREDICTED BY RF-SCORE:    0.00 PKD
ROOT
HETATM    1  C   UNL     1     -10.730  15.144  66.141  1.00  0.00    -0.325 C  
HETATM    2  H   UNL     1     -10.148  16.451  67.448  1.00  0.00     0.000 HD 
HETATM    3  O   UNL     1     -10.632  16.487  66.631  1.00  0.00    -0.291 OA 
ENDROOT
BRANCH   1   4
HETATM    4  C   UNL     1     -11.344  14.163  67.184  1.00  0.00    -0.332 C  
BRANCH   4   5
HETATM    5  C   UNL     1     -11.343  14.749  68.632  1.00  0.00    -0.285 C  
HETATM    6  O   UNL     1     -10.028  14.730  69.206  1.00  0.00    -0.307 OA 
HETATM    7  H   UNL     1     -10.027  15.086  70.087  1.00  0.00     0.000 HD 
BRANCH   5   8
HETATM    8  C   UNL     1     -12.274  14.030  69.617  1.00  0.00    -0.332 C  
HETATM    9  C   UNL     1     -12.623  14.918  70.790  1.00  0.00    -0.354 C  
HETATM   10  O   UNL     1     -11.580  12.873  70.110  1.00  0.00    -0.513 OA 
HETATM   11  O   UNL     1     -13.604  15.659  70.795  1.00  0.00    -0.524 OA 
HETATM   12  H   UNL     1     -12.156  12.428  70.720  1.00  0.00     0.000 HD 
ENDBRANCH   5   8
ENDBRANCH   4   5
BRANCH   4  13
HETATM   13  O   UNL     1     -10.691  12.871  67.189  1.00  0.00    -0.249 OA 
BRANCH  13  14
HETATM   14  C   UNL     1      -9.433  12.826  66.495  1.00  0.00    -0.253 C  
HETATM   15  H   UNL     1      -9.864   9.291  64.690  1.00  0.00     0.000 HD 
HETATM   16  O   UNL     1     -10.430  11.665  64.534  1.00  0.00    -0.270 OA 
HETATM   17  C   UNL     1      -9.397  11.628  65.532  1.00  0.00    -0.156 C  
HETATM   18  O   UNL     1      -8.309  12.726  67.358  1.00  0.00    -0.170 OA 
HETATM   19  O   UNL     1      -9.260   9.231  65.421  1.00  0.00    -0.213 OA 
HETATM   20  C   UNL     1      -8.330  11.579  68.213  1.00  0.00    -0.154 C  
HETATM   21  H   UNL     1     -10.408  10.924  63.939  1.00  0.00     0.000 HD 
HETATM   22  C   UNL     1      -9.528  10.330  66.316  1.00  0.00    -0.177 C  
HETATM   23  C   UNL     1      -8.551  10.234  67.500  1.00  0.00    -0.118 C  
BRANCH  20  24
HETATM   24  C   UNL     1      -7.020  11.595  69.035  1.00  0.00    -0.111 C  
HETATM   25  O   UNL     1      -7.125  10.952  70.306  1.00  0.00    -0.460 OA 
HETATM   26  H   UNL     1      -6.320  10.962  70.811  1.00  0.00     0.000 HD 
ENDBRANCH  20  24
BRANCH  23  27
HETATM   27  O   UNL     1      -9.055   9.318  68.513  1.00  0.00    -0.132 OA 
BRANCH  27  28
HETATM   28  C   UNL     1     -10.482   9.186  68.503  1.00  0.00    -0.204 C  
HETATM   29  O   UNL     1     -10.866   7.963  67.894  1.00  0.00    -0.129 OA 
HETATM   30  C   UNL     1     -10.349   6.825  68.587  1.00  0.00    -0.186 C  
HETATM   31  C   UNL     1     -10.981   6.750  70.000  1.00  0.00    -0.295 C  
HETATM   32  C   UNL     1     -10.635   5.626  67.686  1.00  0.00    -0.279 C  
HETATM   33  C   UNL     1     -10.669   8.065  70.765  1.00  0.00    -0.223 C  
HETATM   34  H   UNL     1     -11.238   8.941  72.451  1.00  0.00     0.000 HD 
HETATM   35  C   UNL     1     -11.044   9.291  69.929  1.00  0.00    -0.181 C  
HETATM   36  O   UNL     1     -11.430   8.137  71.983  1.00  0.00    -0.278 OA 
HETATM   37  O   UNL     1     -10.603  10.491  70.589  1.00  0.00    -0.367 OA 
HETATM   38  H   UNL     1     -10.950  10.556  71.470  1.00  0.00     0.000 HD 
BRANCH  31  39
HETATM   39  N   UNL     1     -10.521   5.521  70.693  1.00  0.00    -0.266 NA 
HETATM   40  H   UNL     1     -11.176   4.840  71.078  1.00  0.00     0.000 HD 
BRANCH  39  41
HETATM   41  C   UNL     1      -9.043   5.339  70.791  1.00  0.00    -0.137 C  
HETATM   42  C   UNL     1      -7.873   5.759  72.997  1.00  0.00    -0.104 C  
HETATM   43  C   UNL     1      -8.496   6.188  71.899  1.00  0.00    -0.129 C  
HETATM   44  C   UNL     1      -7.547   4.303  73.195  1.00  0.00    -0.081 C  
HETATM   45  H   UNL     1      -9.838   2.200  71.419  1.00  0.00     0.000 HD 
HETATM   46  O   UNL     1     -10.000   3.131  71.322  1.00  0.00    -0.142 OA 
HETATM   47  C   UNL     1      -7.666   3.408  71.935  1.00  0.00    -0.057 C  
HETATM   48  O   UNL     1      -8.378   3.812  74.243  1.00  0.00    -0.082 OA 
HETATM   49  H   UNL     1      -6.486   2.828  70.462  1.00  0.00     0.000 HD 
HETATM   50  O   UNL     1      -6.413   3.377  71.234  1.00  0.00    -0.018 OA 
HETATM   51  C   UNL     1      -8.776   3.806  70.951  1.00  0.00    -0.074 C  
HETATM   52  H   UNL     1      -8.172   2.893  74.368  1.00  0.00     0.000 HD 
BRANCH  42  53
HETATM   53  C   UNL     1      -7.461   6.675  74.128  1.00  0.00    -0.097 C  
HETATM   54  O   UNL     1      -7.749   8.041  73.847  1.00  0.00    -0.150 OA 
HETATM   55  H   UNL     1      -7.490   8.617  74.558  1.00  0.00     0.000 HD 
ENDBRANCH  42  53
ENDBRANCH  39  41
ENDBRANCH  31  39
ENDBRANCH  27  28
ENDBRANCH  23  27
ENDBRANCH  13  14
ENDBRANCH   4  13
ENDBRANCH   1   4
BRANCH   1  56
HETATM   56  C   UNL     1     -11.511  15.201  64.826  1.00  0.00    -0.383 C  
HETATM   57  O   UNL     1     -12.288  14.008  64.696  1.00  0.00    -0.492 OA 
HETATM   58  H   UNL     1     -12.774  14.044  63.880  1.00  0.00     0.000 HD 
ENDBRANCH   1  56
TORSDOF 12
ENDMDL
MODEL       62
REMARK 921   NORMALIZED FREE ENERGY PREDICTED BY IDOCK:   -5.90 KCAL/MOL
REMARK 922        TOTAL FREE ENERGY PREDICTED BY IDOCK:  -13.23 KCAL/MOL
REMARK 923 INTER-LIGAND FREE ENERGY PREDICTED BY IDOCK:  -10.77 KCAL/MOL
REMARK 924 INTRA-LIGAND FREE ENERGY PREDICTED BY IDOCK:   -2.46 KCAL/MOL
REMARK 927      BINDING AFFINITY PREDICTED BY RF-SCORE:    0.00 PKD
ROOT
HETATM    1  C   UNL     1      -7.418  14.967  67.113  1.00  0.00    -0.110 C  
HETATM    2  H   UNL     1      -7.978  13.144  66.767  1.00  0.00     0.000 HD 
HETATM    3  O   UNL     1      -7.333  13.553  67.333  1.00  0.00    -0.165 OA 
ENDROOT
BRANCH   1   4
HETATM    4  C   UNL     1      -8.859  15.524  67.313  1.00  0.00    -0.201 C  
BRANCH   4   5
HETATM    5  C   UNL     1      -8.870  17.036  67.701  1.00  0.00    -0.220 C  
HETATM    6  O   UNL     1      -9.497  17.247  68.976  1.00  0.00    -0.234 OA 
HETATM    7  H   UNL     1      -9.504  18.167  69.212  1.00  0.00     0.000 HD 
BRANCH   5   8
HETATM    8  C   UNL     1      -9.578  17.953  66.696  1.00  0.00    -0.309 C  
HETATM    9  C   UNL     1     -10.689  18.739  67.356  1.00  0.00    -0.424 C  
HETATM   10  O   UNL     1     -10.153  17.121  65.675  1.00  0.00    -0.561 OA 
HETATM   11  O   UNL     1     -10.511  19.847  67.859  1.00  0.00    -0.413 OA 
HETATM   12  H   UNL     1     -10.591  17.689  65.052  1.00  0.00     0.000 HD 
ENDBRANCH   5   8
ENDBRANCH   4   5
BRANCH   4  13
HETATM   13  O   UNL     1      -9.618  14.772  68.291  1.00  0.00    -0.203 OA 
BRANCH  13  14
HETATM   14  C   UNL     1     -11.017  15.093  68.348  1.00  0.00    -0.271 C  
HETATM   15  H   UNL     1     -12.281  11.926  70.426  1.00  0.00     0.000 HD 
HETATM   16  O   UNL     1     -11.258  14.137  70.632  1.00  0.00    -0.503 OA 
HETATM   17  C   UNL     1     -11.751  14.118  69.283  1.00  0.00    -0.323 C  
HETATM   18  O   UNL     1     -11.664  15.054  67.083  1.00  0.00    -0.327 OA 
HETATM   19  O   UNL     1     -12.517  11.851  69.509  1.00  0.00    -0.080 OA 
HETATM   20  C   UNL     1     -11.574  13.789  66.421  1.00  0.00    -0.360 C  
HETATM   21  H   UNL     1     -11.711  13.534  71.210  1.00  0.00     0.000 HD 
HETATM   22  C   UNL     1     -11.634  12.698  68.745  1.00  0.00    -0.313 C  
HETATM   23  C   UNL     1     -12.016  12.577  67.261  1.00  0.00    -0.216 C  
BRANCH  20  24
HETATM   24  C   UNL     1     -12.371  13.905  65.101  1.00  0.00    -0.449 C  
HETATM   25  O   UNL     1     -11.955  14.988  64.266  1.00  0.00    -0.618 OA 
HETATM   26  H   UNL     1     -12.445  15.058  63.455  1.00  0.00     0.000 HD 
ENDBRANCH  20  24
BRANCH  23  27
HETATM   27  O   UNL     1     -11.382  11.415  66.657  1.00  0.00    -0.355 OA 
BRANCH  27  28
HETATM   28  C   UNL     1     -10.017  11.238  67.058  1.00  0.00    -0.198 C  
HETATM   29  O   UNL     1      -9.916  10.237  68.059  1.00  0.00    -0.148 OA 
HETATM   30  C   UNL     1     -10.383   8.964  67.604  1.00  0.00    -0.251 C  
HETATM   31  C   UNL     1      -9.459   8.450  66.470  1.00  0.00    -0.220 C  
HETATM   32  C   UNL     1     -10.441   8.076  68.844  1.00  0.00    -0.207 C  
HETATM   33  C   UNL     1      -9.445   9.491  65.317  1.00  0.00    -0.258 C  
HETATM   34  H   UNL     1      -8.417   9.806  63.651  1.00  0.00     0.000 HD 
HETATM   35  C   UNL     1      -9.139  10.894  65.845  1.00  0.00    -0.193 C  
HETATM   36  O   UNL     1      -8.425   9.169  64.356  1.00  0.00    -0.169 OA 
HETATM   37  O   UNL     1      -9.285  11.861  64.789  1.00  0.00    -0.418 OA 
HETATM   38  H   UNL     1      -8.743  11.649  64.039  1.00  0.00     0.000 HD 
BRANCH  31  39
HETATM   39  N   UNL     1      -9.882   7.090  66.056  1.00  0.00    -0.388 NA 
HETATM   40  H   UNL     1     -10.858   6.862  65.866  1.00  0.00     0.000 HD 
BRANCH  39  41
HETATM   41  C   UNL     1      -8.795   6.075  65.933  1.00  0.00    -0.149 C  
HETATM   42  C   UNL     1      -7.849   4.993  68.017  1.00  0.00    -0.087 C  
HETATM   43  C   UNL     1      -7.988   6.034  67.195  1.00  0.00    -0.102 C  
HETATM   44  C   UNL     1      -8.438   3.648  67.686  1.00  0.00    -0.095 C  
HETATM   45  H   UNL     1     -11.305   3.967  65.563  1.00  0.00     0.000 HD 
HETATM   46  O   UNL     1     -10.894   4.790  65.798  1.00  0.00    -0.295 OA 
HETATM   47  C   UNL     1      -8.907   3.460  66.220  1.00  0.00    -0.134 C  
HETATM   48  O   UNL     1      -9.511   3.409  68.593  1.00  0.00    -0.170 OA 
HETATM   49  H   UNL     1      -8.115   2.834  64.522  1.00  0.00     0.000 HD 
HETATM   50  O   UNL     1      -7.827   2.950  65.420  1.00  0.00    -0.080 OA 
HETATM   51  C   UNL     1      -9.472   4.718  65.546  1.00  0.00    -0.163 C  
HETATM   52  H   UNL     1      -9.883   2.560  68.383  1.00  0.00     0.000 HD 
BRANCH  42  53
HETATM   53  C   UNL     1      -7.116   5.072  69.338  1.00  0.00    -0.056 C  
HETATM   54  O   UNL     1      -7.686   4.217  70.323  1.00  0.00    -0.048 OA 
HETATM   55  H   UNL     1      -7.227   4.267  71.153  1.00  0.00     0.000 HD 
ENDBRANCH  42  53
ENDBRANCH  39  41
ENDBRANCH  31  39
ENDBRANCH  27  28
ENDBRANCH  23  27
ENDBRANCH  13  14
ENDBRANCH   4  13
ENDBRANCH   1   4
BRANCH   1  56
HETATM   56  C   UNL     1      -6.379  15.626  68.024  1.00  0.00    -0.134 C  
HETATM   57  O   UNL     1      -6.852  15.585  69.372  1.00  0.00    -0.150 OA 
HETATM   58  H   UNL     1      -6.207  15.994  69.938  1.00  0.00     0.000 HD 
ENDBRANCH   1  56
TORSDOF 12
ENDMDL
MODEL       63
REMARK 921   NORMALIZED FREE ENERGY PREDICTED BY IDOCK:   -5.89 KCAL/MOL
REMARK 922        TOTAL FREE ENERGY PREDICTED BY IDOCK:  -13.22 KCAL/MOL
REMARK 923 INTER-LIGAND FREE ENERGY PREDICTED BY IDOCK:  -10.93 KCAL/MOL
REMARK 924 INTRA-LIGAND FREE ENERGY PREDICTED BY IDOCK:   -2.30 KCAL/MOL
REMARK 927      BINDING AFFINITY PREDICTED BY RF-SCORE:    0.00 PKD
ROOT
HETATM    1  C   UNL     1      -6.953  15.859  67.660  1.00  0.00    -0.162 C  
HETATM    2  H   UNL     1      -6.060  17.249  66.645  1.00  0.00     0.000 HD 
HETATM    3  O   UNL     1      -6.015  16.300  66.670  1.00  0.00    -0.286 OA 
ENDROOT
BRANCH   1   4
HETATM    4  C   UNL     1      -8.391  16.405  67.412  1.00  0.00    -0.164 C  
BRANCH   4   5
HETATM    5  C   UNL     1      -8.470  17.961  67.518  1.00  0.00    -0.232 C  
HETATM    6  O   UNL     1      -9.104  18.374  68.738  1.00  0.00    -0.313 OA 
HETATM    7  H   UNL     1      -9.152  19.320  68.803  1.00  0.00     0.000 HD 
BRANCH   5   8
HETATM    8  C   UNL     1      -9.219  18.647  66.368  1.00  0.00    -0.291 C  
HETATM    9  C   UNL     1     -10.224  19.650  66.889  1.00  0.00    -0.442 C  
HETATM   10  O   UNL     1      -9.924  17.630  65.638  1.00  0.00    -0.558 OA 
HETATM   11  O   UNL     1      -9.947  20.832  67.079  1.00  0.00    -0.401 OA 
HETATM   12  H   UNL     1     -10.388  18.055  64.926  1.00  0.00     0.000 HD 
ENDBRANCH   5   8
ENDBRANCH   4   5
BRANCH   4  13
HETATM   13  O   UNL     1      -9.374  15.814  68.297  1.00  0.00    -0.189 OA 
BRANCH  13  14
HETATM   14  C   UNL     1     -10.741  16.097  67.958  1.00  0.00    -0.321 C  
HETATM   15  H   UNL     1     -12.447  15.064  71.418  1.00  0.00     0.000 HD 
HETATM   16  O   UNL     1     -11.269  16.869  70.264  1.00  0.00    -0.423 OA 
HETATM   17  C   UNL     1     -11.636  15.973  69.203  1.00  0.00    -0.336 C  
HETATM   18  O   UNL     1     -11.269  15.241  66.955  1.00  0.00    -0.330 OA 
HETATM   19  O   UNL     1     -12.604  14.408  70.749  1.00  0.00    -0.319 OA 
HETATM   20  C   UNL     1     -11.224  13.851  67.291  1.00  0.00    -0.312 C  
HETATM   21  H   UNL     1     -11.821  16.792  71.033  1.00  0.00     0.000 HD 
HETATM   22  C   UNL     1     -11.587  14.547  69.735  1.00  0.00    -0.295 C  
HETATM   23  C   UNL     1     -11.840  13.486  68.653  1.00  0.00    -0.369 C  
BRANCH  20  24
HETATM   24  C   UNL     1     -11.883  13.077  66.126  1.00  0.00    -0.409 C  
HETATM   25  O   UNL     1     -11.235  11.844  65.808  1.00  0.00    -0.320 OA 
HETATM   26  H   UNL     1     -11.640  11.368  65.093  1.00  0.00     0.000 HD 
ENDBRANCH  20  24
BRANCH  23  27
HETATM   27  O   UNL     1     -11.250  12.210  69.032  1.00  0.00    -0.234 OA 
BRANCH  27  28
HETATM   28  C   UNL     1     -12.199  11.138  69.085  1.00  0.00    -0.175 C  
HETATM   29  O   UNL     1     -11.867  10.129  68.144  1.00  0.00    -0.113 OA 
HETATM   30  C   UNL     1     -10.580   9.557  68.391  1.00  0.00    -0.219 C  
HETATM   31  C   UNL     1     -10.601   8.806  69.747  1.00  0.00    -0.224 C  
HETATM   32  C   UNL     1     -10.272   8.687  67.175  1.00  0.00    -0.353 C  
HETATM   33  C   UNL     1     -11.001   9.801  70.871  1.00  0.00    -0.341 C  
HETATM   34  H   UNL     1     -11.506   9.709  72.787  1.00  0.00     0.000 HD 
HETATM   35  C   UNL     1     -12.279  10.559  70.507  1.00  0.00    -0.344 C  
HETATM   36  O   UNL     1     -11.261   9.101  72.100  1.00  0.00    -0.326 OA 
HETATM   37  O   UNL     1     -12.543  11.581  71.485  1.00  0.00    -0.329 OA 
HETATM   38  H   UNL     1     -12.593  11.223  72.363  1.00  0.00     0.000 HD 
BRANCH  31  39
HETATM   39  N   UNL     1      -9.297   8.132  69.968  1.00  0.00    -0.159 NA 
HETATM   40  H   UNL     1      -8.824   7.615  69.227  1.00  0.00     0.000 HD 
BRANCH  39  41
HETATM   41  C   UNL     1      -8.720   8.256  71.339  1.00  0.00    -0.158 C  
HETATM   42  C   UNL     1      -7.582   6.261  72.404  1.00  0.00    -0.098 C  
HETATM   43  C   UNL     1      -8.673   6.911  71.998  1.00  0.00    -0.126 C  
HETATM   44  C   UNL     1      -6.219   6.896  72.331  1.00  0.00    -0.045 C  
HETATM   45  H   UNL     1      -6.058   9.345  69.723  1.00  0.00     0.000 HD 
HETATM   46  O   UNL     1      -6.902   8.917  69.812  1.00  0.00    -0.044 OA 
HETATM   47  C   UNL     1      -6.200   8.426  72.084  1.00  0.00    -0.066 C  
HETATM   48  O   UNL     1      -5.476   6.213  71.324  1.00  0.00    -0.020 OA 
HETATM   49  H   UNL     1      -6.217  10.065  73.187  1.00  0.00     0.000 HD 
HETATM   50  O   UNL     1      -6.228   9.127  73.338  1.00  0.00    -0.308 OA 
HETATM   51  C   UNL     1      -7.330   8.960  71.192  1.00  0.00    -0.105 C  
HETATM   52  H   UNL     1      -4.616   6.614  71.278  1.00  0.00     0.000 HD 
BRANCH  42  53
HETATM   53  C   UNL     1      -7.612   4.850  72.948  1.00  0.00    -0.092 C  
HETATM   54  O   UNL     1      -6.316   4.384  73.311  1.00  0.00    -0.039 OA 
HETATM   55  H   UNL     1      -6.335   3.497  73.653  1.00  0.00     0.000 HD 
ENDBRANCH  42  53
ENDBRANCH  39  41
ENDBRANCH  31  39
ENDBRANCH  27  28
ENDBRANCH  23  27
ENDBRANCH  13  14
ENDBRANCH   4  13
ENDBRANCH   1   4
BRANCH   1  56
HETATM   56  C   UNL     1      -6.880  14.331  67.700  1.00  0.00    -0.182 C  
HETATM   57  O   UNL     1      -5.556  13.921  67.348  1.00  0.00    -0.351 OA 
HETATM   58  H   UNL     1      -5.511  12.972  67.372  1.00  0.00     0.000 HD 
ENDBRANCH   1  56
TORSDOF 12
ENDMDL
MODEL       64
REMARK 921   NORMALIZED FREE ENERGY PREDICTED BY IDOCK:   -5.89 KCAL/MOL
REMARK 922        TOTAL FREE ENERGY PREDICTED BY IDOCK:  -13.22 KCAL/MOL
REMARK 923 INTER-LIGAND FREE ENERGY PREDICTED BY IDOCK:  -10.08 KCAL/MOL
REMARK 924 INTRA-LIGAND FREE ENERGY PREDICTED BY IDOCK:   -3.13 KCAL/MOL
REMARK 927      BINDING AFFINITY PREDICTED BY RF-SCORE:    0.00 PKD
ROOT
HETATM    1  C   UNL     1     -10.083  17.787  67.029  1.00  0.00    -0.337 C  
HETATM    2  H   UNL     1      -9.828  16.779  65.393  1.00  0.00     0.000 HD 
HETATM    3  O   UNL     1      -9.795  17.699  65.627  1.00  0.00    -0.536 OA 
ENDROOT
BRANCH   1   4
HETATM    4  C   UNL     1      -9.146  16.893  67.895  1.00  0.00    -0.233 C  
BRANCH   4   5
HETATM    5  C   UNL     1      -8.157  16.048  67.032  1.00  0.00    -0.222 C  
HETATM    6  O   UNL     1      -8.850  15.068  66.245  1.00  0.00    -0.434 OA 
HETATM    7  H   UNL     1      -8.248  14.554  65.720  1.00  0.00     0.000 HD 
BRANCH   5   8
HETATM    8  C   UNL     1      -7.081  15.302  67.833  1.00  0.00    -0.141 C  
HETATM    9  C   UNL     1      -7.567  13.937  68.267  1.00  0.00    -0.130 C  
HETATM   10  O   UNL     1      -6.793  16.078  69.006  1.00  0.00    -0.137 OA 
HETATM   11  O   UNL     1      -7.404  12.926  67.586  1.00  0.00    -0.118 OA 
HETATM   12  H   UNL     1      -6.126  15.617  69.502  1.00  0.00     0.000 HD 
ENDBRANCH   5   8
ENDBRANCH   4   5
BRANCH   4  13
HETATM   13  O   UNL     1      -9.877  16.015  68.785  1.00  0.00    -0.206 OA 
BRANCH  13  14
HETATM   14  C   UNL     1     -11.305  16.038  68.619  1.00  0.00    -0.383 C  
HETATM   15  H   UNL     1     -12.352  14.626  72.204  1.00  0.00     0.000 HD 
HETATM   16  O   UNL     1     -11.683  16.647  71.001  1.00  0.00    -0.553 OA 
HETATM   17  C   UNL     1     -12.002  15.719  69.952  1.00  0.00    -0.332 C  
HETATM   18  O   UNL     1     -11.781  15.119  67.647  1.00  0.00    -0.329 OA 
HETATM   19  O   UNL     1     -12.463  13.966  71.530  1.00  0.00    -0.339 OA 
HETATM   20  C   UNL     1     -11.435  13.756  67.914  1.00  0.00    -0.314 C  
HETATM   21  H   UNL     1     -12.113  16.449  71.825  1.00  0.00     0.000 HD 
HETATM   22  C   UNL     1     -11.622  14.319  70.412  1.00  0.00    -0.200 C  
HETATM   23  C   UNL     1     -11.800  13.251  69.321  1.00  0.00    -0.331 C  
BRANCH  20  24
HETATM   24  C   UNL     1     -12.073  12.894  66.800  1.00  0.00    -0.265 C  
HETATM   25  O   UNL     1     -12.759  13.652  65.802  1.00  0.00    -0.471 OA 
HETATM   26  H   UNL     1     -13.151  13.122  65.118  1.00  0.00     0.000 HD 
ENDBRANCH  20  24
BRANCH  23  27
HETATM   27  O   UNL     1     -10.940  12.104  69.573  1.00  0.00    -0.119 OA 
BRANCH  27  28
HETATM   28  C   UNL     1     -11.592  10.846  69.363  1.00  0.00    -0.316 C  
HETATM   29  O   UNL     1     -10.724   9.938  68.702  1.00  0.00    -0.215 OA 
HETATM   30  C   UNL     1      -9.540   9.670  69.457  1.00  0.00    -0.198 C  
HETATM   31  C   UNL     1      -9.918   8.934  70.767  1.00  0.00    -0.226 C  
HETATM   32  C   UNL     1      -8.619   8.892  68.521  1.00  0.00    -0.133 C  
HETATM   33  C   UNL     1     -10.913   9.813  71.573  1.00  0.00    -0.069 C  
HETATM   34  H   UNL     1     -12.078   9.611  73.165  1.00  0.00     0.000 HD 
HETATM   35  C   UNL     1     -12.085  10.264  70.697  1.00  0.00    -0.338 C  
HETATM   36  O   UNL     1     -11.469   9.073  72.673  1.00  0.00    -0.017 OA 
HETATM   37  O   UNL     1     -12.907  11.201  71.417  1.00  0.00    -0.413 OA 
HETATM   38  H   UNL     1     -13.211  10.841  72.241  1.00  0.00     0.000 HD 
BRANCH  31  39
HETATM   39  N   UNL     1      -8.688   8.571  71.513  1.00  0.00    -0.171 NA 
HETATM   40  H   UNL     1      -7.978   9.263  71.754  1.00  0.00     0.000 HD 
BRANCH  39  41
HETATM   41  C   UNL     1      -8.549   7.133  71.888  1.00  0.00    -0.116 C  
HETATM   42  C   UNL     1      -9.089   5.336  70.189  1.00  0.00    -0.168 C  
HETATM   43  C   UNL     1      -9.457   6.294  71.041  1.00  0.00    -0.187 C  
HETATM   44  C   UNL     1      -7.652   4.909  70.061  1.00  0.00    -0.055 C  
HETATM   45  H   UNL     1      -5.418   7.566  70.944  1.00  0.00     0.000 HD 
HETATM   46  O   UNL     1      -6.340   7.786  71.012  1.00  0.00    -0.037 OA 
HETATM   47  C   UNL     1      -6.703   5.391  71.189  1.00  0.00    -0.044 C  
HETATM   48  O   UNL     1      -7.182   5.342  68.788  1.00  0.00    -0.063 OA 
HETATM   49  H   UNL     1      -6.094   4.723  72.945  1.00  0.00     0.000 HD 
HETATM   50  O   UNL     1      -6.676   4.427  72.254  1.00  0.00    -0.044 OA 
HETATM   51  C   UNL     1      -7.031   6.771  71.776  1.00  0.00    -0.071 C  
HETATM   52  H   UNL     1      -6.274   5.072  68.707  1.00  0.00     0.000 HD 
BRANCH  42  53
HETATM   53  C   UNL     1     -10.062   4.620  69.278  1.00  0.00    -0.100 C  
HETATM   54  O   UNL     1      -9.404   3.742  68.370  1.00  0.00    -0.148 OA 
HETATM   55  H   UNL     1     -10.015   3.292  67.797  1.00  0.00     0.000 HD 
ENDBRANCH  42  53
ENDBRANCH  39  41
ENDBRANCH  31  39
ENDBRANCH  27  28
ENDBRANCH  23  27
ENDBRANCH  13  14
ENDBRANCH   4  13
ENDBRANCH   1   4
BRANCH   1  56
HETATM   56  C   UNL     1     -10.029  19.270  67.406  1.00  0.00    -0.368 C  
HETATM   57  O   UNL     1     -10.478  20.048  66.293  1.00  0.00    -0.454 OA 
HETATM   58  H   UNL     1     -10.444  20.968  66.527  1.00  0.00     0.000 HD 
ENDBRANCH   1  56
TORSDOF 12
ENDMDL
MODEL       65
REMARK 921   NORMALIZED FREE ENERGY PREDICTED BY IDOCK:   -5.89 KCAL/MOL
REMARK 922        TOTAL FREE ENERGY PREDICTED BY IDOCK:  -13.22 KCAL/MOL
REMARK 923 INTER-LIGAND FREE ENERGY PREDICTED BY IDOCK:  -10.76 KCAL/MOL
REMARK 924 INTRA-LIGAND FREE ENERGY PREDICTED BY IDOCK:   -2.46 KCAL/MOL
REMARK 927      BINDING AFFINITY PREDICTED BY RF-SCORE:    0.00 PKD
ROOT
HETATM    1  C   UNL     1      -9.530  18.402  66.374  1.00  0.00    -0.295 C  
HETATM    2  H   UNL     1      -8.007  18.795  65.242  1.00  0.00     0.000 HD 
HETATM    3  O   UNL     1      -8.566  19.304  65.817  1.00  0.00    -0.405 OA 
ENDROOT
BRANCH   1   4
HETATM    4  C   UNL     1      -8.874  17.173  67.073  1.00  0.00    -0.229 C  
BRANCH   4   5
HETATM    5  C   UNL     1      -7.319  17.166  66.939  1.00  0.00    -0.207 C  
HETATM    6  O   UNL     1      -6.821  15.849  66.655  1.00  0.00    -0.204 OA 
HETATM    7  H   UNL     1      -5.874  15.845  66.574  1.00  0.00     0.000 HD 
BRANCH   5   8
HETATM    8  C   UNL     1      -6.564  17.675  68.174  1.00  0.00    -0.192 C  
HETATM    9  C   UNL     1      -6.698  16.714  69.334  1.00  0.00    -0.218 C  
HETATM   10  O   UNL     1      -7.146  18.933  68.553  1.00  0.00    -0.257 OA 
HETATM   11  O   UNL     1      -5.901  15.800  69.535  1.00  0.00    -0.118 OA 
HETATM   12  H   UNL     1      -6.678  19.248  69.318  1.00  0.00     0.000 HD 
ENDBRANCH   5   8
ENDBRANCH   4   5
BRANCH   4  13
HETATM   13  O   UNL     1      -9.402  15.911  66.597  1.00  0.00    -0.217 OA 
BRANCH  13  14
HETATM   14  C   UNL     1     -10.794  15.936  66.237  1.00  0.00    -0.200 C  
HETATM   15  H   UNL     1     -12.287  14.141  69.477  1.00  0.00     0.000 HD 
HETATM   16  O   UNL     1     -11.511  16.285  68.593  1.00  0.00    -0.367 OA 
HETATM   17  C   UNL     1     -11.659  15.470  67.420  1.00  0.00    -0.060 C  
HETATM   18  O   UNL     1     -11.108  15.119  65.119  1.00  0.00    -0.362 OA 
HETATM   19  O   UNL     1     -12.287  13.554  68.729  1.00  0.00    -0.235 OA 
HETATM   20  C   UNL     1     -10.767  13.739  65.289  1.00  0.00    -0.339 C  
HETATM   21  H   UNL     1     -12.046  15.997  69.324  1.00  0.00     0.000 HD 
HETATM   22  C   UNL     1     -11.310  14.033  67.782  1.00  0.00    -0.303 C  
HETATM   23  C   UNL     1     -11.309  13.084  66.572  1.00  0.00    -0.320 C  
BRANCH  20  24
HETATM   24  C   UNL     1     -11.224  12.993  64.015  1.00  0.00    -0.405 C  
HETATM   25  O   UNL     1     -12.278  13.647  63.306  1.00  0.00    -0.959 OA 
HETATM   26  H   UNL     1     -12.559  13.188  62.523  1.00  0.00     0.000 HD 
ENDBRANCH  20  24
BRANCH  23  27
HETATM   27  O   UNL     1     -10.462  11.927  66.822  1.00  0.00    -0.212 OA 
BRANCH  27  28
HETATM   28  C   UNL     1      -9.609  12.082  67.963  1.00  0.00    -0.199 C  
HETATM   29  O   UNL     1     -10.198  11.491  69.112  1.00  0.00    -0.141 OA 
HETATM   30  C   UNL     1     -10.421  10.088  68.947  1.00  0.00    -0.210 C  
HETATM   31  C   UNL     1      -9.059   9.361  68.813  1.00  0.00    -0.132 C  
HETATM   32  C   UNL     1     -11.268   9.660  70.143  1.00  0.00    -0.302 C  
HETATM   33  C   UNL     1      -8.285   9.954  67.605  1.00  0.00    -0.114 C  
HETATM   34  H   UNL     1      -6.455   9.840  66.847  1.00  0.00     0.000 HD 
HETATM   35  C   UNL     1      -8.223  11.481  67.685  1.00  0.00    -0.131 C  
HETATM   36  O   UNL     1      -6.928   9.477  67.587  1.00  0.00    -0.078 OA 
HETATM   37  O   UNL     1      -7.641  12.015  66.482  1.00  0.00    -0.373 OA 
HETATM   38  H   UNL     1      -6.784  11.644  66.310  1.00  0.00     0.000 HD 
BRANCH  31  39
HETATM   39  N   UNL     1      -9.277   7.895  68.735  1.00  0.00    -0.144 NA 
HETATM   40  H   UNL     1      -9.860   7.474  68.011  1.00  0.00     0.000 HD 
BRANCH  39  41
HETATM   41  C   UNL     1      -8.595   7.074  69.778  1.00  0.00    -0.141 C  
HETATM   42  C   UNL     1      -9.675   6.784  72.049  1.00  0.00    -0.159 C  
HETATM   43  C   UNL     1      -9.029   7.517  71.142  1.00  0.00    -0.144 C  
HETATM   44  C   UNL     1      -9.959   5.324  71.819  1.00  0.00    -0.190 C  
HETATM   45  H   UNL     1     -10.180   4.573  68.324  1.00  0.00     0.000 HD 
HETATM   46  O   UNL     1      -9.998   5.484  68.522  1.00  0.00    -0.138 OA 
HETATM   47  C   UNL     1      -9.179   4.661  70.654  1.00  0.00    -0.136 C  
HETATM   48  O   UNL     1     -11.364   5.179  71.631  1.00  0.00     0.082 OA 
HETATM   49  H   UNL     1      -7.457   3.721  70.423  1.00  0.00     0.000 HD 
HETATM   50  O   UNL     1      -7.935   4.128  71.137  1.00  0.00    -0.068 OA 
HETATM   51  C   UNL     1      -8.895   5.573  69.452  1.00  0.00    -0.106 C  
HETATM   52  H   UNL     1     -11.543   4.257  71.486  1.00  0.00     0.000 HD 
BRANCH  42  53
HETATM   53  C   UNL     1     -10.188   7.345  73.357  1.00  0.00    -0.351 C  
HETATM   54  O   UNL     1     -11.604   7.487  73.365  1.00  0.00    -0.621 OA 
HETATM   55  H   UNL     1     -11.926   7.840  74.187  1.00  0.00     0.000 HD 
ENDBRANCH  42  53
ENDBRANCH  39  41
ENDBRANCH  31  39
ENDBRANCH  27  28
ENDBRANCH  23  27
ENDBRANCH  13  14
ENDBRANCH   4  13
ENDBRANCH   1   4
BRANCH   1  56
HETATM   56  C   UNL     1     -10.430  19.221  67.302  1.00  0.00    -0.462 C  
HETATM   57  O   UNL     1     -10.326  18.699  68.629  1.00  0.00    -0.392 OA 
HETATM   58  H   UNL     1     -10.884  19.208  69.205  1.00  0.00     0.000 HD 
ENDBRANCH   1  56
TORSDOF 12
ENDMDL
MODEL       66
REMARK 921   NORMALIZED FREE ENERGY PREDICTED BY IDOCK:   -5.88 KCAL/MOL
REMARK 922        TOTAL FREE ENERGY PREDICTED BY IDOCK:  -13.21 KCAL/MOL
REMARK 923 INTER-LIGAND FREE ENERGY PREDICTED BY IDOCK:  -10.32 KCAL/MOL
REMARK 924 INTRA-LIGAND FREE ENERGY PREDICTED BY IDOCK:   -2.89 KCAL/MOL
REMARK 927      BINDING AFFINITY PREDICTED BY RF-SCORE:    0.00 PKD
ROOT
HETATM    1  C   UNL     1      -8.003   7.309  66.271  1.00  0.00    -0.110 C  
HETATM    2  H   UNL     1      -8.361   8.870  67.362  1.00  0.00     0.000 HD 
HETATM    3  O   UNL     1      -8.332   8.695  66.429  1.00  0.00    -0.108 OA 
ENDROOT
BRANCH   1   4
HETATM    4  C   UNL     1      -8.968   6.366  67.050  1.00  0.00    -0.119 C  
BRANCH   4   5
HETATM    5  C   UNL     1     -10.035   5.701  66.124  1.00  0.00    -0.058 C  
HETATM    6  O   UNL     1     -11.370   6.009  66.553  1.00  0.00    -0.737 OA 
HETATM    7  H   UNL     1     -12.019   5.605  65.989  1.00  0.00     0.000 HD 
BRANCH   5   8
HETATM    8  C   UNL     1      -9.937   4.173  66.024  1.00  0.00    -0.179 C  
HETATM    9  C   UNL     1      -9.090   3.603  67.140  1.00  0.00    -0.168 C  
HETATM   10  O   UNL     1      -9.312   3.857  64.770  1.00  0.00    -0.137 OA 
HETATM   11  O   UNL     1      -9.562   3.251  68.219  1.00  0.00    -0.172 OA 
HETATM   12  H   UNL     1      -9.251   2.911  64.708  1.00  0.00     0.000 HD 
ENDBRANCH   5   8
ENDBRANCH   4   5
BRANCH   4  13
HETATM   13  O   UNL     1      -9.636   7.034  68.148  1.00  0.00    -0.130 OA 
BRANCH  13  14
HETATM   14  C   UNL     1      -9.073   6.776  69.445  1.00  0.00    -0.144 C  
HETATM   15  H   UNL     1     -12.320   7.475  71.662  1.00  0.00     0.000 HD 
HETATM   16  O   UNL     1     -11.195   5.791  70.292  1.00  0.00    -0.304 OA 
HETATM   17  C   UNL     1     -10.177   6.779  70.516  1.00  0.00    -0.192 C  
HETATM   18  O   UNL     1      -8.084   7.718  69.835  1.00  0.00    -0.115 OA 
HETATM   19  O   UNL     1     -11.697   8.189  71.731  1.00  0.00    -0.268 OA 
HETATM   20  C   UNL     1      -8.548   9.072  69.867  1.00  0.00    -0.140 C  
HETATM   21  H   UNL     1     -11.877   5.793  70.953  1.00  0.00     0.000 HD 
HETATM   22  C   UNL     1     -10.838   8.150  70.573  1.00  0.00    -0.240 C  
HETATM   23  C   UNL     1      -9.831   9.306  70.683  1.00  0.00    -0.270 C  
BRANCH  20  24
HETATM   24  C   UNL     1      -7.373   9.947  70.361  1.00  0.00    -0.127 C  
HETATM   25  O   UNL     1      -6.725   9.442  71.530  1.00  0.00    -0.277 OA 
HETATM   26  H   UNL     1      -6.003   9.980  71.833  1.00  0.00     0.000 HD 
ENDBRANCH  20  24
BRANCH  23  27
HETATM   27  O   UNL     1     -10.408  10.544  70.181  1.00  0.00    -0.160 OA 
BRANCH  27  28
HETATM   28  C   UNL     1     -11.776  10.413  69.778  1.00  0.00    -0.237 C  
HETATM   29  O   UNL     1     -12.597  11.328  70.489  1.00  0.00    -0.291 OA 
HETATM   30  C   UNL     1     -12.224  12.688  70.253  1.00  0.00    -0.271 C  
HETATM   31  C   UNL     1     -12.476  13.042  68.765  1.00  0.00     0.412 C  
HETATM   32  C   UNL     1     -13.019  13.516  71.258  1.00  0.00    -0.384 C  
HETATM   33  C   UNL     1     -11.661  12.071  67.868  1.00  0.00    -0.337 C  
HETATM   34  H   UNL     1     -11.547  11.614  65.942  1.00  0.00     0.000 HD 
HETATM   35  C   UNL     1     -11.915  10.613  68.261  1.00  0.00     0.275 C  
HETATM   36  O   UNL     1     -12.046  12.209  66.489  1.00  0.00    -0.627 OA 
HETATM   37  O   UNL     1     -11.035   9.744  67.526  1.00  0.00    -0.369 OA 
HETATM   38  H   UNL     1     -11.120   9.867  66.589  1.00  0.00     0.000 HD 
BRANCH  31  39
HETATM   39  N   UNL     1     -12.178  14.477  68.532  1.00  0.00    -0.602 NA 
HETATM   40  H   UNL     1     -12.891  15.200  68.635  1.00  0.00     0.000 HD 
BRANCH  39  41
HETATM   41  C   UNL     1     -10.775  14.800  68.140  1.00  0.00    -0.247 C  
HETATM   42  C   UNL     1     -10.332  16.689  66.514  1.00  0.00    -0.300 C  
HETATM   43  C   UNL     1     -10.760  15.457  66.793  1.00  0.00    -0.310 C  
HETATM   44  C   UNL     1      -9.692  17.554  67.565  1.00  0.00    -0.278 C  
HETATM   45  H   UNL     1     -10.840  16.686  70.845  1.00  0.00     0.000 HD 
HETATM   46  O   UNL     1     -11.214  16.165  70.144  1.00  0.00    -0.343 OA 
HETATM   47  C   UNL     1      -9.259  16.827  68.864  1.00  0.00    -0.234 C  
HETATM   48  O   UNL     1     -10.593  18.619  67.859  1.00  0.00    -0.394 OA 
HETATM   49  H   UNL     1      -7.645  15.904  69.531  1.00  0.00     0.000 HD 
HETATM   50  O   UNL     1      -7.910  16.350  68.734  1.00  0.00    -0.195 OA 
HETATM   51  C   UNL     1     -10.160  15.660  69.293  1.00  0.00    -0.258 C  
HETATM   52  H   UNL     1     -10.188  19.164  68.524  1.00  0.00     0.000 HD 
BRANCH  42  53
HETATM   53  C   UNL     1     -10.467  17.323  65.146  1.00  0.00     0.221 C  
HETATM   54  O   UNL     1     -11.055  16.439  64.198  1.00  0.00    -1.226 OA 
HETATM   55  H   UNL     1     -11.139  16.837  63.339  1.00  0.00     0.000 HD 
ENDBRANCH  42  53
ENDBRANCH  39  41
ENDBRANCH  31  39
ENDBRANCH  27  28
ENDBRANCH  23  27
ENDBRANCH  13  14
ENDBRANCH   4  13
ENDBRANCH   1   4
BRANCH   1  56
HETATM   56  C   UNL     1      -7.957   7.026  64.767  1.00  0.00    -0.122 C  
HETATM   57  O   UNL     1      -7.073   5.928  64.528  1.00  0.00    -0.050 OA 
HETATM   58  H   UNL     1      -7.045   5.753  63.595  1.00  0.00     0.000 HD 
ENDBRANCH   1  56
TORSDOF 12
ENDMDL
MODEL       67
REMARK 921   NORMALIZED FREE ENERGY PREDICTED BY IDOCK:   -5.85 KCAL/MOL
REMARK 922        TOTAL FREE ENERGY PREDICTED BY IDOCK:  -13.15 KCAL/MOL
REMARK 923 INTER-LIGAND FREE ENERGY PREDICTED BY IDOCK:  -10.88 KCAL/MOL
REMARK 924 INTRA-LIGAND FREE ENERGY PREDICTED BY IDOCK:   -2.27 KCAL/MOL
REMARK 927      BINDING AFFINITY PREDICTED BY RF-SCORE:    0.00 PKD
ROOT
HETATM    1  C   UNL     1      -8.717   5.661  69.337  1.00  0.00    -0.109 C  
HETATM    2  H   UNL     1      -9.037   4.684  70.980  1.00  0.00     0.000 HD 
HETATM    3  O   UNL     1      -8.511   4.538  70.203  1.00  0.00    -0.072 OA 
ENDROOT
BRANCH   1   4
HETATM    4  C   UNL     1      -8.425   7.023  70.035  1.00  0.00    -0.140 C  
BRANCH   4   5
HETATM    5  C   UNL     1      -8.861   7.034  71.535  1.00  0.00    -0.128 C  
HETATM    6  O   UNL     1      -8.020   6.188  72.333  1.00  0.00    -0.104 OA 
HETATM    7  H   UNL     1      -8.285   6.196  73.246  1.00  0.00     0.000 HD 
BRANCH   5   8
HETATM    8  C   UNL     1     -10.309   6.595  71.787  1.00  0.00    -0.196 C  
HETATM    9  C   UNL     1     -10.948   7.416  72.886  1.00  0.00    -0.361 C  
HETATM   10  O   UNL     1     -10.283   5.220  72.200  1.00  0.00    -0.186 OA 
HETATM   11  O   UNL     1     -11.567   8.455  72.665  1.00  0.00    -0.385 OA 
HETATM   12  H   UNL     1     -11.180   4.948  72.356  1.00  0.00     0.000 HD 
ENDBRANCH   5   8
ENDBRANCH   4   5
BRANCH   4  13
HETATM   13  O   UNL     1      -9.034   8.144  69.350  1.00  0.00    -0.146 OA 
BRANCH  13  14
HETATM   14  C   UNL     1     -10.396   7.937  68.942  1.00  0.00    -0.213 C  
HETATM   15  H   UNL     1     -10.147   9.406  65.237  1.00  0.00     0.000 HD 
HETATM   16  O   UNL     1      -9.732   7.419  66.601  1.00  0.00    -0.197 OA 
HETATM   17  C   UNL     1     -10.556   8.241  67.443  1.00  0.00    -0.253 C  
HETATM   18  O   UNL     1     -11.332   8.735  69.651  1.00  0.00    -0.022 OA 
HETATM   19  O   UNL     1     -10.599  10.009  65.816  1.00  0.00    -0.089 OA 
HETATM   20  C   UNL     1     -11.098  10.143  69.545  1.00  0.00    -0.250 C  
HETATM   21  H   UNL     1      -9.830   7.608  65.675  1.00  0.00     0.000 HD 
HETATM   22  C   UNL     1     -10.220   9.701  67.173  1.00  0.00    -0.243 C  
HETATM   23  C   UNL     1     -10.951  10.676  68.109  1.00  0.00    -0.269 C  
BRANCH  20  24
HETATM   24  C   UNL     1     -12.229  10.856  70.320  1.00  0.00    -0.348 C  
HETATM   25  O   UNL     1     -13.345  10.016  70.621  1.00  0.00    -0.602 OA 
HETATM   26  H   UNL     1     -14.040  10.455  71.097  1.00  0.00     0.000 HD 
ENDBRANCH  20  24
BRANCH  23  27
HETATM   27  O   UNL     1     -10.224  11.932  68.218  1.00  0.00    -0.193 OA 
BRANCH  27  28
HETATM   28  C   UNL     1     -11.075  13.085  68.210  1.00  0.00    -0.263 C  
HETATM   29  O   UNL     1     -10.476  14.153  68.928  1.00  0.00    -0.242 OA 
HETATM   30  C   UNL     1      -9.226  14.556  68.362  1.00  0.00    -0.196 C  
HETATM   31  C   UNL     1      -9.465  15.148  66.950  1.00  0.00    -0.238 C  
HETATM   32  C   UNL     1      -8.606  15.520  69.371  1.00  0.00    -0.259 C  
HETATM   33  C   UNL     1     -10.167  14.080  66.066  1.00  0.00    -0.304 C  
HETATM   34  H   UNL     1     -11.046  14.008  64.290  1.00  0.00     0.000 HD 
HETATM   35  C   UNL     1     -11.399  13.506  66.768  1.00  0.00    -0.328 C  
HETATM   36  O   UNL     1     -10.617  14.661  64.830  1.00  0.00    -0.421 OA 
HETATM   37  O   UNL     1     -11.939  12.414  66.002  1.00  0.00    -0.537 OA 
HETATM   38  H   UNL     1     -12.140  12.674  65.111  1.00  0.00     0.000 HD 
BRANCH  31  39
HETATM   39  N   UNL     1      -8.186  15.652  66.393  1.00  0.00    -0.341 NA 
HETATM   40  H   UNL     1      -7.341  15.081  66.378  1.00  0.00     0.000 HD 
BRANCH  39  41
HETATM   41  C   UNL     1      -8.209  17.044  65.857  1.00  0.00     0.031 C  
HETATM   42  C   UNL     1      -9.340  18.880  67.183  1.00  0.00    -0.328 C  
HETATM   43  C   UNL     1      -9.382  17.790  66.417  1.00  0.00    -0.264 C  
HETATM   44  C   UNL     1      -8.039  19.571  67.494  1.00  0.00    -0.290 C  
HETATM   45  H   UNL     1      -5.286  17.284  67.367  1.00  0.00     0.000 HD 
HETATM   46  O   UNL     1      -6.132  16.895  67.174  1.00  0.00    -0.141 OA 
HETATM   47  C   UNL     1      -6.829  19.154  66.619  1.00  0.00    -0.195 C  
HETATM   48  O   UNL     1      -7.757  19.364  68.875  1.00  0.00    -0.352 OA 
HETATM   49  H   UNL     1      -6.012  19.736  64.918  1.00  0.00     0.000 HD 
HETATM   50  O   UNL     1      -6.754  19.991  65.453  1.00  0.00    -0.268 OA 
HETATM   51  C   UNL     1      -6.816  17.684  66.175  1.00  0.00    -0.293 C  
HETATM   52  H   UNL     1      -6.936  19.799  69.071  1.00  0.00     0.000 HD 
BRANCH  42  53
HETATM   53  C   UNL     1     -10.569  19.500  67.811  1.00  0.00    -0.415 C  
HETATM   54  O   UNL     1     -10.422  19.685  69.215  1.00  0.00    -0.560 OA 
HETATM   55  H   UNL     1     -11.194  20.074  69.610  1.00  0.00     0.000 HD 
ENDBRANCH  42  53
ENDBRANCH  39  41
ENDBRANCH  31  39
ENDBRANCH  27  28
ENDBRANCH  23  27
ENDBRANCH  13  14
ENDBRANCH   4  13
ENDBRANCH   1   4
BRANCH   1  56
HETATM   56  C   UNL     1      -7.869   5.425  68.085  1.00  0.00    -0.092 C  
HETATM   57  O   UNL     1      -7.282   6.665  67.682  1.00  0.00    -0.085 OA 
HETATM   58  H   UNL     1      -6.754   6.519  66.905  1.00  0.00     0.000 HD 
ENDBRANCH   1  56
TORSDOF 12
ENDMDL
MODEL       68
REMARK 921   NORMALIZED FREE ENERGY PREDICTED BY IDOCK:   -5.84 KCAL/MOL
REMARK 922        TOTAL FREE ENERGY PREDICTED BY IDOCK:  -13.12 KCAL/MOL
REMARK 923 INTER-LIGAND FREE ENERGY PREDICTED BY IDOCK:  -10.58 KCAL/MOL
REMARK 924 INTRA-LIGAND FREE ENERGY PREDICTED BY IDOCK:   -2.54 KCAL/MOL
REMARK 927      BINDING AFFINITY PREDICTED BY RF-SCORE:    0.00 PKD
ROOT
HETATM    1  C   UNL     1      -8.578   4.425  67.188  1.00  0.00    -0.104 C  
HETATM    2  H   UNL     1      -8.029   2.962  66.041  1.00  0.00     0.000 HD 
HETATM    3  O   UNL     1      -8.452   3.029  66.889  1.00  0.00    -0.089 OA 
ENDROOT
BRANCH   1   4
HETATM    4  C   UNL     1      -9.311   5.219  66.065  1.00  0.00    -0.158 C  
BRANCH   4   5
HETATM    5  C   UNL     1      -9.308   4.465  64.698  1.00  0.00    -0.150 C  
HETATM    6  O   UNL     1      -9.112   5.369  63.599  1.00  0.00    -0.343 OA 
HETATM    7  H   UNL     1      -9.111   4.911  62.767  1.00  0.00     0.000 HD 
BRANCH   5   8
HETATM    8  C   UNL     1     -10.585   3.668  64.401  1.00  0.00    -0.152 C  
HETATM    9  C   UNL     1     -10.661   3.277  62.942  1.00  0.00    -0.197 C  
HETATM   10  O   UNL     1     -11.708   4.510  64.707  1.00  0.00    -0.940 OA 
HETATM   11  O   UNL     1     -10.202   2.221  62.511  1.00  0.00    -0.091 OA 
HETATM   12  H   UNL     1     -12.498   4.016  64.524  1.00  0.00     0.000 HD 
ENDBRANCH   5   8
ENDBRANCH   4   5
BRANCH   4  13
HETATM   13  O   UNL     1      -8.772   6.551  65.880  1.00  0.00    -0.149 OA 
BRANCH  13  14
HETATM   14  C   UNL     1      -7.348   6.607  65.696  1.00  0.00    -0.075 C  
HETATM   15  H   UNL     1      -6.529   9.576  68.239  1.00  0.00     0.000 HD 
HETATM   16  O   UNL     1      -6.952   7.172  68.087  1.00  0.00    -0.071 OA 
HETATM   17  C   UNL     1      -6.715   7.560  66.724  1.00  0.00    -0.062 C  
HETATM   18  O   UNL     1      -6.956   7.040  64.402  1.00  0.00    -0.051 OA 
HETATM   19  O   UNL     1      -6.478   9.872  67.338  1.00  0.00    -0.067 OA 
HETATM   20  C   UNL     1      -7.453   8.333  64.043  1.00  0.00    -0.110 C  
HETATM   21  H   UNL     1      -6.561   7.761  68.722  1.00  0.00     0.000 HD 
HETATM   22  C   UNL     1      -7.254   8.970  66.522  1.00  0.00    -0.085 C  
HETATM   23  C   UNL     1      -7.172   9.449  65.064  1.00  0.00    -0.105 C  
BRANCH  20  24
HETATM   24  C   UNL     1      -6.890   8.668  62.642  1.00  0.00    -0.094 C  
HETATM   25  O   UNL     1      -6.225   9.930  62.571  1.00  0.00    -0.102 OA 
HETATM   26  H   UNL     1      -5.879  10.136  61.710  1.00  0.00     0.000 HD 
ENDBRANCH  20  24
BRANCH  23  27
HETATM   27  O   UNL     1      -8.156  10.489  64.805  1.00  0.00    -0.154 OA 
BRANCH  27  28
HETATM   28  C   UNL     1      -9.480   9.982  64.600  1.00  0.00    -0.305 C  
HETATM   29  O   UNL     1     -10.148   9.811  65.842  1.00  0.00    -0.282 OA 
HETATM   30  C   UNL     1     -10.281  11.040  66.560  1.00  0.00    -0.234 C  
HETATM   31  C   UNL     1     -11.205  12.002  65.772  1.00  0.00    -0.334 C  
HETATM   32  C   UNL     1     -10.783  10.655  67.950  1.00  0.00    -0.292 C  
HETATM   33  C   UNL     1     -10.604  12.238  64.360  1.00  0.00    -0.327 C  
HETATM   34  H   UNL     1     -11.174  13.074  62.654  1.00  0.00     0.000 HD 
HETATM   35  C   UNL     1     -10.277  10.911  63.671  1.00  0.00    -0.332 C  
HETATM   36  O   UNL     1     -11.542  12.930  63.517  1.00  0.00    -0.479 OA 
HETATM   37  O   UNL     1      -9.580  11.155  62.436  1.00  0.00    -0.560 OA 
HETATM   38  H   UNL     1     -10.072  11.729  61.861  1.00  0.00     0.000 HD 
BRANCH  31  39
HETATM   39  N   UNL     1     -11.423  13.244  66.554  1.00  0.00    -0.323 NA 
HETATM   40  H   UNL     1     -12.356  13.559  66.820  1.00  0.00     0.000 HD 
BRANCH  39  41
HETATM   41  C   UNL     1     -10.195  14.006  66.930  1.00  0.00    -0.260 C  
HETATM   42  C   UNL     1     -10.215  16.536  66.842  1.00  0.00    -0.296 C  
HETATM   43  C   UNL     1     -10.194  15.341  66.249  1.00  0.00    -0.300 C  
HETATM   44  C   UNL     1     -10.132  16.670  68.338  1.00  0.00    -0.268 C  
HETATM   45  H   UNL     1     -11.419  13.761  69.983  1.00  0.00     0.000 HD 
HETATM   46  O   UNL     1     -11.446  13.723  69.034  1.00  0.00    -0.265 OA 
HETATM   47  C   UNL     1      -9.690  15.398  69.106  1.00  0.00    -0.252 C  
HETATM   48  O   UNL     1     -11.400  17.125  68.804  1.00  0.00    -0.145 OA 
HETATM   49  H   UNL     1      -7.989  14.597  69.710  1.00  0.00     0.000 HD 
HETATM   50  O   UNL     1      -8.259  15.377  69.239  1.00  0.00    -0.221 OA 
HETATM   51  C   UNL     1     -10.151  14.068  68.493  1.00  0.00    -0.236 C  
HETATM   52  H   UNL     1     -11.348  17.209  69.749  1.00  0.00     0.000 HD 
BRANCH  42  53
HETATM   53  C   UNL     1     -10.338  17.837  66.080  1.00  0.00    -0.304 C  
HETATM   54  O   UNL     1     -10.990  17.667  64.825  1.00  0.00    -0.917 OA 
HETATM   55  H   UNL     1     -11.067  18.484  64.346  1.00  0.00     0.000 HD 
ENDBRANCH  42  53
ENDBRANCH  39  41
ENDBRANCH  31  39
ENDBRANCH  27  28
ENDBRANCH  23  27
ENDBRANCH  13  14
ENDBRANCH   4  13
ENDBRANCH   1   4
BRANCH   1  56
HETATM   56  C   UNL     1      -9.261   4.532  68.554  1.00  0.00    -0.133 C  
HETATM   57  O   UNL     1     -10.270   5.543  68.489  1.00  0.00    -0.169 OA 
HETATM   58  H   UNL     1     -10.694   5.609  69.337  1.00  0.00     0.000 HD 
ENDBRANCH   1  56
TORSDOF 12
ENDMDL
MODEL       69
REMARK 921   NORMALIZED FREE ENERGY PREDICTED BY IDOCK:   -5.83 KCAL/MOL
REMARK 922        TOTAL FREE ENERGY PREDICTED BY IDOCK:  -13.11 KCAL/MOL
REMARK 923 INTER-LIGAND FREE ENERGY PREDICTED BY IDOCK:  -10.94 KCAL/MOL
REMARK 924 INTRA-LIGAND FREE ENERGY PREDICTED BY IDOCK:   -2.16 KCAL/MOL
REMARK 927      BINDING AFFINITY PREDICTED BY RF-SCORE:    0.00 PKD
ROOT
HETATM    1  C   UNL     1      -8.719   3.915  68.753  1.00  0.00    -0.099 C  
HETATM    2  H   UNL     1      -7.041   4.394  67.909  1.00  0.00     0.000 HD 
HETATM    3  O   UNL     1      -7.483   3.577  68.109  1.00  0.00    -0.057 OA 
ENDROOT
BRANCH   1   4
HETATM    4  C   UNL     1      -9.587   4.900  67.913  1.00  0.00    -0.145 C  
BRANCH   4   5
HETATM    5  C   UNL     1      -9.118   4.997  66.427  1.00  0.00    -0.129 C  
HETATM    6  O   UNL     1      -9.230   6.337  65.927  1.00  0.00    -0.295 OA 
HETATM    7  H   UNL     1      -8.945   6.396  65.022  1.00  0.00     0.000 HD 
BRANCH   5   8
HETATM    8  C   UNL     1      -9.879   4.088  65.453  1.00  0.00    -0.192 C  
HETATM    9  C   UNL     1      -9.281   4.149  64.065  1.00  0.00    -0.149 C  
HETATM   10  O   UNL     1     -11.235   4.557  65.387  1.00  0.00    -0.902 OA 
HETATM   11  O   UNL     1      -8.393   3.386  63.689  1.00  0.00    -0.088 OA 
HETATM   12  H   UNL     1     -11.706   3.994  64.784  1.00  0.00     0.000 HD 
ENDBRANCH   5   8
ENDBRANCH   4   5
BRANCH   4  13
HETATM   13  O   UNL     1      -9.637   6.229  68.488  1.00  0.00    -0.126 OA 
BRANCH  13  14
HETATM   14  C   UNL     1      -9.852   6.265  69.909  1.00  0.00    -0.167 C  
HETATM   15  H   UNL     1     -12.612   9.149  70.027  1.00  0.00     0.000 HD 
HETATM   16  O   UNL     1     -12.276   6.758  69.641  1.00  0.00    -0.504 OA 
HETATM   17  C   UNL     1     -11.043   7.179  70.245  1.00  0.00    -0.274 C  
HETATM   18  O   UNL     1      -8.728   6.726  70.644  1.00  0.00    -0.141 OA 
HETATM   19  O   UNL     1     -11.769   9.469  70.326  1.00  0.00    -0.223 OA 
HETATM   20  C   UNL     1      -8.287   8.037  70.276  1.00  0.00    -0.125 C  
HETATM   21  H   UNL     1     -13.011   7.323  69.848  1.00  0.00     0.000 HD 
HETATM   22  C   UNL     1     -10.745   8.603  69.795  1.00  0.00    -0.215 C  
HETATM   23  C   UNL     1      -9.380   9.120  70.277  1.00  0.00    -0.220 C  
BRANCH  20  24
HETATM   24  C   UNL     1      -7.105   8.400  71.204  1.00  0.00    -0.066 C  
HETATM   25  O   UNL     1      -7.023   9.790  71.523  1.00  0.00    -0.293 OA 
HETATM   26  H   UNL     1      -6.297  10.013  72.093  1.00  0.00     0.000 HD 
ENDBRANCH  20  24
BRANCH  23  27
HETATM   27  O   UNL     1      -8.894  10.184  69.411  1.00  0.00    -0.170 OA 
BRANCH  27  28
HETATM   28  C   UNL     1      -7.855   9.762  68.519  1.00  0.00    -0.081 C  
HETATM   29  O   UNL     1      -8.406   9.293  67.297  1.00  0.00    -0.123 OA 
HETATM   30  C   UNL     1      -9.153  10.303  66.615  1.00  0.00    -0.144 C  
HETATM   31  C   UNL     1      -8.200  11.445  66.178  1.00  0.00    -0.041 C  
HETATM   32  C   UNL     1      -9.871   9.588  65.473  1.00  0.00    -0.304 C  
HETATM   33  C   UNL     1      -7.491  12.021  67.435  1.00  0.00    -0.152 C  
HETATM   34  H   UNL     1      -5.998  13.266  67.823  1.00  0.00     0.000 HD 
HETATM   35  C   UNL     1      -6.859  10.905  68.271  1.00  0.00    -0.067 C  
HETATM   36  O   UNL     1      -6.431  12.915  67.054  1.00  0.00    -0.178 OA 
HETATM   37  O   UNL     1      -6.347  11.443  69.503  1.00  0.00    -0.087 OA 
HETATM   38  H   UNL     1      -5.731  12.149  69.351  1.00  0.00     0.000 HD 
BRANCH  31  39
HETATM   39  N   UNL     1      -8.952  12.453  65.390  1.00  0.00    -0.150 NA 
HETATM   40  H   UNL     1      -8.641  12.757  64.467  1.00  0.00     0.000 HD 
BRANCH  39  41
HETATM   41  C   UNL     1     -10.187  12.995  66.027  1.00  0.00    -0.287 C  
HETATM   42  C   UNL     1     -10.485  15.499  66.254  1.00  0.00    -0.313 C  
HETATM   43  C   UNL     1      -9.911  14.349  66.608  1.00  0.00    -0.278 C  
HETATM   44  C   UNL     1     -11.605  15.539  65.249  1.00  0.00     0.000 C  
HETATM   45  H   UNL     1     -11.417  12.780  62.974  1.00  0.00     0.000 HD 
HETATM   46  O   UNL     1     -10.731  12.797  63.632  1.00  0.00    -0.407 OA 
HETATM   47  C   UNL     1     -12.263  14.175  64.917  1.00  0.00    -0.438 C  
HETATM   48  O   UNL     1     -11.105  16.159  64.067  1.00  0.00    -1.137 OA 
HETATM   49  H   UNL     1     -13.761  13.091  65.611  1.00  0.00     0.000 HD 
HETATM   50  O   UNL     1     -13.357  13.927  65.814  1.00  0.00    -0.534 OA 
HETATM   51  C   UNL     1     -11.316  12.967  64.943  1.00  0.00    -0.303 C  
HETATM   52  H   UNL     1     -11.812  16.184  63.433  1.00  0.00     0.000 HD 
BRANCH  42  53
HETATM   53  C   UNL     1     -10.060  16.842  66.805  1.00  0.00    -0.294 C  
HETATM   54  O   UNL     1     -10.115  17.870  65.821  1.00  0.00    -0.563 OA 
HETATM   55  H   UNL     1      -9.847  18.714  66.167  1.00  0.00     0.000 HD 
ENDBRANCH  42  53
ENDBRANCH  39  41
ENDBRANCH  31  39
ENDBRANCH  27  28
ENDBRANCH  23  27
ENDBRANCH  13  14
ENDBRANCH   4  13
ENDBRANCH   1   4
BRANCH   1  56
HETATM   56  C   UNL     1      -9.431   2.599  69.075  1.00  0.00    -0.088 C  
HETATM   57  O   UNL     1      -9.690   1.901  67.854  1.00  0.00    -0.399 OA 
HETATM   58  H   UNL     1     -10.132   1.084  68.054  1.00  0.00     0.000 HD 
ENDBRANCH   1  56
TORSDOF 12
ENDMDL
MODEL       70
REMARK 921   NORMALIZED FREE ENERGY PREDICTED BY IDOCK:   -5.82 KCAL/MOL
REMARK 922        TOTAL FREE ENERGY PREDICTED BY IDOCK:  -13.10 KCAL/MOL
REMARK 923 INTER-LIGAND FREE ENERGY PREDICTED BY IDOCK:  -10.03 KCAL/MOL
REMARK 924 INTRA-LIGAND FREE ENERGY PREDICTED BY IDOCK:   -3.07 KCAL/MOL
REMARK 927      BINDING AFFINITY PREDICTED BY RF-SCORE:    0.00 PKD
ROOT
HETATM    1  C   UNL     1      -7.919  15.802  67.064  1.00  0.00    -0.237 C  
HETATM    2  H   UNL     1      -7.377  17.200  65.835  1.00  0.00     0.000 HD 
HETATM    3  O   UNL     1      -6.949  16.449  66.230  1.00  0.00    -0.101 OA 
ENDROOT
BRANCH   1   4
HETATM    4  C   UNL     1      -9.227  15.440  66.299  1.00  0.00    -0.319 C  
BRANCH   4   5
HETATM    5  C   UNL     1     -10.363  16.487  66.522  1.00  0.00    -0.305 C  
HETATM    6  O   UNL     1     -10.521  17.343  65.381  1.00  0.00    -0.648 OA 
HETATM    7  H   UNL     1     -11.212  17.981  65.516  1.00  0.00     0.000 HD 
BRANCH   5   8
HETATM    8  C   UNL     1     -10.169  17.397  67.743  1.00  0.00    -0.345 C  
HETATM    9  C   UNL     1     -10.783  16.788  68.984  1.00  0.00    -0.331 C  
HETATM   10  O   UNL     1     -10.831  18.642  67.469  1.00  0.00    -0.435 OA 
HETATM   11  O   UNL     1     -10.155  16.055  69.745  1.00  0.00    -0.266 OA 
HETATM   12  H   UNL     1     -10.711  19.205  68.225  1.00  0.00     0.000 HD 
ENDBRANCH   5   8
ENDBRANCH   4   5
BRANCH   4  13
HETATM   13  O   UNL     1      -9.721  14.119  66.631  1.00  0.00    -0.268 OA 
BRANCH  13  14
HETATM   14  C   UNL     1     -11.004  13.795  66.071  1.00  0.00    -0.284 C  
HETATM   15  H   UNL     1     -12.464  11.651  69.107  1.00  0.00     0.000 HD 
HETATM   16  O   UNL     1     -12.128  13.930  68.286  1.00  0.00    -0.417 OA 
HETATM   17  C   UNL     1     -11.891  13.115  67.127  1.00  0.00    -0.369 C  
HETATM   18  O   UNL     1     -10.934  12.935  64.942  1.00  0.00    -0.284 OA 
HETATM   19  O   UNL     1     -12.205  11.091  68.384  1.00  0.00    -0.586 OA 
HETATM   20  C   UNL     1     -10.287  11.685  65.200  1.00  0.00    -0.279 C  
HETATM   21  H   UNL     1     -12.675  13.509  68.939  1.00  0.00     0.000 HD 
HETATM   22  C   UNL     1     -11.250  11.809  67.577  1.00  0.00    -0.291 C  
HETATM   23  C   UNL     1     -10.832  10.903  66.408  1.00  0.00    -0.145 C  
BRANCH  20  24
HETATM   24  C   UNL     1     -10.348  10.860  63.894  1.00  0.00    -0.329 C  
HETATM   25  O   UNL     1      -9.625   9.629  63.952  1.00  0.00    -0.430 OA 
HETATM   26  H   UNL     1      -9.663   9.122  63.149  1.00  0.00     0.000 HD 
ENDBRANCH  20  24
BRANCH  23  27
HETATM   27  O   UNL     1      -9.769   9.994  66.812  1.00  0.00    -0.174 OA 
BRANCH  27  28
HETATM   28  C   UNL     1      -8.665  10.654  67.443  1.00  0.00    -0.125 C  
HETATM   29  O   UNL     1      -8.780  10.582  68.856  1.00  0.00    -0.138 OA 
HETATM   30  C   UNL     1      -8.786   9.234  69.332  1.00  0.00    -0.148 C  
HETATM   31  C   UNL     1      -7.413   8.577  69.039  1.00  0.00    -0.089 C  
HETATM   32  C   UNL     1      -9.159   9.319  70.810  1.00  0.00    -0.306 C  
HETATM   33  C   UNL     1      -7.141   8.633  67.511  1.00  0.00    -0.080 C  
HETATM   34  H   UNL     1      -5.619   8.286  66.287  1.00  0.00     0.000 HD 
HETATM   35  C   UNL     1      -7.333  10.051  66.968  1.00  0.00    -0.091 C  
HETATM   36  O   UNL     1      -5.785   8.252  67.222  1.00  0.00    -0.037 OA 
HETATM   37  O   UNL     1      -7.231  10.049  65.533  1.00  0.00    -0.119 OA 
HETATM   38  H   UNL     1      -6.408   9.677  65.240  1.00  0.00     0.000 HD 
BRANCH  31  39
HETATM   39  N   UNL     1      -7.377   7.209  69.612  1.00  0.00    -0.083 NA 
HETATM   40  H   UNL     1      -6.499   6.723  69.796  1.00  0.00     0.000 HD 
BRANCH  39  41
HETATM   41  C   UNL     1      -8.702   6.586  69.904  1.00  0.00    -0.140 C  
HETATM   42  C   UNL     1      -9.237   4.289  68.984  1.00  0.00    -0.207 C  
HETATM   43  C   UNL     1      -9.051   5.601  68.830  1.00  0.00    -0.125 C  
HETATM   44  C   UNL     1      -9.213   3.648  70.345  1.00  0.00    -0.146 C  
HETATM   45  H   UNL     1      -7.188   5.517  72.633  1.00  0.00     0.000 HD 
HETATM   46  O   UNL     1      -7.237   5.884  71.758  1.00  0.00    -0.086 OA 
HETATM   47  C   UNL     1      -9.301   4.620  71.550  1.00  0.00    -0.148 C  
HETATM   48  O   UNL     1      -8.037   2.848  70.428  1.00  0.00    -0.042 OA 
HETATM   49  H   UNL     1     -10.728   5.434  72.646  1.00  0.00     0.000 HD 
HETATM   50  O   UNL     1     -10.675   4.838  71.907  1.00  0.00    -0.132 OA 
HETATM   51  C   UNL     1      -8.620   5.981  71.345  1.00  0.00    -0.129 C  
HETATM   52  H   UNL     1      -8.022   2.443  71.287  1.00  0.00     0.000 HD 
BRANCH  42  53
HETATM   53  C   UNL     1      -9.465   3.343  67.826  1.00  0.00    -0.176 C  
HETATM   54  O   UNL     1      -9.630   1.995  68.255  1.00  0.00    -0.232 OA 
HETATM   55  H   UNL     1      -9.773   1.401  67.527  1.00  0.00     0.000 HD 
ENDBRANCH  42  53
ENDBRANCH  39  41
ENDBRANCH  31  39
ENDBRANCH  27  28
ENDBRANCH  23  27
ENDBRANCH  13  14
ENDBRANCH   4  13
ENDBRANCH   1   4
BRANCH   1  56
HETATM   56  C   UNL     1      -7.230  14.592  67.699  1.00  0.00    -0.187 C  
HETATM   57  O   UNL     1      -7.949  14.212  68.875  1.00  0.00    -0.221 OA 
HETATM   58  H   UNL     1      -7.521  13.461  69.269  1.00  0.00     0.000 HD 
ENDBRANCH   1  56
TORSDOF 12
ENDMDL
MODEL       71
REMARK 921   NORMALIZED FREE ENERGY PREDICTED BY IDOCK:   -5.82 KCAL/MOL
REMARK 922        TOTAL FREE ENERGY PREDICTED BY IDOCK:  -13.09 KCAL/MOL
REMARK 923 INTER-LIGAND FREE ENERGY PREDICTED BY IDOCK:   -9.70 KCAL/MOL
REMARK 924 INTRA-LIGAND FREE ENERGY PREDICTED BY IDOCK:   -3.40 KCAL/MOL
REMARK 927      BINDING AFFINITY PREDICTED BY RF-SCORE:    0.00 PKD
ROOT
HETATM    1  C   UNL     1      -7.366   8.106  72.494  1.00  0.00    -0.111 C  
HETATM    2  H   UNL     1      -8.981   8.159  73.564  1.00  0.00     0.000 HD 
HETATM    3  O   UNL     1      -8.623   8.689  72.861  1.00  0.00    -0.398 OA 
ENDROOT
BRANCH   1   4
HETATM    4  C   UNL     1      -7.483   6.595  72.133  1.00  0.00    -0.094 C  
BRANCH   4   5
HETATM    5  C   UNL     1      -6.134   5.829  72.310  1.00  0.00    -0.040 C  
HETATM    6  O   UNL     1      -5.644   5.332  71.056  1.00  0.00    -0.008 OA 
HETATM    7  H   UNL     1      -4.823   4.866  71.164  1.00  0.00     0.000 HD 
BRANCH   5   8
HETATM    8  C   UNL     1      -6.193   4.637  73.274  1.00  0.00    -0.033 C  
HETATM    9  C   UNL     1      -6.460   3.345  72.534  1.00  0.00    -0.014 C  
HETATM   10  O   UNL     1      -7.274   4.869  74.191  1.00  0.00    -0.079 OA 
HETATM   11  O   UNL     1      -5.559   2.628  72.102  1.00  0.00    -0.007 OA 
HETATM   12  H   UNL     1      -7.311   4.131  74.788  1.00  0.00     0.000 HD 
ENDBRANCH   5   8
ENDBRANCH   4   5
BRANCH   4  13
HETATM   13  O   UNL     1      -7.986   6.377  70.793  1.00  0.00    -0.107 OA 
BRANCH  13  14
HETATM   14  C   UNL     1      -8.703   5.145  70.609  1.00  0.00    -0.127 C  
HETATM   15  H   UNL     1     -10.481   5.994  67.135  1.00  0.00     0.000 HD 
HETATM   16  O   UNL     1      -8.396   5.207  68.141  1.00  0.00    -0.097 OA 
HETATM   17  C   UNL     1      -9.347   5.106  69.213  1.00  0.00    -0.123 C  
HETATM   18  O   UNL     1      -9.729   4.933  71.568  1.00  0.00    -0.157 OA 
HETATM   19  O   UNL     1     -11.098   6.039  67.857  1.00  0.00    -0.301 OA 
HETATM   20  C   UNL     1     -10.719   5.966  71.602  1.00  0.00    -0.252 C  
HETATM   21  H   UNL     1      -8.794   5.183  67.278  1.00  0.00     0.000 HD 
HETATM   22  C   UNL     1     -10.353   6.240  69.075  1.00  0.00    -0.206 C  
HETATM   23  C   UNL     1     -11.351   6.313  70.242  1.00  0.00    -0.388 C  
BRANCH  20  24
HETATM   24  C   UNL     1     -11.779   5.552  72.649  1.00  0.00    -0.175 C  
HETATM   25  O   UNL     1     -13.059   6.154  72.448  1.00  0.00    -0.473 OA 
HETATM   26  H   UNL     1     -13.710   5.899  73.092  1.00  0.00     0.000 HD 
ENDBRANCH  20  24
BRANCH  23  27
HETATM   27  O   UNL     1     -11.890   7.658  70.379  1.00  0.00    -0.148 OA 
BRANCH  27  28
HETATM   28  C   UNL     1     -10.921   8.617  70.818  1.00  0.00    -0.245 C  
HETATM   29  O   UNL     1     -10.166   9.105  69.719  1.00  0.00    -0.191 OA 
HETATM   30  C   UNL     1     -10.985   9.757  68.744  1.00  0.00    -0.148 C  
HETATM   31  C   UNL     1     -11.605  11.035  69.363  1.00  0.00    -0.312 C  
HETATM   32  C   UNL     1     -10.081   9.996  67.537  1.00  0.00    -0.243 C  
HETATM   33  C   UNL     1     -12.430  10.641  70.619  1.00  0.00    -0.371 C  
HETATM   34  H   UNL     1     -13.330  11.569  72.123  1.00  0.00     0.000 HD 
HETATM   35  C   UNL     1     -11.605   9.770  71.570  1.00  0.00    -0.353 C  
HETATM   36  O   UNL     1     -12.825  11.811  71.355  1.00  0.00    -0.404 OA 
HETATM   37  O   UNL     1     -12.434   9.289  72.643  1.00  0.00    -0.217 OA 
HETATM   38  H   UNL     1     -12.857  10.001  73.108  1.00  0.00     0.000 HD 
BRANCH  31  39
HETATM   39  N   UNL     1     -12.382  11.767  68.332  1.00  0.00    -0.239 NA 
HETATM   40  H   UNL     1     -13.183  11.347  67.860  1.00  0.00     0.000 HD 
BRANCH  39  41
HETATM   41  C   UNL     1     -11.921  13.153  68.027  1.00  0.00    -0.304 C  
HETATM   42  C   UNL     1      -9.445  13.680  68.026  1.00  0.00    -0.209 C  
HETATM   43  C   UNL     1     -10.585  13.399  68.659  1.00  0.00    -0.257 C  
HETATM   44  C   UNL     1      -9.406  13.890  66.536  1.00  0.00    -0.247 C  
HETATM   45  H   UNL     1     -12.050  12.115  64.899  1.00  0.00     0.000 HD 
HETATM   46  O   UNL     1     -12.034  12.016  65.843  1.00  0.00    -0.540 OA 
HETATM   47  C   UNL     1     -10.780  14.096  65.848  1.00  0.00    -0.298 C  
HETATM   48  O   UNL     1      -8.714  12.786  65.960  1.00  0.00    -0.359 OA 
HETATM   49  H   UNL     1     -11.958  15.618  65.405  1.00  0.00     0.000 HD 
HETATM   50  O   UNL     1     -11.115  15.493  65.827  1.00  0.00    -0.304 OA 
HETATM   51  C   UNL     1     -11.948  13.316  66.470  1.00  0.00    -0.391 C  
HETATM   52  H   UNL     1      -8.690  12.919  65.019  1.00  0.00     0.000 HD 
BRANCH  42  53
HETATM   53  C   UNL     1      -8.111  13.791  68.731  1.00  0.00    -0.022 C  
HETATM   54  O   UNL     1      -7.552  12.517  69.032  1.00  0.00    -0.307 OA 
HETATM   55  H   UNL     1      -6.714  12.587  69.476  1.00  0.00     0.000 HD 
ENDBRANCH  42  53
ENDBRANCH  39  41
ENDBRANCH  31  39
ENDBRANCH  27  28
ENDBRANCH  23  27
ENDBRANCH  13  14
ENDBRANCH   4  13
ENDBRANCH   1   4
BRANCH   1  56
HETATM   56  C   UNL     1      -6.790   8.959  71.361  1.00  0.00    -0.083 C  
HETATM   57  O   UNL     1      -7.730   9.984  71.028  1.00  0.00    -0.317 OA 
HETATM   58  H   UNL     1      -7.373  10.513  70.324  1.00  0.00     0.000 HD 
ENDBRANCH   1  56
TORSDOF 12
ENDMDL
MODEL       72
REMARK 921   NORMALIZED FREE ENERGY PREDICTED BY IDOCK:   -5.81 KCAL/MOL
REMARK 922        TOTAL FREE ENERGY PREDICTED BY IDOCK:  -13.07 KCAL/MOL
REMARK 923 INTER-LIGAND FREE ENERGY PREDICTED BY IDOCK:  -10.75 KCAL/MOL
REMARK 924 INTRA-LIGAND FREE ENERGY PREDICTED BY IDOCK:   -2.32 KCAL/MOL
REMARK 927      BINDING AFFINITY PREDICTED BY RF-SCORE:    0.00 PKD
ROOT
HETATM    1  C   UNL     1      -7.874   6.558  71.009  1.00  0.00    -0.110 C  
HETATM    2  H   UNL     1      -7.769   5.452  69.420  1.00  0.00     0.000 HD 
HETATM    3  O   UNL     1      -8.332   5.478  70.185  1.00  0.00    -0.112 OA 
ENDROOT
BRANCH   1   4
HETATM    4  C   UNL     1      -7.804   7.914  70.243  1.00  0.00    -0.089 C  
BRANCH   4   5
HETATM    5  C   UNL     1      -6.557   8.764  70.640  1.00  0.00    -0.045 C  
HETATM    6  O   UNL     1      -6.807   9.546  71.818  1.00  0.00    -0.305 OA 
HETATM    7  H   UNL     1      -6.048  10.064  72.060  1.00  0.00     0.000 HD 
BRANCH   5   8
HETATM    8  C   UNL     1      -6.066   9.731  69.555  1.00  0.00    -0.044 C  
HETATM    9  C   UNL     1      -6.566  11.137  69.804  1.00  0.00    -0.138 C  
HETATM   10  O   UNL     1      -6.588   9.277  68.296  1.00  0.00    -0.058 OA 
HETATM   11  O   UNL     1      -5.937  11.959  70.467  1.00  0.00    -0.223 OA 
HETATM   12  H   UNL     1      -6.283   9.875  67.624  1.00  0.00     0.000 HD 
ENDBRANCH   5   8
ENDBRANCH   4   5
BRANCH   4  13
HETATM   13  O   UNL     1      -9.002   8.711  70.409  1.00  0.00    -0.142 OA 
BRANCH  13  14
HETATM   14  C   UNL     1     -10.198   8.126  69.868  1.00  0.00    -0.204 C  
HETATM   15  H   UNL     1      -9.751   9.245  66.061  1.00  0.00     0.000 HD 
HETATM   16  O   UNL     1      -9.085   7.570  67.714  1.00  0.00    -0.130 OA 
HETATM   17  C   UNL     1     -10.198   8.233  68.334  1.00  0.00    -0.209 C  
HETATM   18  O   UNL     1     -11.393   8.725  70.347  1.00  0.00    -0.256 OA 
HETATM   19  O   UNL     1     -10.415   9.766  66.496  1.00  0.00    -0.211 OA 
HETATM   20  C   UNL     1     -11.487  10.129  70.087  1.00  0.00    -0.296 C  
HETATM   21  H   UNL     1      -9.085   7.637  66.766  1.00  0.00     0.000 HD 
HETATM   22  C   UNL     1     -10.183   9.697  67.918  1.00  0.00    -0.198 C  
HETATM   23  C   UNL     1     -11.257  10.541  68.622  1.00  0.00    -0.270 C  
BRANCH  20  24
HETATM   24  C   UNL     1     -12.860  10.603  70.618  1.00  0.00    -0.320 C  
HETATM   25  O   UNL     1     -12.817  11.862  71.293  1.00  0.00    -0.380 OA 
HETATM   26  H   UNL     1     -13.661  12.153  71.619  1.00  0.00     0.000 HD 
ENDBRANCH  20  24
BRANCH  23  27
HETATM   27  O   UNL     1     -10.875  11.945  68.653  1.00  0.00    -0.216 OA 
BRANCH  27  28
HETATM   28  C   UNL     1     -11.973  12.838  68.430  1.00  0.00    -0.231 C  
HETATM   29  O   UNL     1     -11.938  13.913  69.357  1.00  0.00    -0.315 OA 
HETATM   30  C   UNL     1     -10.742  14.689  69.245  1.00  0.00    -0.243 C  
HETATM   31  C   UNL     1     -10.708  15.390  67.864  1.00  0.00    -0.286 C  
HETATM   32  C   UNL     1     -10.744  15.629  70.448  1.00  0.00    -0.336 C  
HETATM   33  C   UNL     1     -10.788  14.313  66.748  1.00  0.00    -0.298 C  
HETATM   34  H   UNL     1     -11.045  14.268  64.781  1.00  0.00     0.000 HD 
HETATM   35  C   UNL     1     -11.960  13.358  66.984  1.00  0.00    -0.379 C  
HETATM   36  O   UNL     1     -10.996  14.927  65.464  1.00  0.00    -0.319 OA 
HETATM   37  O   UNL     1     -11.921  12.282  66.031  1.00  0.00    -0.570 OA 
HETATM   38  H   UNL     1     -11.913  12.603  65.137  1.00  0.00     0.000 HD 
BRANCH  31  39
HETATM   39  N   UNL     1      -9.516  16.269  67.775  1.00  0.00    -0.220 NA 
HETATM   40  H   UNL     1      -8.587  15.901  67.570  1.00  0.00     0.000 HD 
BRANCH  39  41
HETATM   41  C   UNL     1      -9.757  17.724  68.004  1.00  0.00    -0.304 C  
HETATM   42  C   UNL     1      -7.816  19.237  68.601  1.00  0.00    -0.396 C  
HETATM   43  C   UNL     1      -8.697  18.282  68.905  1.00  0.00    -0.141 C  
HETATM   44  C   UNL     1      -7.868  19.961  67.284  1.00  0.00    -0.284 C  
HETATM   45  H   UNL     1      -9.357  17.931  64.736  1.00  0.00     0.000 HD 
HETATM   46  O   UNL     1      -9.305  17.518  65.590  1.00  0.00    -0.467 OA 
HETATM   47  C   UNL     1      -9.173  19.780  66.465  1.00  0.00    -0.383 C  
HETATM   48  O   UNL     1      -6.735  19.557  66.521  1.00  0.00    -0.186 OA 
HETATM   49  H   UNL     1     -10.922  20.684  66.321  1.00  0.00     0.000 HD 
HETATM   50  O   UNL     1     -10.123  20.796  66.823  1.00  0.00    -0.266 OA 
HETATM   51  C   UNL     1      -9.843  18.405  66.598  1.00  0.00    -0.353 C  
HETATM   52  H   UNL     1      -6.768  20.014  65.689  1.00  0.00     0.000 HD 
BRANCH  42  53
HETATM   53  C   UNL     1      -6.697  19.656  69.528  1.00  0.00    -0.344 C  
HETATM   54  O   UNL     1      -5.902  18.552  69.949  1.00  0.00    -0.234 OA 
HETATM   55  H   UNL     1      -5.199  18.815  70.531  1.00  0.00     0.000 HD 
ENDBRANCH  42  53
ENDBRANCH  39  41
ENDBRANCH  31  39
ENDBRANCH  27  28
ENDBRANCH  23  27
ENDBRANCH  13  14
ENDBRANCH   4  13
ENDBRANCH   1   4
BRANCH   1  56
HETATM   56  C   UNL     1      -8.782   6.601  72.240  1.00  0.00    -0.132 C  
HETATM   57  O   UNL     1      -8.202   7.472  73.214  1.00  0.00    -0.109 OA 
HETATM   58  H   UNL     1      -8.766   7.499  73.979  1.00  0.00     0.000 HD 
ENDBRANCH   1  56
TORSDOF 12
ENDMDL
MODEL       73
REMARK 921   NORMALIZED FREE ENERGY PREDICTED BY IDOCK:   -5.80 KCAL/MOL
REMARK 922        TOTAL FREE ENERGY PREDICTED BY IDOCK:  -13.06 KCAL/MOL
REMARK 923 INTER-LIGAND FREE ENERGY PREDICTED BY IDOCK:  -10.00 KCAL/MOL
REMARK 924 INTRA-LIGAND FREE ENERGY PREDICTED BY IDOCK:   -3.06 KCAL/MOL
REMARK 927      BINDING AFFINITY PREDICTED BY RF-SCORE:    0.00 PKD
ROOT
HETATM    1  C   UNL     1      -7.757   7.491  70.566  1.00  0.00    -0.094 C  
HETATM    2  H   UNL     1      -8.462   5.773  71.124  1.00  0.00     0.000 HD 
HETATM    3  O   UNL     1      -8.516   6.662  71.456  1.00  0.00    -0.120 OA 
ENDROOT
BRANCH   1   4
HETATM    4  C   UNL     1      -8.208   7.353  69.081  1.00  0.00    -0.121 C  
BRANCH   4   5
HETATM    5  C   UNL     1      -7.031   6.979  68.127  1.00  0.00    -0.080 C  
HETATM    6  O   UNL     1      -7.018   7.809  66.956  1.00  0.00    -0.073 OA 
HETATM    7  H   UNL     1      -6.301   7.582  66.375  1.00  0.00     0.000 HD 
BRANCH   5   8
HETATM    8  C   UNL     1      -7.032   5.522  67.645  1.00  0.00    -0.066 C  
HETATM    9  C   UNL     1      -8.394   5.116  67.127  1.00  0.00    -0.107 C  
HETATM   10  O   UNL     1      -6.704   4.690  68.768  1.00  0.00    -0.047 OA 
HETATM   11  O   UNL     1      -8.722   5.243  65.949  1.00  0.00    -0.128 OA 
HETATM   12  H   UNL     1      -6.704   3.788  68.470  1.00  0.00     0.000 HD 
ENDBRANCH   5   8
ENDBRANCH   4   5
BRANCH   4  13
HETATM   13  O   UNL     1      -8.867   8.544  68.585  1.00  0.00    -0.135 OA 
BRANCH  13  14
HETATM   14  C   UNL     1     -10.268   8.387  68.304  1.00  0.00    -0.205 C  
HETATM   15  H   UNL     1     -10.339  10.016  64.659  1.00  0.00     0.000 HD 
HETATM   16  O   UNL     1      -9.849   7.960  65.889  1.00  0.00    -0.434 OA 
HETATM   17  C   UNL     1     -10.565   8.762  66.842  1.00  0.00    -0.193 C  
HETATM   18  O   UNL     1     -11.109   9.175  69.135  1.00  0.00    -0.098 OA 
HETATM   19  O   UNL     1     -10.717  10.602  65.304  1.00  0.00    -0.179 OA 
HETATM   20  C   UNL     1     -10.846  10.580  69.067  1.00  0.00    -0.232 C  
HETATM   21  H   UNL     1     -10.032   8.192  64.986  1.00  0.00     0.000 HD 
HETATM   22  C   UNL     1     -10.216  10.225  66.603  1.00  0.00    -0.233 C  
HETATM   23  C   UNL     1     -10.825  11.174  67.647  1.00  0.00    -0.247 C  
BRANCH  20  24
HETATM   24  C   UNL     1     -11.877  11.284  69.979  1.00  0.00    -0.367 C  
HETATM   25  O   UNL     1     -12.610  10.393  70.821  1.00  0.00    -0.327 OA 
HETATM   26  H   UNL     1     -13.243  10.826  71.382  1.00  0.00     0.000 HD 
ENDBRANCH  20  24
BRANCH  23  27
HETATM   27  O   UNL     1     -10.056  12.406  67.737  1.00  0.00    -0.195 OA 
BRANCH  27  28
HETATM   28  C   UNL     1     -10.870  13.574  67.900  1.00  0.00    -0.247 C  
HETATM   29  O   UNL     1     -10.213  14.531  68.717  1.00  0.00    -0.235 OA 
HETATM   30  C   UNL     1      -8.972  14.965  68.155  1.00  0.00    -0.176 C  
HETATM   31  C   UNL     1      -9.241  15.729  66.834  1.00  0.00    -0.229 C  
HETATM   32  C   UNL     1      -8.286  15.783  69.247  1.00  0.00    -0.249 C  
HETATM   33  C   UNL     1     -10.006  14.795  65.857  1.00  0.00    -0.326 C  
HETATM   34  H   UNL     1     -10.949  14.961  64.120  1.00  0.00     0.000 HD 
HETATM   35  C   UNL     1     -11.231  14.174  66.532  1.00  0.00    -0.330 C  
HETATM   36  O   UNL     1     -10.481  15.533  64.717  1.00  0.00    -0.390 OA 
HETATM   37  O   UNL     1     -11.831  13.197  65.663  1.00  0.00    -0.347 OA 
HETATM   38  H   UNL     1     -12.055  13.568  64.818  1.00  0.00     0.000 HD 
BRANCH  31  39
HETATM   39  N   UNL     1      -7.967  16.262  66.293  1.00  0.00    -0.263 NA 
HETATM   40  H   UNL     1      -7.139  15.675  66.183  1.00  0.00     0.000 HD 
BRANCH  39  41
HETATM   41  C   UNL     1      -7.967  17.706  65.918  1.00  0.00    -0.042 C  
HETATM   42  C   UNL     1      -9.011  19.406  67.477  1.00  0.00    -0.358 C  
HETATM   43  C   UNL     1      -9.104  18.410  66.594  1.00  0.00    -0.301 C  
HETATM   44  C   UNL     1      -7.684  20.025  67.823  1.00  0.00    -0.292 C  
HETATM   45  H   UNL     1      -4.998  17.704  67.354  1.00  0.00     0.000 HD 
HETATM   46  O   UNL     1      -5.858  17.360  67.145  1.00  0.00    -0.122 OA 
HETATM   47  C   UNL     1      -6.510  19.683  66.869  1.00  0.00    -0.191 C  
HETATM   48  O   UNL     1      -7.369  19.656  69.163  1.00  0.00    -0.358 OA 
HETATM   49  H   UNL     1      -5.726  20.434  65.220  1.00  0.00     0.000 HD 
HETATM   50  O   UNL     1      -6.445  20.645  65.804  1.00  0.00    -0.225 OA 
HETATM   51  C   UNL     1      -6.549  18.273  66.263  1.00  0.00    -0.228 C  
HETATM   52  H   UNL     1      -6.531  20.048  69.381  1.00  0.00     0.000 HD 
BRANCH  42  53
HETATM   53  C   UNL     1     -10.205  19.978  68.209  1.00  0.00    -0.392 C  
HETATM   54  O   UNL     1     -10.391  19.381  69.488  1.00  0.00    -0.532 OA 
HETATM   55  H   UNL     1     -11.141  19.741  69.947  1.00  0.00     0.000 HD 
ENDBRANCH  42  53
ENDBRANCH  39  41
ENDBRANCH  31  39
ENDBRANCH  27  28
ENDBRANCH  23  27
ENDBRANCH  13  14
ENDBRANCH   4  13
ENDBRANCH   1   4
BRANCH   1  56
HETATM   56  C   UNL     1      -7.845   8.922  71.099  1.00  0.00    -0.140 C  
HETATM   57  O   UNL     1      -7.506   8.921  72.488  1.00  0.00    -0.349 OA 
HETATM   58  H   UNL     1      -7.561   9.810  72.820  1.00  0.00     0.000 HD 
ENDBRANCH   1  56
TORSDOF 12
ENDMDL
MODEL       74
REMARK 921   NORMALIZED FREE ENERGY PREDICTED BY IDOCK:   -5.79 KCAL/MOL
REMARK 922        TOTAL FREE ENERGY PREDICTED BY IDOCK:  -13.05 KCAL/MOL
REMARK 923 INTER-LIGAND FREE ENERGY PREDICTED BY IDOCK:   -9.83 KCAL/MOL
REMARK 924 INTRA-LIGAND FREE ENERGY PREDICTED BY IDOCK:   -3.22 KCAL/MOL
REMARK 927      BINDING AFFINITY PREDICTED BY RF-SCORE:    0.00 PKD
ROOT
HETATM    1  C   UNL     1      -9.134   6.355  73.469  1.00  0.00    -0.124 C  
HETATM    2  H   UNL     1      -9.969   4.726  74.108  1.00  0.00     0.000 HD 
HETATM    3  O   UNL     1     -10.112   5.655  74.250  1.00  0.00    -0.212 OA 
ENDROOT
BRANCH   1   4
HETATM    4  C   UNL     1      -9.157   5.946  71.966  1.00  0.00    -0.144 C  
BRANCH   4   5
HETATM    5  C   UNL     1      -7.774   5.425  71.464  1.00  0.00    -0.105 C  
HETATM    6  O   UNL     1      -6.838   5.292  72.544  1.00  0.00    -0.070 OA 
HETATM    7  H   UNL     1      -5.996   4.974  72.239  1.00  0.00     0.000 HD 
BRANCH   5   8
HETATM    8  C   UNL     1      -7.105   6.301  70.396  1.00  0.00    -0.071 C  
HETATM    9  C   UNL     1      -5.812   5.684  69.911  1.00  0.00    -0.020 C  
HETATM   10  O   UNL     1      -6.808   7.571  70.996  1.00  0.00    -0.049 OA 
HETATM   11  O   UNL     1      -5.760   4.915  68.953  1.00  0.00    -0.017 OA 
HETATM   12  H   UNL     1      -6.395   8.114  70.335  1.00  0.00     0.000 HD 
ENDBRANCH   5   8
ENDBRANCH   4   5
BRANCH   4  13
HETATM   13  O   UNL     1      -9.608   7.018  71.102  1.00  0.00    -0.166 OA 
BRANCH  13  14
HETATM   14  C   UNL     1     -10.984   6.930  70.697  1.00  0.00    -0.264 C  
HETATM   15  H   UNL     1     -10.448   6.901  66.740  1.00  0.00     0.000 HD 
HETATM   16  O   UNL     1     -10.431   5.495  68.741  1.00  0.00    -0.209 OA 
HETATM   17  C   UNL     1     -11.080   6.700  69.180  1.00  0.00    -0.275 C  
HETATM   18  O   UNL     1     -11.747   8.086  71.011  1.00  0.00    -0.286 OA 
HETATM   19  O   UNL     1     -10.774   7.743  67.036  1.00  0.00    -0.347 OA 
HETATM   20  C   UNL     1     -11.241   9.294  70.435  1.00  0.00    -0.247 C  
HETATM   21  H   UNL     1     -10.490   5.354  67.803  1.00  0.00     0.000 HD 
HETATM   22  C   UNL     1     -10.464   7.878  68.438  1.00  0.00    -0.166 C  
HETATM   23  C   UNL     1     -10.992   9.240  68.917  1.00  0.00    -0.017 C  
BRANCH  20  24
HETATM   24  C   UNL     1     -12.212  10.431  70.827  1.00  0.00    -0.359 C  
HETATM   25  O   UNL     1     -11.771  11.732  70.434  1.00  0.00    -0.481 OA 
HETATM   26  H   UNL     1     -12.368  12.430  70.675  1.00  0.00     0.000 HD 
ENDBRANCH  20  24
BRANCH  23  27
HETATM   27  O   UNL     1     -10.033  10.297  68.629  1.00  0.00    -0.160 OA 
BRANCH  27  28
HETATM   28  C   UNL     1      -9.794  10.483  67.229  1.00  0.00    -0.177 C  
HETATM   29  O   UNL     1     -10.693  11.441  66.691  1.00  0.00    -0.247 OA 
HETATM   30  C   UNL     1     -10.555  12.723  67.310  1.00  0.00    -0.233 C  
HETATM   31  C   UNL     1      -9.156  13.305  66.985  1.00  0.00    -0.232 C  
HETATM   32  C   UNL     1     -11.733  13.554  66.808  1.00  0.00    -0.430 C  
HETATM   33  C   UNL     1      -8.068  12.317  67.487  1.00  0.00    -0.170 C  
HETATM   34  H   UNL     1      -6.105  12.096  67.307  1.00  0.00     0.000 HD 
HETATM   35  C   UNL     1      -8.335  10.898  66.980  1.00  0.00    -0.132 C  
HETATM   36  O   UNL     1      -6.770  12.700  67.000  1.00  0.00    -0.084 OA 
HETATM   37  O   UNL     1      -7.409   9.976  67.583  1.00  0.00    -0.088 OA 
HETATM   38  H   UNL     1      -6.508  10.232  67.429  1.00  0.00     0.000 HD 
BRANCH  31  39
HETATM   39  N   UNL     1      -9.038  14.674  67.546  1.00  0.00    -0.184 NA 
HETATM   40  H   UNL     1      -9.111  14.855  68.547  1.00  0.00     0.000 HD 
BRANCH  39  41
HETATM   41  C   UNL     1      -8.806  15.769  66.559  1.00  0.00    -0.310 C  
HETATM   42  C   UNL     1      -9.637  18.107  67.062  1.00  0.00    -0.287 C  
HETATM   43  C   UNL     1      -9.848  16.834  66.723  1.00  0.00    -0.282 C  
HETATM   44  C   UNL     1      -8.245  18.655  67.223  1.00  0.00    -0.252 C  
HETATM   45  H   UNL     1      -5.925  16.083  68.134  1.00  0.00     0.000 HD 
HETATM   46  O   UNL     1      -6.820  15.786  68.018  1.00  0.00    -0.112 OA 
HETATM   47  C   UNL     1      -7.103  17.775  66.653  1.00  0.00    -0.222 C  
HETATM   48  O   UNL     1      -8.038  18.915  68.609  1.00  0.00    -0.337 OA 
HETATM   49  H   UNL     1      -6.155  17.579  64.932  1.00  0.00     0.000 HD 
HETATM   50  O   UNL     1      -6.855  18.119  65.281  1.00  0.00    -0.465 OA 
HETATM   51  C   UNL     1      -7.333  16.260  66.752  1.00  0.00    -0.208 C  
HETATM   52  H   UNL     1      -7.159  19.261  68.710  1.00  0.00     0.000 HD 
BRANCH  42  53
HETATM   53  C   UNL     1     -10.756  19.089  67.329  1.00  0.00    -0.470 C  
HETATM   54  O   UNL     1     -10.618  19.735  68.590  1.00  0.00    -0.517 OA 
HETATM   55  H   UNL     1     -11.321  20.352  68.758  1.00  0.00     0.000 HD 
ENDBRANCH  42  53
ENDBRANCH  39  41
ENDBRANCH  31  39
ENDBRANCH  27  28
ENDBRANCH  23  27
ENDBRANCH  13  14
ENDBRANCH   4  13
ENDBRANCH   1   4
BRANCH   1  56
HETATM   56  C   UNL     1      -9.364   7.851  73.697  1.00  0.00    -0.222 C  
HETATM   57  O   UNL     1      -8.197   8.567  73.287  1.00  0.00    -0.374 OA 
HETATM   58  H   UNL     1      -8.340   9.496  73.428  1.00  0.00     0.000 HD 
ENDBRANCH   1  56
TORSDOF 12
ENDMDL
MODEL       75
REMARK 921   NORMALIZED FREE ENERGY PREDICTED BY IDOCK:   -5.75 KCAL/MOL
REMARK 922        TOTAL FREE ENERGY PREDICTED BY IDOCK:  -12.98 KCAL/MOL
REMARK 923 INTER-LIGAND FREE ENERGY PREDICTED BY IDOCK:   -9.79 KCAL/MOL
REMARK 924 INTRA-LIGAND FREE ENERGY PREDICTED BY IDOCK:   -3.19 KCAL/MOL
REMARK 927      BINDING AFFINITY PREDICTED BY RF-SCORE:    0.00 PKD
ROOT
HETATM    1  C   UNL     1     -10.042   5.244  71.764  1.00  0.00    -0.200 C  
HETATM    2  H   UNL     1     -11.133   5.632  73.318  1.00  0.00     0.000 HD 
HETATM    3  O   UNL     1     -10.613   4.891  73.030  1.00  0.00    -0.192 OA 
ENDROOT
BRANCH   1   4
HETATM    4  C   UNL     1      -9.244   6.581  71.813  1.00  0.00    -0.149 C  
BRANCH   4   5
HETATM    5  C   UNL     1      -9.386   7.315  73.183  1.00  0.00    -0.173 C  
HETATM    6  O   UNL     1      -9.695   8.706  73.005  1.00  0.00    -0.108 OA 
HETATM    7  H   UNL     1      -9.781   9.153  73.839  1.00  0.00     0.000 HD 
BRANCH   5   8
HETATM    8  C   UNL     1      -8.146   7.242  74.084  1.00  0.00    -0.147 C  
HETATM    9  C   UNL     1      -6.966   7.947  73.452  1.00  0.00    -0.097 C  
HETATM   10  O   UNL     1      -7.811   5.856  74.255  1.00  0.00    -0.101 OA 
HETATM   11  O   UNL     1      -6.723   9.137  73.641  1.00  0.00    -0.330 OA 
HETATM   12  H   UNL     1      -7.044   5.810  74.813  1.00  0.00     0.000 HD 
ENDBRANCH   5   8
ENDBRANCH   4   5
BRANCH   4  13
HETATM   13  O   UNL     1      -9.606   7.488  70.743  1.00  0.00    -0.167 OA 
BRANCH  13  14
HETATM   14  C   UNL     1     -10.954   7.351  70.265  1.00  0.00    -0.255 C  
HETATM   15  H   UNL     1     -10.225   7.527  66.342  1.00  0.00     0.000 HD 
HETATM   16  O   UNL     1     -10.235   6.035  68.280  1.00  0.00    -0.150 OA 
HETATM   17  C   UNL     1     -10.964   7.186  68.736  1.00  0.00    -0.050 C  
HETATM   18  O   UNL     1     -11.789   8.454  70.589  1.00  0.00    -0.224 OA 
HETATM   19  O   UNL     1     -10.607   8.338  66.657  1.00  0.00    -0.268 OA 
HETATM   20  C   UNL     1     -11.317   9.710  70.091  1.00  0.00    -0.227 C  
HETATM   21  H   UNL     1     -10.240   5.933  67.335  1.00  0.00     0.000 HD 
HETATM   22  C   UNL     1     -10.373   8.425  68.078  1.00  0.00    -0.215 C  
HETATM   23  C   UNL     1     -10.991   9.737  68.587  1.00  0.00    -0.147 C  
BRANCH  20  24
HETATM   24  C   UNL     1     -12.363  10.780  70.481  1.00  0.00    -0.369 C  
HETATM   25  O   UNL     1     -11.904  12.124  70.322  1.00  0.00    -0.456 OA 
HETATM   26  H   UNL     1     -12.547  12.781  70.562  1.00  0.00     0.000 HD 
ENDBRANCH  20  24
BRANCH  23  27
HETATM   27  O   UNL     1     -10.075  10.851  68.394  1.00  0.00    -0.170 OA 
BRANCH  27  28
HETATM   28  C   UNL     1      -9.684  11.036  67.028  1.00  0.00    -0.182 C  
HETATM   29  O   UNL     1     -10.516  11.997  66.395  1.00  0.00    -0.224 OA 
HETATM   30  C   UNL     1     -10.442  13.278  67.025  1.00  0.00    -0.249 C  
HETATM   31  C   UNL     1      -9.014  13.856  66.856  1.00  0.00    -0.222 C  
HETATM   32  C   UNL     1     -11.556  14.112  66.398  1.00  0.00    -0.380 C  
HETATM   33  C   UNL     1      -7.990  12.865  67.473  1.00  0.00    -0.178 C  
HETATM   34  H   UNL     1      -6.020  12.638  67.509  1.00  0.00     0.000 HD 
HETATM   35  C   UNL     1      -8.205  11.446  66.941  1.00  0.00    -0.157 C  
HETATM   36  O   UNL     1      -6.646  13.244  67.131  1.00  0.00    -0.194 OA 
HETATM   37  O   UNL     1      -7.353  10.522  67.640  1.00  0.00    -0.086 OA 
HETATM   38  H   UNL     1      -6.440  10.775  67.587  1.00  0.00     0.000 HD 
BRANCH  31  39
HETATM   39  N   UNL     1      -8.955  15.224  67.426  1.00  0.00    -0.177 NA 
HETATM   40  H   UNL     1      -9.192  15.414  68.400  1.00  0.00     0.000 HD 
BRANCH  39  41
HETATM   41  C   UNL     1      -8.528  16.306  66.491  1.00  0.00    -0.303 C  
HETATM   42  C   UNL     1      -9.305  18.683  66.886  1.00  0.00    -0.308 C  
HETATM   43  C   UNL     1      -9.528  17.423  66.510  1.00  0.00    -0.288 C  
HETATM   44  C   UNL     1      -7.926  19.161  67.250  1.00  0.00    -0.255 C  
HETATM   45  H   UNL     1      -5.894  16.475  68.469  1.00  0.00     0.000 HD 
HETATM   46  O   UNL     1      -6.776  16.223  68.222  1.00  0.00    -0.125 OA 
HETATM   47  C   UNL     1      -6.759  18.224  66.846  1.00  0.00    -0.186 C  
HETATM   48  O   UNL     1      -7.909  19.410  68.653  1.00  0.00    -0.344 OA 
HETATM   49  H   UNL     1      -5.582  17.980  65.279  1.00  0.00     0.000 HD 
HETATM   50  O   UNL     1      -6.297  18.555  65.526  1.00  0.00    -0.243 OA 
HETATM   51  C   UNL     1      -7.076  16.722  66.899  1.00  0.00    -0.223 C  
HETATM   52  H   UNL     1      -7.038  19.712  68.883  1.00  0.00     0.000 HD 
BRANCH  42  53
HETATM   53  C   UNL     1     -10.401  19.721  66.995  1.00  0.00    -0.465 C  
HETATM   54  O   UNL     1      -9.883  21.041  67.123  1.00  0.00    -0.602 OA 
HETATM   55  H   UNL     1     -10.571  21.692  67.191  1.00  0.00     0.000 HD 
ENDBRANCH  42  53
ENDBRANCH  39  41
ENDBRANCH  31  39
ENDBRANCH  27  28
ENDBRANCH  23  27
ENDBRANCH  13  14
ENDBRANCH   4  13
ENDBRANCH   1   4
BRANCH   1  56
HETATM   56  C   UNL     1      -9.203   4.051  71.301  1.00  0.00    -0.131 C  
HETATM   57  O   UNL     1      -8.462   4.428  70.137  1.00  0.00    -0.068 OA 
HETATM   58  H   UNL     1      -7.941   3.688  69.850  1.00  0.00     0.000 HD 
ENDBRANCH   1  56
TORSDOF 12
ENDMDL
MODEL       76
REMARK 921   NORMALIZED FREE ENERGY PREDICTED BY IDOCK:   -5.74 KCAL/MOL
REMARK 922        TOTAL FREE ENERGY PREDICTED BY IDOCK:  -12.96 KCAL/MOL
REMARK 923 INTER-LIGAND FREE ENERGY PREDICTED BY IDOCK:  -10.21 KCAL/MOL
REMARK 924 INTRA-LIGAND FREE ENERGY PREDICTED BY IDOCK:   -2.75 KCAL/MOL
REMARK 927      BINDING AFFINITY PREDICTED BY RF-SCORE:    0.00 PKD
ROOT
HETATM    1  C   UNL     1     -12.300  14.453  65.323  1.00  0.00    -0.371 C  
HETATM    2  H   UNL     1     -13.004  13.248  66.668  1.00  0.00     0.000 HD 
HETATM    3  O   UNL     1     -12.715  13.155  65.767  1.00  0.00    -0.445 OA 
ENDROOT
BRANCH   1   4
HETATM    4  C   UNL     1     -11.230  15.097  66.254  1.00  0.00    -0.273 C  
BRANCH   4   5
HETATM    5  C   UNL     1     -10.579  16.371  65.631  1.00  0.00    -0.323 C  
HETATM    6  O   UNL     1      -9.226  16.124  65.220  1.00  0.00    -0.179 OA 
HETATM    7  H   UNL     1      -8.829  16.899  64.840  1.00  0.00     0.000 HD 
BRANCH   5   8
HETATM    8  C   UNL     1     -10.551  17.597  66.553  1.00  0.00    -0.207 C  
HETATM    9  C   UNL     1      -9.144  18.124  66.723  1.00  0.00    -0.282 C  
HETATM   10  O   UNL     1     -11.043  17.187  67.839  1.00  0.00    -0.288 OA 
HETATM   11  O   UNL     1      -8.662  18.982  65.986  1.00  0.00    -0.459 OA 
HETATM   12  H   UNL     1     -11.026  17.946  68.410  1.00  0.00     0.000 HD 
ENDBRANCH   5   8
ENDBRANCH   4   5
BRANCH   4  13
HETATM   13  O   UNL     1     -10.189  14.165  66.637  1.00  0.00    -0.261 OA 
BRANCH  13  14
HETATM   14  C   UNL     1      -9.778  14.249  68.011  1.00  0.00    -0.223 C  
HETATM   15  H   UNL     1      -6.271  12.363  67.708  1.00  0.00     0.000 HD 
HETATM   16  O   UNL     1      -7.383  14.518  67.393  1.00  0.00    -0.188 OA 
HETATM   17  C   UNL     1      -8.328  13.760  68.165  1.00  0.00    -0.165 C  
HETATM   18  O   UNL     1     -10.589  13.491  68.897  1.00  0.00    -0.231 OA 
HETATM   19  O   UNL     1      -6.923  11.810  68.122  1.00  0.00    -0.068 OA 
HETATM   20  C   UNL     1     -10.649  12.096  68.586  1.00  0.00    -0.223 C  
HETATM   21  H   UNL     1      -6.487  14.215  67.488  1.00  0.00     0.000 HD 
HETATM   22  C   UNL     1      -8.229  12.298  67.751  1.00  0.00    -0.161 C  
HETATM   23  C   UNL     1      -9.284  11.403  68.421  1.00  0.00    -0.183 C  
BRANCH  20  24
HETATM   24  C   UNL     1     -11.518  11.420  69.671  1.00  0.00    -0.309 C  
HETATM   25  O   UNL     1     -12.362  10.380  69.173  1.00  0.00    -0.702 OA 
HETATM   26  H   UNL     1     -12.896   9.965  69.841  1.00  0.00     0.000 HD 
ENDBRANCH  20  24
BRANCH  23  27
HETATM   27  O   UNL     1      -9.532  10.210  67.625  1.00  0.00    -0.146 OA 
BRANCH  27  28
HETATM   28  C   UNL     1      -8.562   9.176  67.832  1.00  0.00    -0.121 C  
HETATM   29  O   UNL     1      -8.303   9.004  69.217  1.00  0.00    -0.117 OA 
HETATM   30  C   UNL     1      -9.474   8.628  69.947  1.00  0.00    -0.167 C  
HETATM   31  C   UNL     1      -9.944   7.226  69.481  1.00  0.00    -0.170 C  
HETATM   32  C   UNL     1      -9.092   8.725  71.422  1.00  0.00    -0.313 C  
HETATM   33  C   UNL     1     -10.220   7.267  67.954  1.00  0.00    -0.191 C  
HETATM   34  H   UNL     1     -10.599   5.965  66.506  1.00  0.00     0.000 HD 
HETATM   35  C   UNL     1      -9.032   7.860  67.193  1.00  0.00    -0.129 C  
HETATM   36  O   UNL     1     -10.430   5.939  67.440  1.00  0.00    -0.192 OA 
HETATM   37  O   UNL     1      -9.370   8.032  65.805  1.00  0.00    -0.393 OA 
HETATM   38  H   UNL     1      -9.661   7.219  65.410  1.00  0.00     0.000 HD 
BRANCH  31  39
HETATM   39  N   UNL     1     -11.103   6.788  70.297  1.00  0.00    -0.288 NA 
HETATM   40  H   UNL     1     -11.954   7.347  70.371  1.00  0.00     0.000 HD 
BRANCH  39  41
HETATM   41  C   UNL     1     -10.952   5.482  71.003  1.00  0.00    -0.123 C  
HETATM   42  C   UNL     1      -8.688   4.803  71.911  1.00  0.00    -0.133 C  
HETATM   43  C   UNL     1      -9.534   5.007  70.900  1.00  0.00    -0.222 C  
HETATM   44  C   UNL     1      -9.129   4.941  73.343  1.00  0.00    -0.117 C  
HETATM   45  H   UNL     1     -11.872   7.223  73.650  1.00  0.00     0.000 HD 
HETATM   46  O   UNL     1     -11.558   7.099  72.762  1.00  0.00    -0.240 OA 
HETATM   47  C   UNL     1     -10.661   4.994  73.575  1.00  0.00    -0.256 C  
HETATM   48  O   UNL     1      -8.497   6.099  73.882  1.00  0.00    -0.119 OA 
HETATM   49  H   UNL     1     -12.115   3.699  73.905  1.00  0.00     0.000 HD 
HETATM   50  O   UNL     1     -11.176   3.666  73.763  1.00  0.00    -0.221 OA 
HETATM   51  C   UNL     1     -11.468   5.687  72.467  1.00  0.00    -0.279 C  
HETATM   52  H   UNL     1      -8.776   6.186  74.786  1.00  0.00     0.000 HD 
BRANCH  42  53
HETATM   53  C   UNL     1      -7.232   4.441  71.713  1.00  0.00    -0.063 C  
HETATM   54  O   UNL     1      -7.072   3.157  71.119  1.00  0.00    -0.032 OA 
HETATM   55  H   UNL     1      -6.158   2.929  70.995  1.00  0.00     0.000 HD 
ENDBRANCH  42  53
ENDBRANCH  39  41
ENDBRANCH  31  39
ENDBRANCH  27  28
ENDBRANCH  23  27
ENDBRANCH  13  14
ENDBRANCH   4  13
ENDBRANCH   1   4
BRANCH   1  56
HETATM   56  C   UNL     1     -11.835  14.304  63.872  1.00  0.00    -0.121 C  
HETATM   57  O   UNL     1     -10.577  13.624  63.857  1.00  0.00    -0.517 OA 
HETATM   58  H   UNL     1     -10.287  13.531  62.957  1.00  0.00     0.000 HD 
ENDBRANCH   1  56
TORSDOF 12
ENDMDL
MODEL       77
REMARK 921   NORMALIZED FREE ENERGY PREDICTED BY IDOCK:   -5.74 KCAL/MOL
REMARK 922        TOTAL FREE ENERGY PREDICTED BY IDOCK:  -12.96 KCAL/MOL
REMARK 923 INTER-LIGAND FREE ENERGY PREDICTED BY IDOCK:   -9.98 KCAL/MOL
REMARK 924 INTRA-LIGAND FREE ENERGY PREDICTED BY IDOCK:   -2.99 KCAL/MOL
REMARK 927      BINDING AFFINITY PREDICTED BY RF-SCORE:    0.00 PKD
ROOT
HETATM    1  C   UNL     1      -9.567   6.624  73.772  1.00  0.00    -0.203 C  
HETATM    2  H   UNL     1     -11.485   6.886  73.880  1.00  0.00     0.000 HD 
HETATM    3  O   UNL     1     -10.722   7.437  74.015  1.00  0.00    -0.254 OA 
ENDROOT
BRANCH   1   4
HETATM    4  C   UNL     1      -9.597   5.936  72.375  1.00  0.00    -0.155 C  
BRANCH   4   5
HETATM    5  C   UNL     1      -8.313   5.093  72.093  1.00  0.00    -0.125 C  
HETATM    6  O   UNL     1      -7.427   5.771  71.188  1.00  0.00    -0.086 OA 
HETATM    7  H   UNL     1      -6.646   5.258  71.017  1.00  0.00     0.000 HD 
BRANCH   5   8
HETATM    8  C   UNL     1      -8.573   3.699  71.507  1.00  0.00    -0.084 C  
HETATM    9  C   UNL     1      -7.774   3.477  70.243  1.00  0.00    -0.047 C  
HETATM   10  O   UNL     1      -9.971   3.615  71.185  1.00  0.00    -0.167 OA 
HETATM   11  O   UNL     1      -6.646   2.988  70.247  1.00  0.00    -0.031 OA 
HETATM   12  H   UNL     1     -10.132   2.752  70.823  1.00  0.00     0.000 HD 
ENDBRANCH   5   8
ENDBRANCH   4   5
BRANCH   4  13
HETATM   13  O   UNL     1      -9.800   6.877  71.293  1.00  0.00    -0.176 OA 
BRANCH  13  14
HETATM   14  C   UNL     1     -11.135   6.908  70.762  1.00  0.00    -0.275 C  
HETATM   15  H   UNL     1     -10.243   6.722  66.874  1.00  0.00     0.000 HD 
HETATM   16  O   UNL     1     -10.547   5.376  68.892  1.00  0.00    -0.202 OA 
HETATM   17  C   UNL     1     -11.113   6.647  69.247  1.00  0.00    -0.289 C  
HETATM   18  O   UNL     1     -11.808   8.139  70.982  1.00  0.00    -0.290 OA 
HETATM   19  O   UNL     1     -10.513   7.599  67.123  1.00  0.00    -0.287 OA 
HETATM   20  C   UNL     1     -11.137   9.278  70.434  1.00  0.00    -0.255 C  
HETATM   21  H   UNL     1     -10.532   5.215  67.956  1.00  0.00     0.000 HD 
HETATM   22  C   UNL     1     -10.321   7.742  68.545  1.00  0.00    -0.197 C  
HETATM   23  C   UNL     1     -10.756   9.160  68.948  1.00  0.00    -0.141 C  
BRANCH  20  24
HETATM   24  C   UNL     1     -12.025  10.512  70.713  1.00  0.00    -0.370 C  
HETATM   25  O   UNL     1     -11.448  11.749  70.292  1.00  0.00    -0.508 OA 
HETATM   26  H   UNL     1     -11.994  12.508  70.464  1.00  0.00     0.000 HD 
ENDBRANCH  20  24
BRANCH  23  27
HETATM   27  O   UNL     1      -9.677  10.113  68.732  1.00  0.00    -0.159 OA 
BRANCH  27  28
HETATM   28  C   UNL     1      -9.104  10.038  67.421  1.00  0.00    -0.134 C  
HETATM   29  O   UNL     1     -10.025  10.505  66.446  1.00  0.00    -0.202 OA 
HETATM   30  C   UNL     1     -10.398  11.868  66.659  1.00  0.00    -0.211 C  
HETATM   31  C   UNL     1      -9.159  12.779  66.463  1.00  0.00    -0.147 C  
HETATM   32  C   UNL     1     -11.555  12.136  65.699  1.00  0.00    -0.409 C  
HETATM   33  C   UNL     1      -8.046  12.338  67.453  1.00  0.00    -0.175 C  
HETATM   34  H   UNL     1      -6.124  12.726  67.752  1.00  0.00     0.000 HD 
HETATM   35  C   UNL     1      -7.790  10.832  67.360  1.00  0.00    -0.111 C  
HETATM   36  O   UNL     1      -6.804  12.996  67.146  1.00  0.00    -0.094 OA 
HETATM   37  O   UNL     1      -6.872  10.423  68.389  1.00  0.00    -0.063 OA 
HETATM   38  H   UNL     1      -6.059  10.913  68.352  1.00  0.00     0.000 HD 
BRANCH  31  39
HETATM   39  N   UNL     1      -9.556  14.203  66.592  1.00  0.00    -0.279 NA 
HETATM   40  H   UNL     1      -9.805  14.769  65.781  1.00  0.00     0.000 HD 
BRANCH  39  41
HETATM   41  C   UNL     1      -9.570  14.757  67.977  1.00  0.00    -0.209 C  
HETATM   42  C   UNL     1      -8.881  17.161  68.373  1.00  0.00    -0.255 C  
HETATM   43  C   UNL     1      -8.595  15.890  68.084  1.00  0.00    -0.169 C  
HETATM   44  C   UNL     1     -10.276  17.587  68.740  1.00  0.00    -0.373 C  
HETATM   45  H   UNL     1     -12.728  15.416  67.290  1.00  0.00     0.000 HD 
HETATM   46  O   UNL     1     -11.828  15.186  67.089  1.00  0.00    -0.233 OA 
HETATM   47  C   UNL     1     -11.261  16.441  69.090  1.00  0.00    -0.275 C  
HETATM   48  O   UNL     1     -10.784  18.380  67.671  1.00  0.00    -0.423 OA 
HETATM   49  H   UNL     1     -11.806  15.452  70.710  1.00  0.00     0.000 HD 
HETATM   50  O   UNL     1     -11.203  16.154  70.496  1.00  0.00    -0.363 OA 
HETATM   51  C   UNL     1     -11.052  15.136  68.308  1.00  0.00    -0.291 C  
HETATM   52  H   UNL     1     -11.665  18.648  67.903  1.00  0.00     0.000 HD 
BRANCH  42  53
HETATM   53  C   UNL     1      -7.852  18.270  68.338  1.00  0.00    -0.305 C  
HETATM   54  O   UNL     1      -8.341  19.477  68.913  1.00  0.00    -0.360 OA 
HETATM   55  H   UNL     1      -7.695  20.174  68.891  1.00  0.00     0.000 HD 
ENDBRANCH  42  53
ENDBRANCH  39  41
ENDBRANCH  31  39
ENDBRANCH  27  28
ENDBRANCH  23  27
ENDBRANCH  13  14
ENDBRANCH   4  13
ENDBRANCH   1   4
BRANCH   1  56
HETATM   56  C   UNL     1      -8.339   7.511  73.989  1.00  0.00    -0.196 C  
HETATM   57  O   UNL     1      -8.453   8.669  73.158  1.00  0.00    -0.398 OA 
HETATM   58  H   UNL     1      -7.690   9.221  73.292  1.00  0.00     0.000 HD 
ENDBRANCH   1  56
TORSDOF 12
ENDMDL
MODEL       78
REMARK 921   NORMALIZED FREE ENERGY PREDICTED BY IDOCK:   -5.73 KCAL/MOL
REMARK 922        TOTAL FREE ENERGY PREDICTED BY IDOCK:  -12.94 KCAL/MOL
REMARK 923 INTER-LIGAND FREE ENERGY PREDICTED BY IDOCK:   -9.89 KCAL/MOL
REMARK 924 INTRA-LIGAND FREE ENERGY PREDICTED BY IDOCK:   -3.05 KCAL/MOL
REMARK 927      BINDING AFFINITY PREDICTED BY RF-SCORE:    0.00 PKD
ROOT
HETATM    1  C   UNL     1      -6.962   6.924  67.466  1.00  0.00    -0.083 C  
HETATM    2  H   UNL     1      -6.090   5.993  68.926  1.00  0.00     0.000 HD 
HETATM    3  O   UNL     1      -5.994   6.847  68.521  1.00  0.00    -0.023 OA 
ENDROOT
BRANCH   1   4
HETATM    4  C   UNL     1      -8.411   6.630  67.955  1.00  0.00    -0.116 C  
BRANCH   4   5
HETATM    5  C   UNL     1      -9.214   5.741  66.953  1.00  0.00    -0.122 C  
HETATM    6  O   UNL     1     -10.066   6.534  66.113  1.00  0.00    -0.415 OA 
HETATM    7  H   UNL     1     -10.555   5.994  65.503  1.00  0.00     0.000 HD 
BRANCH   5   8
HETATM    8  C   UNL     1     -10.099   4.672  67.608  1.00  0.00    -0.052 C  
HETATM    9  C   UNL     1      -9.729   4.468  69.061  1.00  0.00    -0.165 C  
HETATM   10  O   UNL     1      -9.885   3.438  66.905  1.00  0.00    -0.390 OA 
HETATM   11  O   UNL     1     -10.253   5.102  69.975  1.00  0.00    -0.251 OA 
HETATM   12  H   UNL     1     -10.433   2.776  67.310  1.00  0.00     0.000 HD 
ENDBRANCH   5   8
ENDBRANCH   4   5
BRANCH   4  13
HETATM   13  O   UNL     1      -9.162   7.836  68.235  1.00  0.00    -0.140 OA 
BRANCH  13  14
HETATM   14  C   UNL     1      -9.134   8.261  69.608  1.00  0.00    -0.154 C  
HETATM   15  H   UNL     1     -12.829   9.756  69.854  1.00  0.00     0.000 HD 
HETATM   16  O   UNL     1     -11.529   7.686  69.951  1.00  0.00    -0.468 OA 
HETATM   17  C   UNL     1     -10.533   8.716  70.055  1.00  0.00    -0.223 C  
HETATM   18  O   UNL     1      -8.229   9.328  69.855  1.00  0.00    -0.115 OA 
HETATM   19  O   UNL     1     -12.180  10.449  69.811  1.00  0.00    -0.211 OA 
HETATM   20  C   UNL     1      -8.487  10.504  69.081  1.00  0.00    -0.147 C  
HETATM   21  H   UNL     1     -12.394   7.968  70.227  1.00  0.00     0.000 HD 
HETATM   22  C   UNL     1     -10.981   9.908  69.220  1.00  0.00    -0.211 C  
HETATM   23  C   UNL     1      -9.932  11.029  69.150  1.00  0.00    -0.121 C  
BRANCH  20  24
HETATM   24  C   UNL     1      -7.456  11.573  69.513  1.00  0.00     0.208 C  
HETATM   25  O   UNL     1      -6.436  11.077  70.382  1.00  0.00    -0.292 OA 
HETATM   26  H   UNL     1      -5.803  11.733  70.647  1.00  0.00     0.000 HD 
ENDBRANCH  20  24
BRANCH  23  27
HETATM   27  O   UNL     1     -10.122  11.842  67.958  1.00  0.00    -0.184 OA 
BRANCH  27  28
HETATM   28  C   UNL     1     -11.002  12.955  68.162  1.00  0.00    -0.248 C  
HETATM   29  O   UNL     1     -10.353  13.976  68.905  1.00  0.00    -0.231 OA 
HETATM   30  C   UNL     1      -9.193  14.480  68.238  1.00  0.00    -0.201 C  
HETATM   31  C   UNL     1      -9.619  15.190  66.928  1.00  0.00    -0.239 C  
HETATM   32  C   UNL     1      -8.485  15.371  69.255  1.00  0.00    -0.258 C  
HETATM   33  C   UNL     1     -10.389  14.181  66.033  1.00  0.00    -0.309 C  
HETATM   34  H   UNL     1     -11.474  14.237  64.373  1.00  0.00     0.000 HD 
HETATM   35  C   UNL     1     -11.511  13.494  66.816  1.00  0.00    -0.346 C  
HETATM   36  O   UNL     1     -11.003  14.855  64.920  1.00  0.00    -0.381 OA 
HETATM   37  O   UNL     1     -12.106  12.456  66.016  1.00  0.00    -0.600 OA 
HETATM   38  H   UNL     1     -12.421  12.789  65.185  1.00  0.00     0.000 HD 
BRANCH  31  39
HETATM   39  N   UNL     1      -8.432  15.796  66.276  1.00  0.00    -0.349 NA 
HETATM   40  H   UNL     1      -7.571  15.270  66.125  1.00  0.00     0.000 HD 
BRANCH  39  41
HETATM   41  C   UNL     1      -8.571  17.221  65.855  1.00  0.00     0.046 C  
HETATM   42  C   UNL     1      -9.596  18.903  67.446  1.00  0.00    -0.348 C  
HETATM   43  C   UNL     1      -9.693  17.869  66.609  1.00  0.00    -0.319 C  
HETATM   44  C   UNL     1      -8.293  19.628  67.650  1.00  0.00    -0.308 C  
HETATM   45  H   UNL     1      -5.495  17.484  67.015  1.00  0.00     0.000 HD 
HETATM   46  O   UNL     1      -6.343  17.072  66.897  1.00  0.00    -0.170 OA 
HETATM   47  C   UNL     1      -7.186  19.331  66.605  1.00  0.00    -0.216 C  
HETATM   48  O   UNL     1      -7.834  19.335  68.967  1.00  0.00    -0.342 OA 
HETATM   49  H   UNL     1      -6.608  20.071  64.868  1.00  0.00     0.000 HD 
HETATM   50  O   UNL     1      -7.286  20.253  65.507  1.00  0.00    -0.294 OA 
HETATM   51  C   UNL     1      -7.175  17.899  66.051  1.00  0.00    -0.290 C  
HETATM   52  H   UNL     1      -7.011  19.792  69.095  1.00  0.00     0.000 HD 
BRANCH  42  53
HETATM   53  C   UNL     1     -10.759  19.419  68.264  1.00  0.00    -0.044 C  
HETATM   54  O   UNL     1     -10.332  20.089  69.446  1.00  0.00    -0.612 OA 
HETATM   55  H   UNL     1     -11.063  20.413  69.960  1.00  0.00     0.000 HD 
ENDBRANCH  42  53
ENDBRANCH  39  41
ENDBRANCH  31  39
ENDBRANCH  27  28
ENDBRANCH  23  27
ENDBRANCH  13  14
ENDBRANCH   4  13
ENDBRANCH   1   4
BRANCH   1  56
HETATM   56  C   UNL     1      -6.806   8.300  66.814  1.00  0.00    -0.069 C  
HETATM   57  O   UNL     1      -7.733   8.406  65.730  1.00  0.00    -0.089 OA 
HETATM   58  H   UNL     1      -7.637   9.260  65.325  1.00  0.00     0.000 HD 
ENDBRANCH   1  56
TORSDOF 12
ENDMDL
MODEL       79
REMARK 921   NORMALIZED FREE ENERGY PREDICTED BY IDOCK:   -5.72 KCAL/MOL
REMARK 922        TOTAL FREE ENERGY PREDICTED BY IDOCK:  -12.93 KCAL/MOL
REMARK 923 INTER-LIGAND FREE ENERGY PREDICTED BY IDOCK:   -9.59 KCAL/MOL
REMARK 924 INTRA-LIGAND FREE ENERGY PREDICTED BY IDOCK:   -3.34 KCAL/MOL
REMARK 927      BINDING AFFINITY PREDICTED BY RF-SCORE:    0.00 PKD
ROOT
HETATM    1  C   UNL     1     -12.312   8.093  72.173  1.00  0.00    -0.338 C  
HETATM    2  H   UNL     1     -13.745   6.789  72.121  1.00  0.00     0.000 HD 
HETATM    3  O   UNL     1     -13.540   7.582  71.639  1.00  0.00    -0.365 OA 
ENDROOT
BRANCH   1   4
HETATM    4  C   UNL     1     -11.162   7.042  72.155  1.00  0.00    -0.256 C  
BRANCH   4   5
HETATM    5  C   UNL     1     -10.462   6.893  73.542  1.00  0.00    -0.352 C  
HETATM    6  O   UNL     1      -9.107   7.365  73.502  1.00  0.00    -0.170 OA 
HETATM    7  H   UNL     1      -8.681   7.274  74.346  1.00  0.00     0.000 HD 
BRANCH   5   8
HETATM    8  C   UNL     1     -10.423   5.461  74.092  1.00  0.00    -0.278 C  
HETATM    9  C   UNL     1      -9.160   4.745  73.668  1.00  0.00    -0.109 C  
HETATM   10  O   UNL     1     -11.551   4.754  73.553  1.00  0.00    -0.398 OA 
HETATM   11  O   UNL     1      -8.129   4.762  74.338  1.00  0.00    -0.095 OA 
HETATM   12  H   UNL     1     -11.527   3.868  73.894  1.00  0.00     0.000 HD 
ENDBRANCH   5   8
ENDBRANCH   4   5
BRANCH   4  13
HETATM   13  O   UNL     1     -10.165   7.322  71.142  1.00  0.00    -0.192 OA 
BRANCH  13  14
HETATM   14  C   UNL     1      -9.760   6.185  70.362  1.00  0.00    -0.169 C  
HETATM   15  H   UNL     1      -6.015   7.311  69.553  1.00  0.00     0.000 HD 
HETATM   16  O   UNL     1      -7.436   6.266  71.247  1.00  0.00    -0.089 OA 
HETATM   17  C   UNL     1      -8.252   6.252  70.065  1.00  0.00    -0.125 C  
HETATM   18  O   UNL     1     -10.443   6.071  69.122  1.00  0.00    -0.202 OA 
HETATM   19  O   UNL     1      -6.575   7.410  68.792  1.00  0.00    -0.045 OA 
HETATM   20  C   UNL     1     -10.298   7.210  68.268  1.00  0.00    -0.195 C  
HETATM   21  H   UNL     1      -6.505   6.308  71.063  1.00  0.00     0.000 HD 
HETATM   22  C   UNL     1      -7.941   7.497  69.246  1.00  0.00    -0.121 C  
HETATM   23  C   UNL     1      -8.847   7.658  68.015  1.00  0.00    -0.127 C  
BRANCH  20  24
HETATM   24  C   UNL     1     -11.049   6.898  66.954  1.00  0.00    -0.149 C  
HETATM   25  O   UNL     1     -10.370   5.973  66.103  1.00  0.00    -0.419 OA 
HETATM   26  H   UNL     1     -10.832   5.781  65.295  1.00  0.00     0.000 HD 
ENDBRANCH  20  24
BRANCH  23  27
HETATM   27  O   UNL     1      -8.921   9.052  67.606  1.00  0.00    -0.124 OA 
BRANCH  27  28
HETATM   28  C   UNL     1      -8.248   9.319  66.370  1.00  0.00    -0.111 C  
HETATM   29  O   UNL     1      -9.166   9.785  65.391  1.00  0.00    -0.191 OA 
HETATM   30  C   UNL     1      -9.809  11.000  65.784  1.00  0.00    -0.235 C  
HETATM   31  C   UNL     1      -8.758  12.135  65.876  1.00  0.00     0.275 C  
HETATM   32  C   UNL     1     -10.921  11.229  64.763  1.00  0.00    -0.262 C  
HETATM   33  C   UNL     1      -7.658  11.725  66.893  1.00  0.00    -0.119 C  
HETATM   34  H   UNL     1      -5.875  12.386  67.457  1.00  0.00     0.000 HD 
HETATM   35  C   UNL     1      -7.111  10.330  66.582  1.00  0.00    -0.108 C  
HETATM   36  O   UNL     1      -6.547  12.637  66.835  1.00  0.00    -0.095 OA 
HETATM   37  O   UNL     1      -6.211   9.910  67.623  1.00  0.00    -0.057 OA 
HETATM   38  H   UNL     1      -5.507  10.534  67.754  1.00  0.00     0.000 HD 
BRANCH  31  39
HETATM   39  N   UNL     1      -9.431  13.419  66.194  1.00  0.00    -0.458 NA 
HETATM   40  H   UNL     1      -9.711  14.076  65.465  1.00  0.00     0.000 HD 
BRANCH  39  41
HETATM   41  C   UNL     1      -9.673  13.691  67.641  1.00  0.00    -0.228 C  
HETATM   42  C   UNL     1      -9.179  15.988  68.584  1.00  0.00    -0.216 C  
HETATM   43  C   UNL     1      -8.787  14.806  68.107  1.00  0.00    -0.170 C  
HETATM   44  C   UNL     1     -10.634  16.299  68.810  1.00  0.00    -0.298 C  
HETATM   45  H   UNL     1     -12.731  14.392  66.621  1.00  0.00     0.000 HD 
HETATM   46  O   UNL     1     -11.801  14.228  66.518  1.00  0.00    -0.385 OA 
HETATM   47  C   UNL     1     -11.595  15.083  68.782  1.00  0.00    -0.335 C  
HETATM   48  O   UNL     1     -11.025  17.272  67.846  1.00  0.00    -0.336 OA 
HETATM   49  H   UNL     1     -12.314  13.783  70.084  1.00  0.00     0.000 HD 
HETATM   50  O   UNL     1     -11.724  14.528  70.102  1.00  0.00    -0.270 OA 
HETATM   51  C   UNL     1     -11.206  13.961  67.809  1.00  0.00    -0.293 C  
HETATM   52  H   UNL     1     -11.944  17.468  67.988  1.00  0.00     0.000 HD 
BRANCH  42  53
HETATM   53  C   UNL     1      -8.218  17.108  68.916  1.00  0.00    -0.192 C  
HETATM   54  O   UNL     1      -8.304  18.186  67.990  1.00  0.00    -0.248 OA 
HETATM   55  H   UNL     1      -7.700  18.889  68.199  1.00  0.00     0.000 HD 
ENDBRANCH  42  53
ENDBRANCH  39  41
ENDBRANCH  31  39
ENDBRANCH  27  28
ENDBRANCH  23  27
ENDBRANCH  13  14
ENDBRANCH   4  13
ENDBRANCH   1   4
BRANCH   1  56
HETATM   56  C   UNL     1     -11.982   9.370  71.397  1.00  0.00    -0.371 C  
HETATM   57  O   UNL     1     -13.140   9.782  70.667  1.00  0.00    -0.571 OA 
HETATM   58  H   UNL     1     -12.936  10.575  70.185  1.00  0.00     0.000 HD 
ENDBRANCH   1  56
TORSDOF 12
ENDMDL
MODEL       80
REMARK 921   NORMALIZED FREE ENERGY PREDICTED BY IDOCK:   -5.72 KCAL/MOL
REMARK 922        TOTAL FREE ENERGY PREDICTED BY IDOCK:  -12.93 KCAL/MOL
REMARK 923 INTER-LIGAND FREE ENERGY PREDICTED BY IDOCK:   -9.31 KCAL/MOL
REMARK 924 INTRA-LIGAND FREE ENERGY PREDICTED BY IDOCK:   -3.62 KCAL/MOL
REMARK 927      BINDING AFFINITY PREDICTED BY RF-SCORE:    0.00 PKD
ROOT
HETATM    1  C   UNL     1      -9.073   5.133  65.895  1.00  0.00    -0.153 C  
HETATM    2  H   UNL     1     -10.889   5.250  65.226  1.00  0.00     0.000 HD 
HETATM    3  O   UNL     1     -10.334   4.548  65.545  1.00  0.00    -0.254 OA 
ENDROOT
BRANCH   1   4
HETATM    4  C   UNL     1      -9.215   6.315  66.900  1.00  0.00    -0.130 C  
BRANCH   4   5
HETATM    5  C   UNL     1     -10.626   6.372  67.565  1.00  0.00    -0.283 C  
HETATM    6  O   UNL     1     -11.177   7.697  67.519  1.00  0.00    -0.491 OA 
HETATM    7  H   UNL     1     -12.036   7.731  67.924  1.00  0.00     0.000 HD 
BRANCH   5   8
HETATM    8  C   UNL     1     -10.664   5.920  69.031  1.00  0.00    -0.309 C  
HETATM    9  C   UNL     1     -10.794   7.101  69.966  1.00  0.00    -0.254 C  
HETATM   10  O   UNL     1      -9.427   5.247  69.313  1.00  0.00    -0.119 OA 
HETATM   11  O   UNL     1     -11.880   7.541  70.336  1.00  0.00    -0.176 OA 
HETATM   12  H   UNL     1      -9.451   4.967  70.221  1.00  0.00     0.000 HD 
ENDBRANCH   5   8
ENDBRANCH   4   5
BRANCH   4  13
HETATM   13  O   UNL     1      -8.916   7.599  66.299  1.00  0.00    -0.158 OA 
BRANCH  13  14
HETATM   14  C   UNL     1      -7.899   7.569  65.284  1.00  0.00    -0.120 C  
HETATM   15  H   UNL     1      -5.470  10.362  66.783  1.00  0.00     0.000 HD 
HETATM   16  O   UNL     1      -6.086   8.001  66.933  1.00  0.00    -0.050 OA 
HETATM   17  C   UNL     1      -6.698   8.432  65.707  1.00  0.00    -0.053 C  
HETATM   18  O   UNL     1      -8.343   8.032  64.017  1.00  0.00    -0.098 OA 
HETATM   19  O   UNL     1      -5.955  10.694  66.036  1.00  0.00    -0.101 OA 
HETATM   20  C   UNL     1      -8.851   9.369  64.029  1.00  0.00    -0.177 C  
HETATM   21  H   UNL     1      -5.345   8.534  67.195  1.00  0.00     0.000 HD 
HETATM   22  C   UNL     1      -7.135   9.882  65.868  1.00  0.00    -0.107 C  
HETATM   23  C   UNL     1      -7.919  10.419  64.661  1.00  0.00    -0.092 C  
BRANCH  20  24
HETATM   24  C   UNL     1      -9.233   9.728  62.574  1.00  0.00    -0.256 C  
HETATM   25  O   UNL     1      -9.765  11.045  62.422  1.00  0.00    -0.566 OA 
HETATM   26  H   UNL     1      -9.999  11.265  61.528  1.00  0.00     0.000 HD 
ENDBRANCH  20  24
BRANCH  23  27
HETATM   27  O   UNL     1      -8.772  11.532  65.050  1.00  0.00     0.121 OA 
BRANCH  27  28
HETATM   28  C   UNL     1      -9.746  11.183  66.041  1.00  0.00    -0.226 C  
HETATM   29  O   UNL     1      -9.229  11.392  67.346  1.00  0.00    -0.161 OA 
HETATM   30  C   UNL     1      -8.872  12.757  67.578  1.00  0.00    -0.187 C  
HETATM   31  C   UNL     1     -10.147  13.638  67.539  1.00  0.00    -0.237 C  
HETATM   32  C   UNL     1      -8.118  12.769  68.905  1.00  0.00     0.214 C  
HETATM   33  C   UNL     1     -10.842  13.462  66.161  1.00  0.00    -0.281 C  
HETATM   34  H   UNL     1     -12.569  13.965  65.325  1.00  0.00     0.000 HD 
HETATM   35  C   UNL     1     -11.042  11.982  65.828  1.00  0.00    -0.324 C  
HETATM   36  O   UNL     1     -12.144  14.073  66.168  1.00  0.00    -0.402 OA 
HETATM   37  O   UNL     1     -11.541  11.841  64.486  1.00  0.00    -0.301 OA 
HETATM   38  H   UNL     1     -12.341  12.334  64.355  1.00  0.00     0.000 HD 
BRANCH  31  39
HETATM   39  N   UNL     1      -9.799  15.042  67.869  1.00  0.00    -0.216 NA 
HETATM   40  H   UNL     1     -10.056  15.467  68.760  1.00  0.00     0.000 HD 
BRANCH  39  41
HETATM   41  C   UNL     1      -9.050  15.795  66.821  1.00  0.00    -0.249 C  
HETATM   42  C   UNL     1      -9.626  18.218  66.366  1.00  0.00    -0.307 C  
HETATM   43  C   UNL     1      -9.896  16.914  66.293  1.00  0.00    -0.320 C  
HETATM   44  C   UNL     1      -8.322  18.719  66.927  1.00  0.00    -0.270 C  
HETATM   45  H   UNL     1      -6.939  16.401  69.281  1.00  0.00     0.000 HD 
HETATM   46  O   UNL     1      -7.763  16.128  68.896  1.00  0.00    -0.181 OA 
HETATM   47  C   UNL     1      -7.206  17.655  67.091  1.00  0.00    -0.180 C  
HETATM   48  O   UNL     1      -8.600  19.354  68.172  1.00  0.00    -0.315 OA 
HETATM   49  H   UNL     1      -5.736  16.927  65.992  1.00  0.00     0.000 HD 
HETATM   50  O   UNL     1      -6.420  17.578  65.891  1.00  0.00    -0.216 OA 
HETATM   51  C   UNL     1      -7.693  16.245  67.456  1.00  0.00    -0.146 C  
HETATM   52  H   UNL     1      -7.777  19.669  68.526  1.00  0.00     0.000 HD 
BRANCH  42  53
HETATM   53  C   UNL     1     -10.594  19.291  65.919  1.00  0.00    -0.435 C  
HETATM   54  O   UNL     1      -9.937  20.519  65.619  1.00  0.00    -0.573 OA 
HETATM   55  H   UNL     1     -10.545  21.193  65.338  1.00  0.00     0.000 HD 
ENDBRANCH  42  53
ENDBRANCH  39  41
ENDBRANCH  31  39
ENDBRANCH  27  28
ENDBRANCH  23  27
ENDBRANCH  13  14
ENDBRANCH   4  13
ENDBRANCH   1   4
BRANCH   1  56
HETATM   56  C   UNL     1      -8.179   4.002  66.408  1.00  0.00    -0.101 C  
HETATM   57  O   UNL     1      -7.246   4.539  67.348  1.00  0.00    -0.067 OA 
HETATM   58  H   UNL     1      -6.691   3.836  67.667  1.00  0.00     0.000 HD 
ENDBRANCH   1  56
TORSDOF 12
ENDMDL
MODEL       81
REMARK 921   NORMALIZED FREE ENERGY PREDICTED BY IDOCK:   -5.71 KCAL/MOL
REMARK 922        TOTAL FREE ENERGY PREDICTED BY IDOCK:  -12.91 KCAL/MOL
REMARK 923 INTER-LIGAND FREE ENERGY PREDICTED BY IDOCK:   -9.40 KCAL/MOL
REMARK 924 INTRA-LIGAND FREE ENERGY PREDICTED BY IDOCK:   -3.51 KCAL/MOL
REMARK 927      BINDING AFFINITY PREDICTED BY RF-SCORE:    0.00 PKD
ROOT
HETATM    1  C   UNL     1     -11.060   7.247  71.561  1.00  0.00    -0.237 C  
HETATM    2  H   UNL     1     -11.206   7.233  73.494  1.00  0.00     0.000 HD 
HETATM    3  O   UNL     1     -11.657   6.793  72.782  1.00  0.00    -0.191 OA 
ENDROOT
BRANCH   1   4
HETATM    4  C   UNL     1      -9.515   7.048  71.534  1.00  0.00    -0.154 C  
BRANCH   4   5
HETATM    5  C   UNL     1      -8.841   7.396  72.899  1.00  0.00    -0.134 C  
HETATM    6  O   UNL     1      -8.193   8.676  72.854  1.00  0.00    -0.393 OA 
HETATM    7  H   UNL     1      -7.783   8.888  73.685  1.00  0.00     0.000 HD 
BRANCH   5   8
HETATM    8  C   UNL     1      -7.795   6.380  73.377  1.00  0.00    -0.096 C  
HETATM    9  C   UNL     1      -8.442   5.243  74.137  1.00  0.00    -0.111 C  
HETATM   10  O   UNL     1      -6.892   7.064  74.259  1.00  0.00    -0.085 OA 
HETATM   11  O   UNL     1      -8.826   4.212  73.591  1.00  0.00    -0.094 OA 
HETATM   12  H   UNL     1      -6.245   6.435  74.555  1.00  0.00     0.000 HD 
ENDBRANCH   5   8
ENDBRANCH   4   5
BRANCH   4  13
HETATM   13  O   UNL     1      -8.873   7.800  70.476  1.00  0.00    -0.142 OA 
BRANCH  13  14
HETATM   14  C   UNL     1      -7.813   7.106  69.797  1.00  0.00    -0.118 C  
HETATM   15  H   UNL     1      -5.373  10.202  69.159  1.00  0.00     0.000 HD 
HETATM   16  O   UNL     1      -6.063   8.546  70.821  1.00  0.00    -0.032 OA 
HETATM   17  C   UNL     1      -6.608   8.039  69.593  1.00  0.00    -0.038 C  
HETATM   18  O   UNL     1      -8.189   6.595  68.526  1.00  0.00    -0.117 OA 
HETATM   19  O   UNL     1      -5.815   9.942  68.359  1.00  0.00    -0.043 OA 
HETATM   20  C   UNL     1      -8.659   7.590  67.612  1.00  0.00    -0.119 C  
HETATM   21  H   UNL     1      -5.318   9.123  70.695  1.00  0.00     0.000 HD 
HETATM   22  C   UNL     1      -7.010   9.219  68.718  1.00  0.00    -0.061 C  
HETATM   23  C   UNL     1      -7.725   8.800  67.424  1.00  0.00    -0.097 C  
BRANCH  20  24
HETATM   24  C   UNL     1      -8.967   6.877  66.275  1.00  0.00    -0.151 C  
HETATM   25  O   UNL     1      -9.186   7.768  65.180  1.00  0.00    -0.295 OA 
HETATM   26  H   UNL     1      -9.375   7.329  64.359  1.00  0.00     0.000 HD 
ENDBRANCH  20  24
BRANCH  23  27
HETATM   27  O   UNL     1      -8.562   9.880  66.923  1.00  0.00    -0.127 OA 
BRANCH  27  28
HETATM   28  C   UNL     1      -9.375  10.487  67.934  1.00  0.00    -0.143 C  
HETATM   29  O   UNL     1      -8.796  11.706  68.376  1.00  0.00    -0.162 OA 
HETATM   30  C   UNL     1      -8.665  12.660  67.320  1.00  0.00    -0.198 C  
HETATM   31  C   UNL     1     -10.073  13.078  66.824  1.00  0.00    -0.247 C  
HETATM   32  C   UNL     1      -7.817  13.795  67.890  1.00  0.00    -0.159 C  
HETATM   33  C   UNL     1     -10.838  11.813  66.349  1.00  0.00    -0.282 C  
HETATM   34  H   UNL     1     -12.690  11.345  65.814  1.00  0.00     0.000 HD 
HETATM   35  C   UNL     1     -10.803  10.714  67.414  1.00  0.00    -0.296 C  
HETATM   36  O   UNL     1     -12.222  12.119  66.104  1.00  0.00    -0.611 OA 
HETATM   37  O   UNL     1     -11.380   9.503  66.893  1.00  0.00     0.074 OA 
HETATM   38  H   UNL     1     -12.262   9.643  66.572  1.00  0.00     0.000 HD 
BRANCH  31  39
HETATM   39  N   UNL     1      -9.949  14.136  65.792  1.00  0.00    -0.376 NA 
HETATM   40  H   UNL     1      -9.350  14.025  64.973  1.00  0.00     0.000 HD 
BRANCH  39  41
HETATM   41  C   UNL     1     -10.751  15.374  66.022  1.00  0.00    -0.322 C  
HETATM   42  C   UNL     1     -11.224  16.139  68.389  1.00  0.00    -0.358 C  
HETATM   43  C   UNL     1     -11.418  15.309  67.363  1.00  0.00    -0.246 C  
HETATM   44  C   UNL     1     -10.343  17.352  68.260  1.00  0.00    -0.374 C  
HETATM   45  H   UNL     1      -7.828  16.879  65.755  1.00  0.00     0.000 HD 
HETATM   46  O   UNL     1      -8.413  16.140  65.872  1.00  0.00    -0.261 OA 
HETATM   47  C   UNL     1      -9.961  17.758  66.814  1.00  0.00    -0.333 C  
HETATM   48  O   UNL     1      -9.176  17.126  69.046  1.00  0.00    -0.236 OA 
HETATM   49  H   UNL     1     -10.702  18.918  65.398  1.00  0.00     0.000 HD 
HETATM   50  O   UNL     1     -10.937  18.669  66.284  1.00  0.00    -0.127 OA 
HETATM   51  C   UNL     1      -9.786  16.591  65.831  1.00  0.00    -0.295 C  
HETATM   52  H   UNL     1      -8.620  17.892  68.965  1.00  0.00     0.000 HD 
BRANCH  42  53
HETATM   53  C   UNL     1     -11.845  15.929  69.752  1.00  0.00    -0.295 C  
HETATM   54  O   UNL     1     -11.168  16.658  70.771  1.00  0.00    -0.464 OA 
HETATM   55  H   UNL     1     -11.558  16.526  71.628  1.00  0.00     0.000 HD 
ENDBRANCH  42  53
ENDBRANCH  39  41
ENDBRANCH  31  39
ENDBRANCH  27  28
ENDBRANCH  23  27
ENDBRANCH  13  14
ENDBRANCH   4  13
ENDBRANCH   1   4
BRANCH   1  56
HETATM   56  C   UNL     1     -11.785   6.537  70.415  1.00  0.00    -0.375 C  
HETATM   57  O   UNL     1     -11.474   7.201  69.188  1.00  0.00    -0.480 OA 
HETATM   58  H   UNL     1     -11.924   6.761  68.476  1.00  0.00     0.000 HD 
ENDBRANCH   1  56
TORSDOF 12
ENDMDL
MODEL       82
REMARK 921   NORMALIZED FREE ENERGY PREDICTED BY IDOCK:   -5.70 KCAL/MOL
REMARK 922        TOTAL FREE ENERGY PREDICTED BY IDOCK:  -12.89 KCAL/MOL
REMARK 923 INTER-LIGAND FREE ENERGY PREDICTED BY IDOCK:  -10.88 KCAL/MOL
REMARK 924 INTRA-LIGAND FREE ENERGY PREDICTED BY IDOCK:   -2.02 KCAL/MOL
REMARK 927      BINDING AFFINITY PREDICTED BY RF-SCORE:    0.00 PKD
ROOT
HETATM    1  C   UNL     1      -7.016   8.148  72.226  1.00  0.00    -0.089 C  
HETATM    2  H   UNL     1      -8.430   8.156  73.553  1.00  0.00     0.000 HD 
HETATM    3  O   UNL     1      -8.238   8.663  72.772  1.00  0.00    -0.385 OA 
ENDROOT
BRANCH   1   4
HETATM    4  C   UNL     1      -7.070   6.612  71.970  1.00  0.00    -0.080 C  
BRANCH   4   5
HETATM    5  C   UNL     1      -5.718   5.901  72.295  1.00  0.00    -0.031 C  
HETATM    6  O   UNL     1      -5.236   5.149  71.172  1.00  0.00    -0.004 OA 
HETATM    7  H   UNL     1      -4.413   4.717  71.369  1.00  0.00     0.000 HD 
BRANCH   5   8
HETATM    8  C   UNL     1      -5.768   4.941  73.491  1.00  0.00    -0.018 C  
HETATM    9  C   UNL     1      -6.120   3.537  73.053  1.00  0.00    -0.008 C  
HETATM   10  O   UNL     1      -6.789   5.410  74.386  1.00  0.00    -0.075 OA 
HETATM   11  O   UNL     1      -5.270   2.705  72.741  1.00  0.00     0.000 OA 
HETATM   12  H   UNL     1      -6.819   4.816  75.126  1.00  0.00     0.000 HD 
ENDBRANCH   5   8
ENDBRANCH   4   5
BRANCH   4  13
HETATM   13  O   UNL     1      -7.471   6.285  70.618  1.00  0.00    -0.083 OA 
BRANCH  13  14
HETATM   14  C   UNL     1      -8.079   4.991  70.464  1.00  0.00    -0.093 C  
HETATM   15  H   UNL     1     -10.089   5.669  67.080  1.00  0.00     0.000 HD 
HETATM   16  O   UNL     1      -7.895   5.078  67.984  1.00  0.00    -0.086 OA 
HETATM   17  C   UNL     1      -8.781   4.891  69.099  1.00  0.00    -0.087 C  
HETATM   18  O   UNL     1      -9.035   4.687  71.469  1.00  0.00    -0.127 OA 
HETATM   19  O   UNL     1     -10.673   5.657  67.829  1.00  0.00    -0.228 OA 
HETATM   20  C   UNL     1     -10.113   5.625  71.552  1.00  0.00    -0.201 C  
HETATM   21  H   UNL     1      -8.329   5.016  67.141  1.00  0.00     0.000 HD 
HETATM   22  C   UNL     1      -9.893   5.928  69.012  1.00  0.00    -0.152 C  
HETATM   23  C   UNL     1     -10.837   5.910  70.225  1.00  0.00    -0.320 C  
BRANCH  20  24
HETATM   24  C   UNL     1     -11.080   5.116  72.647  1.00  0.00    -0.234 C  
HETATM   25  O   UNL     1     -12.018   6.096  73.093  1.00  0.00    -0.305 OA 
HETATM   26  H   UNL     1     -12.612   5.783  73.766  1.00  0.00     0.000 HD 
ENDBRANCH  20  24
BRANCH  23  27
HETATM   27  O   UNL     1     -11.491   7.199  70.391  1.00  0.00    -0.291 OA 
BRANCH  27  28
HETATM   28  C   UNL     1     -10.619   8.219  70.894  1.00  0.00    -0.207 C  
HETATM   29  O   UNL     1      -9.764   8.697  69.866  1.00  0.00    -0.170 OA 
HETATM   30  C   UNL     1     -10.492   9.273  68.778  1.00  0.00    -0.210 C  
HETATM   31  C   UNL     1     -11.231  10.544  69.266  1.00  0.00    -0.262 C  
HETATM   32  C   UNL     1      -9.467   9.505  67.671  1.00  0.00    -0.153 C  
HETATM   33  C   UNL     1     -12.177  10.162  70.437  1.00  0.00    -0.218 C  
HETATM   34  H   UNL     1     -13.280  11.106  71.788  1.00  0.00     0.000 HD 
HETATM   35  C   UNL     1     -11.431   9.368  71.512  1.00  0.00    -0.397 C  
HETATM   36  O   UNL     1     -12.702  11.341  71.072  1.00  0.00    -0.368 OA 
HETATM   37  O   UNL     1     -12.357   8.892  72.505  1.00  0.00    -0.349 OA 
HETATM   38  H   UNL     1     -12.858   9.601  72.888  1.00  0.00     0.000 HD 
BRANCH  31  39
HETATM   39  N   UNL     1     -11.914  11.199  68.123  1.00  0.00    -0.704 NA 
HETATM   40  H   UNL     1     -12.904  11.049  67.927  1.00  0.00     0.000 HD 
BRANCH  39  41
HETATM   41  C   UNL     1     -11.067  12.090  67.277  1.00  0.00    -0.285 C  
HETATM   42  C   UNL     1     -11.923  12.863  65.023  1.00  0.00    -0.445 C  
HETATM   43  C   UNL     1     -11.433  11.924  65.833  1.00  0.00    -0.340 C  
HETATM   44  C   UNL     1     -12.070  14.291  65.477  1.00  0.00    -0.394 C  
HETATM   45  H   UNL     1     -12.491  14.496  69.027  1.00  0.00     0.000 HD 
HETATM   46  O   UNL     1     -12.391  13.613  68.691  1.00  0.00    -0.258 OA 
HETATM   47  C   UNL     1     -11.321  14.664  66.782  1.00  0.00    -0.356 C  
HETATM   48  O   UNL     1     -13.462  14.567  65.598  1.00  0.00    -0.496 OA 
HETATM   49  H   UNL     1      -9.534  15.346  67.274  1.00  0.00     0.000 HD 
HETATM   50  O   UNL     1      -9.993  15.117  66.474  1.00  0.00    -0.247 OA 
HETATM   51  C   UNL     1     -11.232  13.545  67.830  1.00  0.00    -0.282 C  
HETATM   52  H   UNL     1     -13.554  15.468  65.884  1.00  0.00     0.000 HD 
BRANCH  42  53
HETATM   53  C   UNL     1     -12.385  12.581  63.611  1.00  0.00    -0.522 C  
HETATM   54  O   UNL     1     -12.337  13.740  62.786  1.00  0.00    -0.863 OA 
HETATM   55  H   UNL     1     -12.627  13.563  61.898  1.00  0.00     0.000 HD 
ENDBRANCH  42  53
ENDBRANCH  39  41
ENDBRANCH  31  39
ENDBRANCH  27  28
ENDBRANCH  23  27
ENDBRANCH  13  14
ENDBRANCH   4  13
ENDBRANCH   1   4
BRANCH   1  56
HETATM   56  C   UNL     1      -6.707   8.964  70.969  1.00  0.00    -0.077 C  
HETATM   57  O   UNL     1      -7.637  10.047  70.879  1.00  0.00    -0.376 OA 
HETATM   58  H   UNL     1      -7.445  10.554  70.099  1.00  0.00     0.000 HD 
ENDBRANCH   1  56
TORSDOF 12
ENDMDL
MODEL       83
REMARK 921   NORMALIZED FREE ENERGY PREDICTED BY IDOCK:   -5.67 KCAL/MOL
REMARK 922        TOTAL FREE ENERGY PREDICTED BY IDOCK:  -12.85 KCAL/MOL
REMARK 923 INTER-LIGAND FREE ENERGY PREDICTED BY IDOCK:   -9.06 KCAL/MOL
REMARK 924 INTRA-LIGAND FREE ENERGY PREDICTED BY IDOCK:   -3.79 KCAL/MOL
REMARK 927      BINDING AFFINITY PREDICTED BY RF-SCORE:    0.00 PKD
ROOT
HETATM    1  C   UNL     1      -9.051   3.377  63.334  1.00  0.00    -0.094 C  
HETATM    2  H   UNL     1      -7.312   3.030  62.550  1.00  0.00     0.000 HD 
HETATM    3  O   UNL     1      -8.207   2.797  62.331  1.00  0.00    -0.070 OA 
ENDROOT
BRANCH   1   4
HETATM    4  C   UNL     1      -8.830   4.911  63.495  1.00  0.00    -0.074 C  
BRANCH   4   5
HETATM    5  C   UNL     1      -7.534   5.410  62.780  1.00  0.00    -0.051 C  
HETATM    6  O   UNL     1      -6.352   4.902  63.419  1.00  0.00    -0.025 OA 
HETATM    7  H   UNL     1      -5.564   5.206  62.984  1.00  0.00     0.000 HD 
BRANCH   5   8
HETATM    8  C   UNL     1      -7.386   6.935  62.708  1.00  0.00    -0.076 C  
HETATM    9  C   UNL     1      -6.357   7.434  63.698  1.00  0.00    -0.053 C  
HETATM   10  O   UNL     1      -8.658   7.514  63.039  1.00  0.00    -0.367 OA 
HETATM   11  O   UNL     1      -5.167   7.557  63.416  1.00  0.00    -0.033 OA 
HETATM   12  H   UNL     1      -8.566   8.459  62.994  1.00  0.00     0.000 HD 
ENDBRANCH   5   8
ENDBRANCH   4   5
BRANCH   4  13
HETATM   13  O   UNL     1      -8.804   5.330  64.881  1.00  0.00    -0.150 OA 
BRANCH  13  14
HETATM   14  C   UNL     1      -8.039   4.483  65.755  1.00  0.00    -0.102 C  
HETATM   15  H   UNL     1     -10.704   4.091  68.703  1.00  0.00     0.000 HD 
HETATM   16  O   UNL     1     -10.061   3.241  66.502  1.00  0.00    -0.270 OA 
HETATM   17  C   UNL     1      -8.912   3.993  66.922  1.00  0.00    -0.132 C  
HETATM   18  O   UNL     1      -6.892   5.116  66.304  1.00  0.00    -0.056 OA 
HETATM   19  O   UNL     1     -10.002   4.681  68.951  1.00  0.00    -0.164 OA 
HETATM   20  C   UNL     1      -7.182   6.300  67.054  1.00  0.00    -0.075 C  
HETATM   21  H   UNL     1     -10.600   2.939  67.224  1.00  0.00     0.000 HD 
HETATM   22  C   UNL     1      -9.387   5.182  67.746  1.00  0.00    -0.123 C  
HETATM   23  C   UNL     1      -8.252   6.136  68.148  1.00  0.00    -0.114 C  
BRANCH  20  24
HETATM   24  C   UNL     1      -5.842   6.823  67.620  1.00  0.00    -0.020 C  
HETATM   25  O   UNL     1      -5.965   8.024  68.384  1.00  0.00    -0.038 OA 
HETATM   26  H   UNL     1      -5.141   8.345  68.732  1.00  0.00     0.000 HD 
ENDBRANCH  20  24
BRANCH  23  27
HETATM   27  O   UNL     1      -8.766   7.472  68.411  1.00  0.00    -0.124 OA 
BRANCH  27  28
HETATM   28  C   UNL     1     -10.174   7.596  68.177  1.00  0.00    -0.196 C  
HETATM   29  O   UNL     1     -10.841   8.027  69.354  1.00  0.00    -0.199 OA 
HETATM   30  C   UNL     1     -10.380   9.304  69.802  1.00  0.00    -0.218 C  
HETATM   31  C   UNL     1     -10.749  10.383  68.752  1.00  0.00    -0.225 C  
HETATM   32  C   UNL     1     -11.000   9.507  71.183  1.00  0.00    -0.438 C  
HETATM   33  C   UNL     1     -10.111  10.001  67.389  1.00  0.00    -0.208 C  
HETATM   34  H   UNL     1     -10.227  10.607  65.504  1.00  0.00     0.000 HD 
HETATM   35  C   UNL     1     -10.445   8.557  67.009  1.00  0.00    -0.292 C  
HETATM   36  O   UNL     1     -10.618  10.842  66.337  1.00  0.00    -0.246 OA 
HETATM   37  O   UNL     1      -9.719   8.177  65.826  1.00  0.00    -0.438 OA 
HETATM   38  H   UNL     1      -9.886   8.770  65.104  1.00  0.00     0.000 HD 
BRANCH  31  39
HETATM   39  N   UNL     1     -10.357  11.725  69.251  1.00  0.00    -0.425 NA 
HETATM   40  H   UNL     1      -9.474  11.883  69.737  1.00  0.00     0.000 HD 
BRANCH  39  41
HETATM   41  C   UNL     1     -11.330  12.827  68.999  1.00  0.00    -0.294 C  
HETATM   42  C   UNL     1     -12.562  13.881  70.945  1.00  0.00    -0.431 C  
HETATM   43  C   UNL     1     -12.348  12.872  70.099  1.00  0.00    -0.249 C  
HETATM   44  C   UNL     1     -11.830  15.188  70.807  1.00  0.00    -0.324 C  
HETATM   45  H   UNL     1      -8.655  14.745  69.211  1.00  0.00     0.000 HD 
HETATM   46  O   UNL     1      -9.158  13.946  69.319  1.00  0.00     0.258 OA 
HETATM   47  C   UNL     1     -11.091  15.409  69.462  1.00  0.00    -0.284 C  
HETATM   48  O   UNL     1     -10.926  15.298  71.903  1.00  0.00    -0.486 OA 
HETATM   49  H   UNL     1     -11.516  16.175  67.692  1.00  0.00     0.000 HD 
HETATM   50  O   UNL     1     -11.969  16.040  68.516  1.00  0.00    -0.273 OA 
HETATM   51  C   UNL     1     -10.501  14.143  68.823  1.00  0.00    -0.247 C  
HETATM   52  H   UNL     1     -10.464  16.123  71.815  1.00  0.00     0.000 HD 
BRANCH  42  53
HETATM   53  C   UNL     1     -13.526  13.797  72.108  1.00  0.00    -0.502 C  
HETATM   54  O   UNL     1     -13.559  15.000  72.869  1.00  0.00    -0.464 OA 
HETATM   55  H   UNL     1     -14.164  14.947  73.600  1.00  0.00     0.000 HD 
ENDBRANCH  42  53
ENDBRANCH  39  41
ENDBRANCH  31  39
ENDBRANCH  27  28
ENDBRANCH  23  27
ENDBRANCH  13  14
ENDBRANCH   4  13
ENDBRANCH   1   4
BRANCH   1  56
HETATM   56  C   UNL     1     -10.492   3.004  62.980  1.00  0.00    -0.179 C  
HETATM   57  O   UNL     1     -11.365   3.512  63.992  1.00  0.00    -0.489 OA 
HETATM   58  H   UNL     1     -12.260   3.280  63.772  1.00  0.00     0.000 HD 
ENDBRANCH   1  56
TORSDOF 12
ENDMDL
MODEL       84
REMARK 921   NORMALIZED FREE ENERGY PREDICTED BY IDOCK:   -5.66 KCAL/MOL
REMARK 922        TOTAL FREE ENERGY PREDICTED BY IDOCK:  -12.82 KCAL/MOL
REMARK 923 INTER-LIGAND FREE ENERGY PREDICTED BY IDOCK:   -9.69 KCAL/MOL
REMARK 924 INTRA-LIGAND FREE ENERGY PREDICTED BY IDOCK:   -3.13 KCAL/MOL
REMARK 927      BINDING AFFINITY PREDICTED BY RF-SCORE:    0.00 PKD
ROOT
HETATM    1  C   UNL     1     -12.847  14.353  71.967  1.00  0.00    -0.343 C  
HETATM    2  H   UNL     1     -13.893  12.840  72.580  1.00  0.00     0.000 HD 
HETATM    3  O   UNL     1     -14.000  13.784  72.602  1.00  0.00    -0.710 OA 
ENDROOT
BRANCH   1   4
HETATM    4  C   UNL     1     -12.608  13.788  70.534  1.00  0.00    -0.291 C  
BRANCH   4   5
HETATM    5  C   UNL     1     -12.703  12.231  70.479  1.00  0.00     0.021 C  
HETATM    6  O   UNL     1     -12.774  11.661  71.795  1.00  0.00    -0.316 OA 
HETATM    7  H   UNL     1     -12.833  10.713  71.761  1.00  0.00     0.000 HD 
BRANCH   5   8
HETATM    8  C   UNL     1     -11.542  11.541  69.752  1.00  0.00    -0.326 C  
HETATM    9  C   UNL     1     -12.007  10.892  68.467  1.00  0.00    -0.067 C  
HETATM   10  O   UNL     1     -11.029  10.518  70.620  1.00  0.00    -0.415 OA 
HETATM   11  O   UNL     1     -12.003  11.479  67.387  1.00  0.00    -0.623 OA 
HETATM   12  H   UNL     1     -10.310  10.091  70.170  1.00  0.00     0.000 HD 
ENDBRANCH   5   8
ENDBRANCH   4   5
BRANCH   4  13
HETATM   13  O   UNL     1     -11.342  14.212  69.972  1.00  0.00    -0.226 OA 
BRANCH  13  14
HETATM   14  C   UNL     1     -11.412  15.378  69.135  1.00  0.00    -0.333 C  
HETATM   15  H   UNL     1     -11.273  13.575  65.574  1.00  0.00     0.000 HD 
HETATM   16  O   UNL     1     -12.762  14.196  67.411  1.00  0.00    -0.402 OA 
HETATM   17  C   UNL     1     -11.577  14.968  67.662  1.00  0.00    -0.312 C  
HETATM   18  O   UNL     1     -10.270  16.217  69.228  1.00  0.00    -0.238 OA 
HETATM   19  O   UNL     1     -10.444  13.992  65.780  1.00  0.00    -0.289 OA 
HETATM   20  C   UNL     1      -9.039  15.567  68.898  1.00  0.00    -0.219 C  
HETATM   21  H   UNL     1     -12.864  13.942  66.501  1.00  0.00     0.000 HD 
HETATM   22  C   UNL     1     -10.368  14.160  67.211  1.00  0.00    -0.267 C  
HETATM   23  C   UNL     1      -9.028  14.833  67.545  1.00  0.00    -0.187 C  
BRANCH  20  24
HETATM   24  C   UNL     1      -7.919  16.628  68.996  1.00  0.00    -0.208 C  
HETATM   25  O   UNL     1      -6.694  16.130  69.535  1.00  0.00    -0.193 OA 
HETATM   26  H   UNL     1      -6.005  16.782  69.595  1.00  0.00     0.000 HD 
ENDBRANCH  20  24
BRANCH  23  27
HETATM   27  O   UNL     1      -7.961  13.848  67.630  1.00  0.00    -0.146 OA 
BRANCH  27  28
HETATM   28  C   UNL     1      -8.366  12.621  68.249  1.00  0.00    -0.165 C  
HETATM   29  O   UNL     1      -8.907  11.730  67.285  1.00  0.00    -0.157 OA 
HETATM   30  C   UNL     1      -7.961  11.389  66.269  1.00  0.00    -0.037 C  
HETATM   31  C   UNL     1      -6.793  10.588  66.899  1.00  0.00    -0.091 C  
HETATM   32  C   UNL     1      -8.753  10.642  65.199  1.00  0.00    -0.196 C  
HETATM   33  C   UNL     1      -6.136  11.446  68.015  1.00  0.00    -0.046 C  
HETATM   34  H   UNL     1      -4.806  11.182  69.463  1.00  0.00     0.000 HD 
HETATM   35  C   UNL     1      -7.187  11.976  68.994  1.00  0.00    -0.053 C  
HETATM   36  O   UNL     1      -5.207  10.658  68.780  1.00  0.00    -0.042 OA 
HETATM   37  O   UNL     1      -6.579  12.891  69.923  1.00  0.00    -0.338 OA 
HETATM   38  H   UNL     1      -5.850  12.493  70.383  1.00  0.00     0.000 HD 
BRANCH  31  39
HETATM   39  N   UNL     1      -5.853  10.152  65.837  1.00  0.00    -0.070 NA 
HETATM   40  H   UNL     1      -5.382  10.818  65.225  1.00  0.00     0.000 HD 
BRANCH  39  41
HETATM   41  C   UNL     1      -5.638   8.680  65.717  1.00  0.00    -0.042 C  
HETATM   42  C   UNL     1      -7.630   7.117  65.737  1.00  0.00    -0.094 C  
HETATM   43  C   UNL     1      -6.781   7.943  66.349  1.00  0.00    -0.054 C  
HETATM   44  C   UNL     1      -7.454   6.741  64.291  1.00  0.00    -0.100 C  
HETATM   45  H   UNL     1      -5.724   9.300  62.478  1.00  0.00     0.000 HD 
HETATM   46  O   UNL     1      -5.857   9.490  63.400  1.00  0.00    -0.087 OA 
HETATM   47  C   UNL     1      -6.077   7.086  63.667  1.00  0.00    -0.043 C  
HETATM   48  O   UNL     1      -8.509   7.350  63.552  1.00  0.00    -0.363 OA 
HETATM   49  H   UNL     1      -4.323   6.200  63.464  1.00  0.00     0.000 HD 
HETATM   50  O   UNL     1      -5.167   5.988  63.847  1.00  0.00    -0.016 OA 
HETATM   51  C   UNL     1      -5.419   8.367  64.199  1.00  0.00    -0.055 C  
HETATM   52  H   UNL     1      -8.397   7.113  62.639  1.00  0.00     0.000 HD 
BRANCH  42  53
HETATM   53  C   UNL     1      -8.834   6.509  66.423  1.00  0.00    -0.143 C  
HETATM   54  O   UNL     1     -10.039   7.199  66.107  1.00  0.00    -0.435 OA 
HETATM   55  H   UNL     1     -10.795   6.818  66.539  1.00  0.00     0.000 HD 
ENDBRANCH  42  53
ENDBRANCH  39  41
ENDBRANCH  31  39
ENDBRANCH  27  28
ENDBRANCH  23  27
ENDBRANCH  13  14
ENDBRANCH   4  13
ENDBRANCH   1   4
BRANCH   1  56
HETATM   56  C   UNL     1     -13.020  15.873  72.001  1.00  0.00    -0.378 C  
HETATM   57  O   UNL     1     -11.729  16.487  71.959  1.00  0.00    -0.596 OA 
HETATM   58  H   UNL     1     -11.836  17.431  71.980  1.00  0.00     0.000 HD 
ENDBRANCH   1  56
TORSDOF 12
ENDMDL
MODEL       85
REMARK 921   NORMALIZED FREE ENERGY PREDICTED BY IDOCK:   -5.66 KCAL/MOL
REMARK 922        TOTAL FREE ENERGY PREDICTED BY IDOCK:  -12.82 KCAL/MOL
REMARK 923 INTER-LIGAND FREE ENERGY PREDICTED BY IDOCK:  -10.36 KCAL/MOL
REMARK 924 INTRA-LIGAND FREE ENERGY PREDICTED BY IDOCK:   -2.46 KCAL/MOL
REMARK 927      BINDING AFFINITY PREDICTED BY RF-SCORE:    0.00 PKD
ROOT
HETATM    1  C   UNL     1     -12.014  14.450  65.212  1.00  0.00    -0.382 C  
HETATM    2  H   UNL     1     -12.727  12.702  65.652  1.00  0.00     0.000 HD 
HETATM    3  O   UNL     1     -13.027  13.438  65.132  1.00  0.00    -0.710 OA 
ENDROOT
BRANCH   1   4
HETATM    4  C   UNL     1     -10.607  13.928  64.795  1.00  0.00    -0.426 C  
BRANCH   4   5
HETATM    5  C   UNL     1     -10.663  12.959  63.573  1.00  0.00    -0.062 C  
HETATM    6  O   UNL     1     -11.744  13.290  62.688  1.00  0.00    -0.447 OA 
HETATM    7  H   UNL     1     -11.778  12.700  61.944  1.00  0.00     0.000 HD 
BRANCH   5   8
HETATM    8  C   UNL     1     -10.816  11.476  63.934  1.00  0.00    -0.401 C  
HETATM    9  C   UNL     1      -9.623  10.671  63.469  1.00  0.00    -0.323 C  
HETATM   10  O   UNL     1     -11.988  10.982  63.267  1.00  0.00    -0.345 OA 
HETATM   11  O   UNL     1      -8.633  10.482  64.173  1.00  0.00    -0.178 OA 
HETATM   12  H   UNL     1     -12.083  10.064  63.491  1.00  0.00     0.000 HD 
ENDBRANCH   5   8
ENDBRANCH   4   5
BRANCH   4  13
HETATM   13  O   UNL     1      -9.904  13.285  65.886  1.00  0.00    -0.277 OA 
BRANCH  13  14
HETATM   14  C   UNL     1      -9.806  14.068  67.087  1.00  0.00    -0.240 C  
HETATM   15  H   UNL     1      -6.239  12.791  68.351  1.00  0.00     0.000 HD 
HETATM   16  O   UNL     1      -7.348  14.355  66.833  1.00  0.00    -0.318 OA 
HETATM   17  C   UNL     1      -8.405  13.925  67.705  1.00  0.00    -0.174 C  
HETATM   18  O   UNL     1     -10.758  13.711  68.079  1.00  0.00    -0.238 OA 
HETATM   19  O   UNL     1      -6.942  12.413  68.867  1.00  0.00    -0.096 OA 
HETATM   20  C   UNL     1     -10.687  12.342  68.491  1.00  0.00    -0.238 C  
HETATM   21  H   UNL     1      -6.482  14.266  67.214  1.00  0.00     0.000 HD 
HETATM   22  C   UNL     1      -8.155  12.472  68.088  1.00  0.00    -0.167 C  
HETATM   23  C   UNL     1      -9.291  11.859  68.922  1.00  0.00     0.132 C  
BRANCH  20  24
HETATM   24  C   UNL     1     -11.743  12.143  69.603  1.00  0.00    -0.325 C  
HETATM   25  O   UNL     1     -12.190  10.793  69.743  1.00  0.00    -0.367 OA 
HETATM   26  H   UNL     1     -12.839  10.671  70.426  1.00  0.00     0.000 HD 
ENDBRANCH  20  24
BRANCH  23  27
HETATM   27  O   UNL     1      -9.307  10.410  68.789  1.00  0.00    -0.158 OA 
BRANCH  27  28
HETATM   28  C   UNL     1      -9.052   9.959  67.453  1.00  0.00    -0.134 C  
HETATM   29  O   UNL     1      -7.815   9.266  67.387  1.00  0.00    -0.098 OA 
HETATM   30  C   UNL     1      -7.794   8.109  68.227  1.00  0.00    -0.122 C  
HETATM   31  C   UNL     1      -8.826   7.075  67.708  1.00  0.00    -0.123 C  
HETATM   32  C   UNL     1      -6.345   7.629  68.235  1.00  0.00    -0.041 C  
HETATM   33  C   UNL     1     -10.233   7.731  67.687  1.00  0.00    -0.219 C  
HETATM   34  H   UNL     1     -12.035   7.294  66.983  1.00  0.00     0.000 HD 
HETATM   35  C   UNL     1     -10.205   9.074  66.953  1.00  0.00    -0.269 C  
HETATM   36  O   UNL     1     -11.175   6.892  66.996  1.00  0.00    -0.369 OA 
HETATM   37  O   UNL     1     -11.478   9.733  67.082  1.00  0.00    -0.149 OA 
HETATM   38  H   UNL     1     -12.190   9.187  66.774  1.00  0.00     0.000 HD 
BRANCH  31  39
HETATM   39  N   UNL     1      -8.746   5.835  68.519  1.00  0.00    -0.111 NA 
HETATM   40  H   UNL     1      -8.884   4.911  68.108  1.00  0.00     0.000 HD 
BRANCH  39  41
HETATM   41  C   UNL     1      -8.451   6.019  69.970  1.00  0.00    -0.131 C  
HETATM   42  C   UNL     1     -10.217   5.443  71.691  1.00  0.00    -0.268 C  
HETATM   43  C   UNL     1      -9.727   6.226  70.729  1.00  0.00    -0.202 C  
HETATM   44  C   UNL     1      -9.443   4.261  72.210  1.00  0.00    -0.132 C  
HETATM   45  H   UNL     1      -7.205   2.974  69.728  1.00  0.00     0.000 HD 
HETATM   46  O   UNL     1      -7.715   3.725  69.449  1.00  0.00    -0.052 OA 
HETATM   47  C   UNL     1      -7.944   4.211  71.817  1.00  0.00    -0.083 C  
HETATM   48  O   UNL     1     -10.116   3.080  71.783  1.00  0.00    -0.152 OA 
HETATM   49  H   UNL     1      -6.236   4.865  72.561  1.00  0.00     0.000 HD 
HETATM   50  O   UNL     1      -7.154   4.896  72.803  1.00  0.00    -0.074 OA 
HETATM   51  C   UNL     1      -7.611   4.781  70.431  1.00  0.00    -0.054 C  
HETATM   52  H   UNL     1      -9.627   2.334  72.111  1.00  0.00     0.000 HD 
BRANCH  42  53
HETATM   53  C   UNL     1     -11.576   5.656  72.321  1.00  0.00    -0.181 C  
HETATM   54  O   UNL     1     -11.721   6.966  72.860  1.00  0.00    -0.501 OA 
HETATM   55  H   UNL     1     -12.574   7.099  73.256  1.00  0.00     0.000 HD 
ENDBRANCH  42  53
ENDBRANCH  39  41
ENDBRANCH  31  39
ENDBRANCH  27  28
ENDBRANCH  23  27
ENDBRANCH  13  14
ENDBRANCH   4  13
ENDBRANCH   1   4
BRANCH   1  56
HETATM   56  C   UNL     1     -12.497  15.636  64.374  1.00  0.00     0.212 C  
HETATM   57  O   UNL     1     -11.366  16.262  63.763  1.00  0.00    -1.368 OA 
HETATM   58  H   UNL     1     -11.666  16.999  63.242  1.00  0.00     0.000 HD 
ENDBRANCH   1  56
TORSDOF 12
ENDMDL
MODEL       86
REMARK 921   NORMALIZED FREE ENERGY PREDICTED BY IDOCK:   -5.61 KCAL/MOL
REMARK 922        TOTAL FREE ENERGY PREDICTED BY IDOCK:  -12.75 KCAL/MOL
REMARK 923 INTER-LIGAND FREE ENERGY PREDICTED BY IDOCK:  -12.27 KCAL/MOL
REMARK 924 INTRA-LIGAND FREE ENERGY PREDICTED BY IDOCK:   -0.48 KCAL/MOL
REMARK 927      BINDING AFFINITY PREDICTED BY RF-SCORE:    0.00 PKD
ROOT
HETATM    1  C   UNL     1     -12.250   9.566  71.673  1.00  0.00    -0.398 C  
HETATM    2  H   UNL     1     -13.603   8.233  72.063  1.00  0.00     0.000 HD 
HETATM    3  O   UNL     1     -13.532   8.961  71.456  1.00  0.00    -0.353 OA 
ENDROOT
BRANCH   1   4
HETATM    4  C   UNL     1     -11.076   8.548  71.560  1.00  0.00    -0.275 C  
BRANCH   4   5
HETATM    5  C   UNL     1     -10.627   7.993  72.948  1.00  0.00    -0.329 C  
HETATM    6  O   UNL     1      -9.209   8.122  73.132  1.00  0.00    -0.261 OA 
HETATM    7  H   UNL     1      -8.936   7.784  73.977  1.00  0.00     0.000 HD 
BRANCH   5   8
HETATM    8  C   UNL     1     -10.980   6.521  73.196  1.00  0.00    -0.221 C  
HETATM    9  C   UNL     1      -9.876   5.603  72.721  1.00  0.00    -0.164 C  
HETATM   10  O   UNL     1     -12.172   6.225  72.451  1.00  0.00    -0.516 OA 
HETATM   11  O   UNL     1      -8.952   5.243  73.448  1.00  0.00    -0.120 OA 
HETATM   12  H   UNL     1     -12.391   5.314  72.605  1.00  0.00     0.000 HD 
ENDBRANCH   5   8
ENDBRANCH   4   5
BRANCH   4  13
HETATM   13  O   UNL     1      -9.928   9.095  70.867  1.00  0.00    -0.240 OA 
BRANCH  13  14
HETATM   14  C   UNL     1      -9.104   8.122  70.202  1.00  0.00    -0.147 C  
HETATM   15  H   UNL     1      -6.036  10.490  69.237  1.00  0.00     0.000 HD 
HETATM   16  O   UNL     1      -7.006   9.160  71.045  1.00  0.00    -0.091 OA 
HETATM   17  C   UNL     1      -7.724   8.722  69.881  1.00  0.00    -0.081 C  
HETATM   18  O   UNL     1      -9.661   7.637  68.988  1.00  0.00    -0.150 OA 
HETATM   19  O   UNL     1      -6.571  10.295  68.477  1.00  0.00    -0.052 OA 
HETATM   20  C   UNL     1      -9.930   8.657  68.021  1.00  0.00    -0.182 C  
HETATM   21  H   UNL     1      -6.154   9.531  70.847  1.00  0.00     0.000 HD 
HETATM   22  C   UNL     1      -7.882   9.905  68.936  1.00  0.00    -0.091 C  
HETATM   23  C   UNL     1      -8.748   9.590  67.706  1.00  0.00    -0.115 C  
BRANCH  20  24
HETATM   24  C   UNL     1     -10.473   7.955  66.755  1.00  0.00    -0.247 C  
HETATM   25  O   UNL     1      -9.470   7.291  65.984  1.00  0.00    -0.386 OA 
HETATM   26  H   UNL     1      -9.804   6.860  65.206  1.00  0.00     0.000 HD 
ENDBRANCH  20  24
BRANCH  23  27
HETATM   27  O   UNL     1      -9.329  10.806  67.157  1.00  0.00    -0.154 OA 
BRANCH  27  28
HETATM   28  C   UNL     1     -10.491  10.569  66.353  1.00  0.00    -0.192 C  
HETATM   29  O   UNL     1     -11.560  11.410  66.757  1.00  0.00    -0.465 OA 
HETATM   30  C   UNL     1     -11.240  12.797  66.625  1.00  0.00    -0.301 C  
HETATM   31  C   UNL     1     -11.045  13.142  65.127  1.00  0.00    -0.287 C  
HETATM   32  C   UNL     1     -12.371  13.551  67.320  1.00  0.00    -0.179 C  
HETATM   33  C   UNL     1      -9.918  12.246  64.544  1.00  0.00    -0.191 C  
HETATM   34  H   UNL     1      -9.176  11.815  62.756  1.00  0.00     0.000 HD 
HETATM   35  C   UNL     1     -10.166  10.770  64.864  1.00  0.00    -0.320 C  
HETATM   36  O   UNL     1      -9.865  12.364  63.112  1.00  0.00    -0.314 OA 
HETATM   37  O   UNL     1      -9.036   9.979  64.453  1.00  0.00    -0.208 OA 
HETATM   38  H   UNL     1      -8.836  10.103  63.533  1.00  0.00     0.000 HD 
BRANCH  31  39
HETATM   39  N   UNL     1     -10.803  14.598  64.973  1.00  0.00    -0.390 NA 
HETATM   40  H   UNL     1     -10.791  15.050  64.059  1.00  0.00     0.000 HD 
BRANCH  39  41
HETATM   41  C   UNL     1     -10.580  15.362  66.236  1.00  0.00    -0.308 C  
HETATM   42  C   UNL     1      -8.226  16.008  66.909  1.00  0.00    -0.277 C  
HETATM   43  C   UNL     1      -9.195  15.105  66.750  1.00  0.00    -0.277 C  
HETATM   44  C   UNL     1      -8.472  17.473  66.672  1.00  0.00    -0.259 C  
HETATM   45  H   UNL     1     -11.117  17.987  64.312  1.00  0.00     0.000 HD 
HETATM   46  O   UNL     1     -10.925  17.075  64.498  1.00  0.00    -1.031 OA 
HETATM   47  C   UNL     1      -9.959  17.899  66.569  1.00  0.00    -0.357 C  
HETATM   48  O   UNL     1      -7.758  17.849  65.498  1.00  0.00    -0.505 OA 
HETATM   49  H   UNL     1     -11.376  18.500  67.806  1.00  0.00     0.000 HD 
HETATM   50  O   UNL     1     -10.465  18.239  67.870  1.00  0.00    -0.381 OA 
HETATM   51  C   UNL     1     -10.895  16.863  65.928  1.00  0.00    -0.037 C  
HETATM   52  H   UNL     1      -7.913  18.774  65.348  1.00  0.00     0.000 HD 
BRANCH  42  53
HETATM   53  C   UNL     1      -6.815  15.645  67.317  1.00  0.00    -0.162 C  
HETATM   54  O   UNL     1      -6.584  14.241  67.270  1.00  0.00    -0.371 OA 
HETATM   55  H   UNL     1      -5.698  14.013  67.527  1.00  0.00     0.000 HD 
ENDBRANCH  42  53
ENDBRANCH  39  41
ENDBRANCH  31  39
ENDBRANCH  27  28
ENDBRANCH  23  27
ENDBRANCH  13  14
ENDBRANCH   4  13
ENDBRANCH   1   4
BRANCH   1  56
HETATM   56  C   UNL     1     -12.136  10.738  70.695  1.00  0.00    -0.370 C  
HETATM   57  O   UNL     1     -12.075  10.226  69.362  1.00  0.00    -0.512 OA 
HETATM   58  H   UNL     1     -12.005  10.954  68.755  1.00  0.00     0.000 HD 
ENDBRANCH   1  56
TORSDOF 12
ENDMDL
MODEL       87
REMARK 921   NORMALIZED FREE ENERGY PREDICTED BY IDOCK:   -5.61 KCAL/MOL
REMARK 922        TOTAL FREE ENERGY PREDICTED BY IDOCK:  -12.74 KCAL/MOL
REMARK 923 INTER-LIGAND FREE ENERGY PREDICTED BY IDOCK:   -9.67 KCAL/MOL
REMARK 924 INTRA-LIGAND FREE ENERGY PREDICTED BY IDOCK:   -3.07 KCAL/MOL
REMARK 927      BINDING AFFINITY PREDICTED BY RF-SCORE:    0.00 PKD
ROOT
HETATM    1  C   UNL     1     -12.055  10.018  70.388  1.00  0.00    -0.202 C  
HETATM    2  H   UNL     1     -10.786  11.457  70.106  1.00  0.00     0.000 HD 
HETATM    3  O   UNL     1     -11.563  11.340  70.642  1.00  0.00    -0.262 OA 
ENDROOT
BRANCH   1   4
HETATM    4  C   UNL     1     -10.975   8.918  70.614  1.00  0.00    -0.241 C  
BRANCH   4   5
HETATM    5  C   UNL     1     -11.198   8.122  71.939  1.00  0.00    -0.290 C  
HETATM    6  O   UNL     1     -10.133   8.349  72.874  1.00  0.00    -0.262 OA 
HETATM    7  H   UNL     1     -10.269   7.865  73.680  1.00  0.00     0.000 HD 
BRANCH   5   8
HETATM    8  C   UNL     1     -11.325   6.603  71.762  1.00  0.00    -0.279 C  
HETATM    9  C   UNL     1     -10.161   5.877  72.400  1.00  0.00    -0.188 C  
HETATM   10  O   UNL     1     -11.319   6.325  70.353  1.00  0.00    -0.345 OA 
HETATM   11  O   UNL     1     -10.178   5.490  73.567  1.00  0.00    -0.181 OA 
HETATM   12  H   UNL     1     -11.398   5.385  70.244  1.00  0.00     0.000 HD 
ENDBRANCH   5   8
ENDBRANCH   4   5
BRANCH   4  13
HETATM   13  O   UNL     1      -9.627   9.446  70.593  1.00  0.00    -0.250 OA 
BRANCH  13  14
HETATM   14  C   UNL     1      -8.627   8.531  70.115  1.00  0.00    -0.132 C  
HETATM   15  H   UNL     1      -5.659  11.136  69.521  1.00  0.00     0.000 HD 
HETATM   16  O   UNL     1      -6.788   9.789  71.221  1.00  0.00    -0.326 OA 
HETATM   17  C   UNL     1      -7.271   9.244  69.983  1.00  0.00    -0.078 C  
HETATM   18  O   UNL     1      -8.939   7.952  68.856  1.00  0.00    -0.141 OA 
HETATM   19  O   UNL     1      -6.047  10.864  68.697  1.00  0.00    -0.043 OA 
HETATM   20  C   UNL     1      -9.136   8.905  67.807  1.00  0.00    -0.134 C  
HETATM   21  H   UNL     1      -5.950  10.230  71.140  1.00  0.00     0.000 HD 
HETATM   22  C   UNL     1      -7.376  10.372  68.966  1.00  0.00    -0.097 C  
HETATM   23  C   UNL     1      -8.003   9.932  67.634  1.00  0.00    -0.109 C  
BRANCH  20  24
HETATM   24  C   UNL     1      -9.408   8.110  66.509  1.00  0.00    -0.206 C  
HETATM   25  O   UNL     1      -9.216   8.869  65.314  1.00  0.00    -0.375 OA 
HETATM   26  H   UNL     1      -9.383   8.380  64.516  1.00  0.00     0.000 HD 
ENDBRANCH  20  24
BRANCH  23  27
HETATM   27  O   UNL     1      -8.592  11.068  66.939  1.00  0.00    -0.136 OA 
BRANCH  27  28
HETATM   28  C   UNL     1      -9.745  11.604  67.600  1.00  0.00    -0.180 C  
HETATM   29  O   UNL     1      -9.378  12.677  68.454  1.00  0.00    -0.205 OA 
HETATM   30  C   UNL     1      -8.770  13.756  67.740  1.00  0.00    -0.182 C  
HETATM   31  C   UNL     1      -9.807  14.387  66.776  1.00  0.00    -0.264 C  
HETATM   32  C   UNL     1      -8.220  14.700  68.806  1.00  0.00    -0.156 C  
HETATM   33  C   UNL     1     -10.328  13.292  65.806  1.00  0.00    -0.288 C  
HETATM   34  H   UNL     1     -11.775  13.104  64.462  1.00  0.00     0.000 HD 
HETATM   35  C   UNL     1     -10.796  12.053  66.572  1.00  0.00    -0.277 C  
HETATM   36  O   UNL     1     -11.456  13.774  65.055  1.00  0.00    -0.315 OA 
HETATM   37  O   UNL     1     -11.125  10.998  65.651  1.00  0.00    -0.099 OA 
HETATM   38  H   UNL     1     -11.774  11.275  65.016  1.00  0.00     0.000 HD 
BRANCH  31  39
HETATM   39  N   UNL     1      -9.212  15.565  66.099  1.00  0.00    -0.328 NA 
HETATM   40  H   UNL     1      -8.371  15.491  65.525  1.00  0.00     0.000 HD 
BRANCH  39  41
HETATM   41  C   UNL     1      -9.915  16.865  66.306  1.00  0.00    -0.309 C  
HETATM   42  C   UNL     1      -9.999  17.890  68.619  1.00  0.00    -0.387 C  
HETATM   43  C   UNL     1     -10.379  16.975  67.727  1.00  0.00    -0.335 C  
HETATM   44  C   UNL     1      -9.094  19.030  68.237  1.00  0.00    -0.327 C  
HETATM   45  H   UNL     1      -7.000  18.159  65.465  1.00  0.00     0.000 HD 
HETATM   46  O   UNL     1      -7.594  17.472  65.743  1.00  0.00    -0.514 OA 
HETATM   47  C   UNL     1      -8.912  19.265  66.716  1.00  0.00    -0.327 C  
HETATM   48  O   UNL     1      -7.835  18.814  68.868  1.00  0.00    -0.319 OA 
HETATM   49  H   UNL     1      -9.802  20.320  65.303  1.00  0.00     0.000 HD 
HETATM   50  O   UNL     1      -9.914  20.176  66.235  1.00  0.00    -0.448 OA 
HETATM   51  C   UNL     1      -8.937  17.998  65.849  1.00  0.00     0.202 C  
HETATM   52  H   UNL     1      -7.263  19.533  68.627  1.00  0.00     0.000 HD 
BRANCH  42  53
HETATM   53  C   UNL     1     -10.421  17.856  70.072  1.00  0.00     1.023 C  
HETATM   54  O   UNL     1     -11.305  16.776  70.352  1.00  0.00    -0.466 OA 
HETATM   55  H   UNL     1     -11.570  16.755  71.264  1.00  0.00     0.000 HD 
ENDBRANCH  42  53
ENDBRANCH  39  41
ENDBRANCH  31  39
ENDBRANCH  27  28
ENDBRANCH  23  27
ENDBRANCH  13  14
ENDBRANCH   4  13
ENDBRANCH   1   4
BRANCH   1  56
HETATM   56  C   UNL     1     -13.306   9.831  71.251  1.00  0.00    -0.339 C  
HETATM   57  O   UNL     1     -13.473  10.984  72.080  1.00  0.00    -0.551 OA 
HETATM   58  H   UNL     1     -14.249  10.868  72.616  1.00  0.00     0.000 HD 
ENDBRANCH   1  56
TORSDOF 12
ENDMDL
MODEL       88
REMARK 921   NORMALIZED FREE ENERGY PREDICTED BY IDOCK:   -5.54 KCAL/MOL
REMARK 922        TOTAL FREE ENERGY PREDICTED BY IDOCK:  -12.63 KCAL/MOL
REMARK 923 INTER-LIGAND FREE ENERGY PREDICTED BY IDOCK:  -10.00 KCAL/MOL
REMARK 924 INTRA-LIGAND FREE ENERGY PREDICTED BY IDOCK:   -2.62 KCAL/MOL
REMARK 927      BINDING AFFINITY PREDICTED BY RF-SCORE:    0.00 PKD
ROOT
HETATM    1  C   UNL     1     -12.263  13.979  68.055  1.00  0.00    -0.153 C  
HETATM    2  H   UNL     1     -12.117  15.912  68.051  1.00  0.00     0.000 HD 
HETATM    3  O   UNL     1     -11.962  15.227  68.692  1.00  0.00    -0.320 OA 
ENDROOT
BRANCH   1   4
HETATM    4  C   UNL     1     -11.475  13.774  66.726  1.00  0.00    -0.348 C  
BRANCH   4   5
HETATM    5  C   UNL     1     -12.378  13.936  65.462  1.00  0.00    -0.480 C  
HETATM    6  O   UNL     1     -12.987  12.691  65.088  1.00  0.00    -0.754 OA 
HETATM    7  H   UNL     1     -13.536  12.790  64.319  1.00  0.00     0.000 HD 
BRANCH   5   8
HETATM    8  C   UNL     1     -11.655  14.474  64.220  1.00  0.00    -0.238 C  
HETATM    9  C   UNL     1     -11.575  15.984  64.242  1.00  0.00    -0.138 C  
HETATM   10  O   UNL     1     -12.411  14.073  63.067  1.00  0.00    -1.101 OA 
HETATM   11  O   UNL     1     -10.633  16.593  64.745  1.00  0.00    -0.685 OA 
HETATM   12  H   UNL     1     -11.963  14.406  62.298  1.00  0.00     0.000 HD 
ENDBRANCH   5   8
ENDBRANCH   4   5
BRANCH   4  13
HETATM   13  O   UNL     1     -10.796  12.497  66.670  1.00  0.00    -0.237 OA 
BRANCH  13  14
HETATM   14  C   UNL     1      -9.538  12.511  65.974  1.00  0.00    -0.202 C  
HETATM   15  H   UNL     1      -9.464   8.700  64.783  1.00  0.00     0.000 HD 
HETATM   16  O   UNL     1     -10.350  10.915  64.247  1.00  0.00    -0.344 OA 
HETATM   17  C   UNL     1      -9.330  11.186  65.221  1.00  0.00    -0.219 C  
HETATM   18  O   UNL     1      -8.418  12.709  66.825  1.00  0.00    -0.154 OA 
HETATM   19  O   UNL     1      -8.864   8.845  65.505  1.00  0.00    -0.178 OA 
HETATM   20  C   UNL     1      -8.288  11.728  67.858  1.00  0.00    -0.149 C  
HETATM   21  H   UNL     1     -10.222  10.096  63.782  1.00  0.00     0.000 HD 
HETATM   22  C   UNL     1      -9.287  10.030  66.211  1.00  0.00    -0.168 C  
HETATM   23  C   UNL     1      -8.317  10.265  67.379  1.00  0.00    -0.118 C  
BRANCH  20  24
HETATM   24  C   UNL     1      -6.999  12.059  68.646  1.00  0.00    -0.096 C  
HETATM   25  O   UNL     1      -6.862  11.329  69.866  1.00  0.00    -0.283 OA 
HETATM   26  H   UNL     1      -6.070  11.533  70.349  1.00  0.00     0.000 HD 
ENDBRANCH  20  24
BRANCH  23  27
HETATM   27  O   UNL     1      -8.698   9.470  68.537  1.00  0.00    -0.122 OA 
BRANCH  27  28
HETATM   28  C   UNL     1      -9.465   8.308  68.202  1.00  0.00    -0.137 C  
HETATM   29  O   UNL     1      -8.686   7.132  68.362  1.00  0.00    -0.126 OA 
HETATM   30  C   UNL     1      -8.234   6.958  69.708  1.00  0.00    -0.131 C  
HETATM   31  C   UNL     1      -9.454   6.723  70.635  1.00  0.00    -0.169 C  
HETATM   32  C   UNL     1      -7.227   5.811  69.662  1.00  0.00    -0.069 C  
HETATM   33  C   UNL     1     -10.420   7.933  70.517  1.00  0.00    -0.214 C  
HETATM   34  H   UNL     1     -12.258   8.393  71.102  1.00  0.00     0.000 HD 
HETATM   35  C   UNL     1     -10.743   8.241  69.053  1.00  0.00    -0.079 C  
HETATM   36  O   UNL     1     -11.668   7.653  71.174  1.00  0.00    -0.282 OA 
HETATM   37  O   UNL     1     -11.509   9.455  68.961  1.00  0.00    -0.438 OA 
HETATM   38  H   UNL     1     -12.299   9.414  69.486  1.00  0.00     0.000 HD 
BRANCH  31  39
HETATM   39  N   UNL     1      -8.989   6.450  72.017  1.00  0.00    -0.138 NA 
HETATM   40  H   UNL     1      -8.396   7.106  72.527  1.00  0.00     0.000 HD 
BRANCH  39  41
HETATM   41  C   UNL     1      -9.439   5.160  72.618  1.00  0.00    -0.140 C  
HETATM   42  C   UNL     1      -9.207   3.014  71.294  1.00  0.00    -0.194 C  
HETATM   43  C   UNL     1      -9.793   4.188  71.533  1.00  0.00    -0.255 C  
HETATM   44  C   UNL     1      -8.138   2.471  72.204  1.00  0.00    -0.054 C  
HETATM   45  H   UNL     1      -6.394   5.109  73.886  1.00  0.00     0.000 HD 
HETATM   46  O   UNL     1      -7.083   5.401  73.301  1.00  0.00    -0.079 OA 
HETATM   47  C   UNL     1      -8.005   3.172  73.581  1.00  0.00    -0.069 C  
HETATM   48  O   UNL     1      -6.902   2.513  71.496  1.00  0.00    -0.029 OA 
HETATM   49  H   UNL     1      -8.775   2.960  75.387  1.00  0.00     0.000 HD 
HETATM   50  O   UNL     1      -8.857   2.530  74.544  1.00  0.00    -0.070 OA 
HETATM   51  C   UNL     1      -8.304   4.678  73.581  1.00  0.00    -0.105 C  
HETATM   52  H   UNL     1      -6.228   2.171  72.071  1.00  0.00     0.000 HD 
BRANCH  42  53
HETATM   53  C   UNL     1      -9.543   2.147  70.101  1.00  0.00     0.001 C  
HETATM   54  O   UNL     1      -8.829   2.537  68.933  1.00  0.00    -0.077 OA 
HETATM   55  H   UNL     1      -9.040   1.993  68.183  1.00  0.00     0.000 HD 
ENDBRANCH  42  53
ENDBRANCH  39  41
ENDBRANCH  31  39
ENDBRANCH  27  28
ENDBRANCH  23  27
ENDBRANCH  13  14
ENDBRANCH   4  13
ENDBRANCH   1   4
BRANCH   1  56
HETATM   56  C   UNL     1     -12.013  12.876  69.087  1.00  0.00    -0.259 C  
HETATM   57  O   UNL     1     -10.709  13.053  69.646  1.00  0.00    -0.405 OA 
HETATM   58  H   UNL     1     -10.553  12.368  70.287  1.00  0.00     0.000 HD 
ENDBRANCH   1  56
TORSDOF 12
ENDMDL
MODEL       89
REMARK 921   NORMALIZED FREE ENERGY PREDICTED BY IDOCK:   -5.52 KCAL/MOL
REMARK 922        TOTAL FREE ENERGY PREDICTED BY IDOCK:  -12.59 KCAL/MOL
REMARK 923 INTER-LIGAND FREE ENERGY PREDICTED BY IDOCK:   -9.14 KCAL/MOL
REMARK 924 INTRA-LIGAND FREE ENERGY PREDICTED BY IDOCK:   -3.45 KCAL/MOL
REMARK 927      BINDING AFFINITY PREDICTED BY RF-SCORE:    0.00 PKD
ROOT
HETATM    1  C   UNL     1     -12.304  14.264  71.119  1.00  0.00    -0.368 C  
HETATM    2  H   UNL     1     -13.097  13.111  72.461  1.00  0.00     0.000 HD 
HETATM    3  O   UNL     1     -13.243  14.004  72.171  1.00  0.00    -0.368 OA 
ENDROOT
BRANCH   1   4
HETATM    4  C   UNL     1     -12.382  13.217  69.968  1.00  0.00    -0.200 C  
BRANCH   4   5
HETATM    5  C   UNL     1     -12.687  11.776  70.485  1.00  0.00    -0.050 C  
HETATM    6  O   UNL     1     -11.934  11.473  71.670  1.00  0.00     0.168 OA 
HETATM    7  H   UNL     1     -12.120  10.596  71.985  1.00  0.00     0.000 HD 
BRANCH   5   8
HETATM    8  C   UNL     1     -12.406  10.657  69.475  1.00  0.00    -0.083 C  
HETATM    9  C   UNL     1     -11.207   9.833  69.888  1.00  0.00    -0.229 C  
HETATM   10  O   UNL     1     -12.122  11.273  68.208  1.00  0.00    -0.619 OA 
HETATM   11  O   UNL     1     -11.301   8.830  70.593  1.00  0.00    -0.262 OA 
HETATM   12  H   UNL     1     -11.948  10.579  67.583  1.00  0.00     0.000 HD 
ENDBRANCH   5   8
ENDBRANCH   4   5
BRANCH   4  13
HETATM   13  O   UNL     1     -11.185  13.191  69.153  1.00  0.00    -0.262 OA 
BRANCH  13  14
HETATM   14  C   UNL     1     -10.913  14.409  68.439  1.00  0.00    -0.248 C  
HETATM   15  H   UNL     1     -10.980  12.955  64.720  1.00  0.00     0.000 HD 
HETATM   16  O   UNL     1     -12.392  13.760  66.547  1.00  0.00    -0.428 OA 
HETATM   17  C   UNL     1     -11.074  14.187  66.926  1.00  0.00    -0.307 C  
HETATM   18  O   UNL     1      -9.609  14.925  68.668  1.00  0.00    -0.208 OA 
HETATM   19  O   UNL     1     -10.090  13.132  65.004  1.00  0.00    -0.284 OA 
HETATM   20  C   UNL     1      -8.555  14.020  68.325  1.00  0.00    -0.180 C  
HETATM   21  H   UNL     1     -12.491  13.623  65.612  1.00  0.00     0.000 HD 
HETATM   22  C   UNL     1     -10.071  13.147  66.446  1.00  0.00    -0.281 C  
HETATM   23  C   UNL     1      -8.633  13.432  66.905  1.00  0.00    -0.100 C  
BRANCH  20  24
HETATM   24  C   UNL     1      -7.219  14.756  68.580  1.00  0.00    -0.115 C  
HETATM   25  O   UNL     1      -6.139  14.295  67.765  1.00  0.00    -0.181 OA 
HETATM   26  H   UNL     1      -5.318  14.748  67.922  1.00  0.00     0.000 HD 
ENDBRANCH  20  24
BRANCH  23  27
HETATM   27  O   UNL     1      -7.846  12.208  66.933  1.00  0.00    -0.146 OA 
BRANCH  27  28
HETATM   28  C   UNL     1      -8.108  11.389  68.079  1.00  0.00    -0.134 C  
HETATM   29  O   UNL     1      -9.131  10.446  67.797  1.00  0.00    -0.131 OA 
HETATM   30  C   UNL     1      -8.777   9.564  66.728  1.00  0.00    -0.127 C  
HETATM   31  C   UNL     1      -7.574   8.687  67.159  1.00  0.00    -0.092 C  
HETATM   32  C   UNL     1     -10.050   8.793  66.389  1.00  0.00    -0.313 C  
HETATM   33  C   UNL     1      -6.386   9.611  67.543  1.00  0.00    -0.064 C  
HETATM   34  H   UNL     1      -4.610   9.419  68.405  1.00  0.00     0.000 HD 
HETATM   35  C   UNL     1      -6.823  10.684  68.543  1.00  0.00    -0.065 C  
HETATM   36  O   UNL     1      -5.336   8.854  68.170  1.00  0.00    -0.034 OA 
HETATM   37  O   UNL     1      -5.752  11.619  68.763  1.00  0.00    -0.046 OA 
HETATM   38  H   UNL     1      -4.958  11.184  69.050  1.00  0.00     0.000 HD 
BRANCH  31  39
HETATM   39  N   UNL     1      -7.259   7.706  66.091  1.00  0.00    -0.069 NA 
HETATM   40  H   UNL     1      -7.009   7.998  65.146  1.00  0.00     0.000 HD 
BRANCH  39  41
HETATM   41  C   UNL     1      -7.331   6.267  66.482  1.00  0.00    -0.081 C  
HETATM   42  C   UNL     1      -9.390   5.390  67.665  1.00  0.00    -0.122 C  
HETATM   43  C   UNL     1      -8.260   6.099  67.646  1.00  0.00    -0.113 C  
HETATM   44  C   UNL     1      -9.815   4.559  66.485  1.00  0.00    -0.227 C  
HETATM   45  H   UNL     1      -8.502   5.873  63.423  1.00  0.00     0.000 HD 
HETATM   46  O   UNL     1      -8.258   6.363  64.200  1.00  0.00    -0.091 OA 
HETATM   47  C   UNL     1      -8.727   4.309  65.409  1.00  0.00    -0.123 C  
HETATM   48  O   UNL     1     -10.961   5.180  65.909  1.00  0.00    -0.714 OA 
HETATM   49  H   UNL     1      -7.327   2.961  65.061  1.00  0.00     0.000 HD 
HETATM   50  O   UNL     1      -7.994   3.114  65.720  1.00  0.00    -0.084 OA 
HETATM   51  C   UNL     1      -7.734   5.461  65.202  1.00  0.00    -0.086 C  
HETATM   52  H   UNL     1     -11.230   4.655  65.163  1.00  0.00     0.000 HD 
BRANCH  42  53
HETATM   53  C   UNL     1     -10.336   5.373  68.846  1.00  0.00    -0.190 C  
HETATM   54  O   UNL     1     -11.377   6.336  68.717  1.00  0.00    -0.500 OA 
HETATM   55  H   UNL     1     -11.971   6.325  69.458  1.00  0.00     0.000 HD 
ENDBRANCH  42  53
ENDBRANCH  39  41
ENDBRANCH  31  39
ENDBRANCH  27  28
ENDBRANCH  23  27
ENDBRANCH  13  14
ENDBRANCH   4  13
ENDBRANCH   1   4
BRANCH   1  56
HETATM   56  C   UNL     1     -12.540  15.702  70.652  1.00  0.00    -0.414 C  
HETATM   57  O   UNL     1     -11.513  16.539  71.191  1.00  0.00    -0.564 OA 
HETATM   58  H   UNL     1     -11.659  17.432  70.900  1.00  0.00     0.000 HD 
ENDBRANCH   1  56
TORSDOF 12
ENDMDL
MODEL       90
REMARK 921   NORMALIZED FREE ENERGY PREDICTED BY IDOCK:   -5.52 KCAL/MOL
REMARK 922        TOTAL FREE ENERGY PREDICTED BY IDOCK:  -12.59 KCAL/MOL
REMARK 923 INTER-LIGAND FREE ENERGY PREDICTED BY IDOCK:   -9.95 KCAL/MOL
REMARK 924 INTRA-LIGAND FREE ENERGY PREDICTED BY IDOCK:   -2.64 KCAL/MOL
REMARK 927      BINDING AFFINITY PREDICTED BY RF-SCORE:    0.00 PKD
ROOT
HETATM    1  C   UNL     1     -12.059  14.935  69.908  1.00  0.00    -0.332 C  
HETATM    2  H   UNL     1     -10.184  14.452  69.992  1.00  0.00     0.000 HD 
HETATM    3  O   UNL     1     -10.804  14.846  70.595  1.00  0.00    -0.150 OA 
ENDROOT
BRANCH   1   4
HETATM    4  C   UNL     1     -12.533  13.565  69.337  1.00  0.00     0.043 C  
BRANCH   4   5
HETATM    5  C   UNL     1     -12.048  12.356  70.196  1.00  0.00    -0.290 C  
HETATM    6  O   UNL     1     -10.664  12.060  69.954  1.00  0.00    -0.285 OA 
HETATM    7  H   UNL     1     -10.368  11.324  70.478  1.00  0.00     0.000 HD 
BRANCH   5   8
HETATM    8  C   UNL     1     -12.830  11.054  69.975  1.00  0.00     0.013 C  
HETATM    9  C   UNL     1     -12.521  10.038  71.052  1.00  0.00    -0.362 C  
HETATM   10  O   UNL     1     -12.428  10.513  68.707  1.00  0.00    -0.748 OA 
HETATM   11  O   UNL     1     -13.168   9.956  72.094  1.00  0.00    -0.438 OA 
HETATM   12  H   UNL     1     -12.912   9.707  68.570  1.00  0.00     0.000 HD 
ENDBRANCH   5   8
ENDBRANCH   4   5
BRANCH   4  13
HETATM   13  O   UNL     1     -12.133  13.366  67.959  1.00  0.00    -0.342 OA 
BRANCH  13  14
HETATM   14  C   UNL     1     -11.873  14.573  67.224  1.00  0.00    -0.392 C  
HETATM   15  H   UNL     1     -12.739  13.248  63.558  1.00  0.00     0.000 HD 
HETATM   16  O   UNL     1     -13.720  14.126  65.619  1.00  0.00    -0.540 OA 
HETATM   17  C   UNL     1     -12.320  14.415  65.761  1.00  0.00    -0.332 C  
HETATM   18  O   UNL     1     -10.505  14.956  67.222  1.00  0.00    -0.257 OA 
HETATM   19  O   UNL     1     -11.800  13.331  63.680  1.00  0.00    -0.473 OA 
HETATM   20  C   UNL     1      -9.622  13.967  66.684  1.00  0.00    -0.289 C  
HETATM   21  H   UNL     1     -13.996  14.028  64.715  1.00  0.00     0.000 HD 
HETATM   22  C   UNL     1     -11.526  13.299  65.096  1.00  0.00    -0.295 C  
HETATM   23  C   UNL     1     -10.008  13.432  65.293  1.00  0.00    -0.174 C  
BRANCH  20  24
HETATM   24  C   UNL     1      -8.196  14.564  66.706  1.00  0.00     0.080 C  
HETATM   25  O   UNL     1      -7.220  13.712  67.308  1.00  0.00    -0.316 OA 
HETATM   26  H   UNL     1      -6.344  14.080  67.321  1.00  0.00     0.000 HD 
ENDBRANCH  20  24
BRANCH  23  27
HETATM   27  O   UNL     1      -9.353  12.139  65.164  1.00  0.00    -0.016 OA 
BRANCH  27  28
HETATM   28  C   UNL     1     -10.251  11.031  65.297  1.00  0.00    -0.284 C  
HETATM   29  O   UNL     1     -10.262  10.250  64.111  1.00  0.00    -0.233 OA 
HETATM   30  C   UNL     1      -8.974   9.707  63.806  1.00  0.00    -0.217 C  
HETATM   31  C   UNL     1      -8.565   8.699  64.910  1.00  0.00    -0.135 C  
HETATM   32  C   UNL     1      -9.095   9.117  62.403  1.00  0.00    -0.053 C  
HETATM   33  C   UNL     1      -8.560   9.425  66.282  1.00  0.00    -0.131 C  
HETATM   34  H   UNL     1      -8.415   8.924  68.196  1.00  0.00     0.000 HD 
HETATM   35  C   UNL     1      -9.874  10.174  66.515  1.00  0.00    -0.212 C  
HETATM   36  O   UNL     1      -8.418   8.479  67.357  1.00  0.00    -0.125 OA 
HETATM   37  O   UNL     1      -9.787  10.963  67.715  1.00  0.00    -0.171 OA 
HETATM   38  H   UNL     1      -9.554  10.434  68.469  1.00  0.00     0.000 HD 
BRANCH  31  39
HETATM   39  N   UNL     1      -7.273   8.062  64.555  1.00  0.00    -0.080 NA 
HETATM   40  H   UNL     1      -6.502   8.594  64.149  1.00  0.00     0.000 HD 
BRANCH  39  41
HETATM   41  C   UNL     1      -7.167   6.599  64.826  1.00  0.00    -0.071 C  
HETATM   42  C   UNL     1      -9.252   5.164  64.796  1.00  0.00     0.051 C  
HETATM   43  C   UNL     1      -8.468   6.082  65.362  1.00  0.00    -0.145 C  
HETATM   44  C   UNL     1      -8.836   4.439  63.545  1.00  0.00    -0.131 C  
HETATM   45  H   UNL     1      -6.577   6.411  61.586  1.00  0.00     0.000 HD 
HETATM   46  O   UNL     1      -6.868   6.825  62.390  1.00  0.00    -0.045 OA 
HETATM   47  C   UNL     1      -7.340   4.569  63.157  1.00  0.00    -0.052 C  
HETATM   48  O   UNL     1      -9.673   4.889  62.484  1.00  0.00    -0.355 OA 
HETATM   49  H   UNL     1      -5.663   3.596  63.531  1.00  0.00     0.000 HD 
HETATM   50  O   UNL     1      -6.580   3.516  63.769  1.00  0.00    -0.033 OA 
HETATM   51  C   UNL     1      -6.689   5.917  63.501  1.00  0.00    -0.036 C  
HETATM   52  H   UNL     1      -9.410   4.431  61.694  1.00  0.00     0.000 HD 
BRANCH  42  53
HETATM   53  C   UNL     1     -10.613   4.788  65.340  1.00  0.00    -0.067 C  
HETATM   54  O   UNL     1     -11.238   5.869  66.024  1.00  0.00    -0.596 OA 
HETATM   55  H   UNL     1     -12.093   5.633  66.366  1.00  0.00     0.000 HD 
ENDBRANCH  42  53
ENDBRANCH  39  41
ENDBRANCH  31  39
ENDBRANCH  27  28
ENDBRANCH  23  27
ENDBRANCH  13  14
ENDBRANCH   4  13
ENDBRANCH   1   4
BRANCH   1  56
HETATM   56  C   UNL     1     -13.058  15.568  70.879  1.00  0.00    -0.448 C  
HETATM   57  O   UNL     1     -14.287  14.840  70.819  1.00  0.00    -0.487 OA 
HETATM   58  H   UNL     1     -14.908  15.233  71.422  1.00  0.00     0.000 HD 
ENDBRANCH   1  56
TORSDOF 12
ENDMDL
MODEL       91
REMARK 921   NORMALIZED FREE ENERGY PREDICTED BY IDOCK:   -5.51 KCAL/MOL
REMARK 922        TOTAL FREE ENERGY PREDICTED BY IDOCK:  -12.58 KCAL/MOL
REMARK 923 INTER-LIGAND FREE ENERGY PREDICTED BY IDOCK:  -11.44 KCAL/MOL
REMARK 924 INTRA-LIGAND FREE ENERGY PREDICTED BY IDOCK:   -1.14 KCAL/MOL
REMARK 927      BINDING AFFINITY PREDICTED BY RF-SCORE:    0.00 PKD
ROOT
HETATM    1  C   UNL     1      -7.826   6.445  68.192  1.00  0.00    -0.105 C  
HETATM    2  H   UNL     1      -7.783   4.632  68.878  1.00  0.00     0.000 HD 
HETATM    3  O   UNL     1      -7.138   5.318  68.751  1.00  0.00    -0.058 OA 
ENDROOT
BRANCH   1   4
HETATM    4  C   UNL     1      -9.046   6.893  69.051  1.00  0.00    -0.138 C  
BRANCH   4   5
HETATM    5  C   UNL     1     -10.291   5.972  68.851  1.00  0.00    -0.218 C  
HETATM    6  O   UNL     1      -9.955   4.587  69.028  1.00  0.00    -0.165 OA 
HETATM    7  H   UNL     1     -10.713   4.027  68.907  1.00  0.00     0.000 HD 
BRANCH   5   8
HETATM    8  C   UNL     1     -10.972   6.098  67.482  1.00  0.00    -0.307 C  
HETATM    9  C   UNL     1     -10.122   5.490  66.389  1.00  0.00    -0.182 C  
HETATM   10  O   UNL     1     -11.140   7.497  67.205  1.00  0.00    -0.538 OA 
HETATM   11  O   UNL     1     -10.219   4.312  66.048  1.00  0.00    -0.224 OA 
HETATM   12  H   UNL     1     -11.562   7.575  66.357  1.00  0.00     0.000 HD 
ENDBRANCH   5   8
ENDBRANCH   4   5
BRANCH   4  13
HETATM   13  O   UNL     1      -9.424   8.270  68.809  1.00  0.00    -0.147 OA 
BRANCH  13  14
HETATM   14  C   UNL     1      -9.264   9.147  69.936  1.00  0.00    -0.183 C  
HETATM   15  H   UNL     1     -13.056  10.341  70.314  1.00  0.00     0.000 HD 
HETATM   16  O   UNL     1     -11.492   8.543  70.863  1.00  0.00    -0.266 OA 
HETATM   17  C   UNL     1     -10.637   9.619  70.444  1.00  0.00    -0.295 C  
HETATM   18  O   UNL     1      -8.484  10.301  69.655  1.00  0.00    -0.169 OA 
HETATM   19  O   UNL     1     -12.518  11.025  69.932  1.00  0.00    -0.299 OA 
HETATM   20  C   UNL     1      -9.000  11.110  68.593  1.00  0.00    -0.162 C  
HETATM   21  H   UNL     1     -12.341   8.835  71.177  1.00  0.00     0.000 HD 
HETATM   22  C   UNL     1     -11.349  10.407  69.354  1.00  0.00    -0.250 C  
HETATM   23  C   UNL     1     -10.479  11.512  68.735  1.00  0.00    -0.204 C  
BRANCH  20  24
HETATM   24  C   UNL     1      -8.071  12.338  68.460  1.00  0.00    -0.101 C  
HETATM   25  O   UNL     1      -7.055  12.409  69.463  1.00  0.00    -0.330 OA 
HETATM   26  H   UNL     1      -6.484  13.164  69.381  1.00  0.00     0.000 HD 
ENDBRANCH  20  24
BRANCH  23  27
HETATM   27  O   UNL     1     -10.937  11.841  67.394  1.00  0.00    -0.233 OA 
BRANCH  27  28
HETATM   28  C   UNL     1     -12.083  12.701  67.378  1.00  0.00    -0.111 C  
HETATM   29  O   UNL     1     -12.022  13.634  68.447  1.00  0.00    -0.355 OA 
HETATM   30  C   UNL     1     -10.870  14.477  68.368  1.00  0.00    -0.243 C  
HETATM   31  C   UNL     1     -10.967  15.368  67.104  1.00  0.00    -0.317 C  
HETATM   32  C   UNL     1     -10.820  15.236  69.692  1.00  0.00    -0.294 C  
HETATM   33  C   UNL     1     -11.086  14.458  65.851  1.00  0.00    -0.319 C  
HETATM   34  H   UNL     1     -11.488  14.679  63.921  1.00  0.00     0.000 HD 
HETATM   35  C   UNL     1     -12.199  13.421  66.026  1.00  0.00    -0.437 C  
HETATM   36  O   UNL     1     -11.415  15.236  64.687  1.00  0.00    -0.406 OA 
HETATM   37  O   UNL     1     -12.187  12.494  64.926  1.00  0.00    -0.441 OA 
HETATM   38  H   UNL     1     -12.259  12.939  64.090  1.00  0.00     0.000 HD 
BRANCH  31  39
HETATM   39  N   UNL     1      -9.822  16.310  67.063  1.00  0.00    -0.239 NA 
HETATM   40  H   UNL     1      -9.015  16.153  66.459  1.00  0.00     0.000 HD 
BRANCH  39  41
HETATM   41  C   UNL     1      -9.920  17.500  67.958  1.00  0.00    -0.310 C  
HETATM   42  C   UNL     1      -7.901  18.993  68.284  1.00  0.00    -0.350 C  
HETATM   43  C   UNL     1      -8.563  17.853  68.489  1.00  0.00    -0.298 C  
HETATM   44  C   UNL     1      -8.527  20.142  67.542  1.00  0.00    -0.335 C  
HETATM   45  H   UNL     1     -11.017  19.002  65.234  1.00  0.00     0.000 HD 
HETATM   46  O   UNL     1     -10.593  18.312  65.731  1.00  0.00    -0.554 OA 
HETATM   47  C   UNL     1     -10.062  20.055  67.336  1.00  0.00    -0.428 C  
HETATM   48  O   UNL     1      -7.857  20.268  66.291  1.00  0.00    -0.433 OA 
HETATM   49  H   UNL     1     -11.682  20.617  68.315  1.00  0.00     0.000 HD 
HETATM   50  O   UNL     1     -10.742  20.671  68.442  1.00  0.00     0.102 OA 
HETATM   51  C   UNL     1     -10.617  18.637  67.139  1.00  0.00    -0.417 C  
HETATM   52  H   UNL     1      -8.253  20.993  65.823  1.00  0.00     0.000 HD 
BRANCH  42  53
HETATM   53  C   UNL     1      -6.481  19.221  68.754  1.00  0.00    -0.259 C  
HETATM   54  O   UNL     1      -6.106  20.593  68.690  1.00  0.00    -0.318 OA 
HETATM   55  H   UNL     1      -5.214  20.737  68.984  1.00  0.00     0.000 HD 
ENDBRANCH  42  53
ENDBRANCH  39  41
ENDBRANCH  31  39
ENDBRANCH  27  28
ENDBRANCH  23  27
ENDBRANCH  13  14
ENDBRANCH   4  13
ENDBRANCH   1   4
BRANCH   1  56
HETATM   56  C   UNL     1      -6.787   7.550  67.988  1.00  0.00    -0.067 C  
HETATM   57  O   UNL     1      -6.368   8.034  69.266  1.00  0.00    -0.034 OA 
HETATM   58  H   UNL     1      -5.722   8.720  69.140  1.00  0.00     0.000 HD 
ENDBRANCH   1  56
TORSDOF 12
ENDMDL
MODEL       92
REMARK 921   NORMALIZED FREE ENERGY PREDICTED BY IDOCK:   -5.50 KCAL/MOL
REMARK 922        TOTAL FREE ENERGY PREDICTED BY IDOCK:  -12.55 KCAL/MOL
REMARK 923 INTER-LIGAND FREE ENERGY PREDICTED BY IDOCK:  -10.41 KCAL/MOL
REMARK 924 INTRA-LIGAND FREE ENERGY PREDICTED BY IDOCK:   -2.14 KCAL/MOL
REMARK 927      BINDING AFFINITY PREDICTED BY RF-SCORE:    0.00 PKD
ROOT
HETATM    1  C   UNL     1     -11.268  13.900  64.957  1.00  0.00    -0.342 C  
HETATM    2  H   UNL     1      -9.825  14.554  66.074  1.00  0.00     0.000 HD 
HETATM    3  O   UNL     1     -10.532  14.958  65.584  1.00  0.00    -0.304 OA 
ENDROOT
BRANCH   1   4
HETATM    4  C   UNL     1     -11.754  12.820  65.970  1.00  0.00    -0.418 C  
BRANCH   4   5
HETATM    5  C   UNL     1     -12.141  13.427  67.356  1.00  0.00    -0.293 C  
HETATM    6  O   UNL     1     -12.387  14.839  67.261  1.00  0.00    -0.498 OA 
HETATM    7  H   UNL     1     -12.623  15.208  68.104  1.00  0.00     0.000 HD 
BRANCH   5   8
HETATM    8  C   UNL     1     -11.097  13.226  68.461  1.00  0.00    -0.265 C  
HETATM    9  C   UNL     1     -11.678  13.519  69.826  1.00  0.00    -0.295 C  
HETATM   10  O   UNL     1     -10.019  14.144  68.217  1.00  0.00    -0.228 OA 
HETATM   11  O   UNL     1     -12.212  12.657  70.521  1.00  0.00    -0.365 OA 
HETATM   12  H   UNL     1      -9.372  14.019  68.901  1.00  0.00     0.000 HD 
ENDBRANCH   5   8
ENDBRANCH   4   5
BRANCH   4  13
HETATM   13  O   UNL     1     -10.786  11.761  66.165  1.00  0.00    -0.270 OA 
BRANCH  13  14
HETATM   14  C   UNL     1      -9.575  11.901  65.404  1.00  0.00    -0.165 C  
HETATM   15  H   UNL     1      -9.051   8.074  64.392  1.00  0.00     0.000 HD 
HETATM   16  O   UNL     1     -10.246  10.123  63.799  1.00  0.00    -0.471 OA 
HETATM   17  C   UNL     1      -9.228  10.576  64.705  1.00  0.00    -0.235 C  
HETATM   18  O   UNL     1      -8.453  12.289  66.184  1.00  0.00     0.096 OA 
HETATM   19  O   UNL     1      -8.442   8.335  65.074  1.00  0.00    -0.166 OA 
HETATM   20  C   UNL     1      -8.146  11.390  67.254  1.00  0.00    -0.148 C  
HETATM   21  H   UNL     1     -10.032   9.304  63.367  1.00  0.00     0.000 HD 
HETATM   22  C   UNL     1      -8.986   9.490  65.744  1.00  0.00    -0.179 C  
HETATM   23  C   UNL     1      -8.003   9.912  66.847  1.00  0.00    -0.109 C  
BRANCH  20  24
HETATM   24  C   UNL     1      -6.878  11.928  67.956  1.00  0.00    -0.072 C  
HETATM   25  O   UNL     1      -5.740  11.073  67.832  1.00  0.00    -0.043 OA 
HETATM   26  H   UNL     1      -4.961  11.405  68.264  1.00  0.00     0.000 HD 
ENDBRANCH  20  24
BRANCH  23  27
HETATM   27  O   UNL     1      -8.221   9.138  68.060  1.00  0.00    -0.111 OA 
BRANCH  27  28
HETATM   28  C   UNL     1      -7.231   8.125  68.275  1.00  0.00    -0.093 C  
HETATM   29  O   UNL     1      -6.409   8.457  69.384  1.00  0.00    -0.037 OA 
HETATM   30  C   UNL     1      -7.155   8.573  70.598  1.00  0.00    -0.047 C  
HETATM   31  C   UNL     1      -7.744   7.190  70.975  1.00  0.00    -0.090 C  
HETATM   32  C   UNL     1      -6.190   9.166  71.622  1.00  0.00    -0.056 C  
HETATM   33  C   UNL     1      -8.639   6.686  69.810  1.00  0.00    -0.136 C  
HETATM   34  H   UNL     1      -9.561   5.005  69.301  1.00  0.00     0.000 HD 
HETATM   35  C   UNL     1      -7.895   6.754  68.474  1.00  0.00    -0.118 C  
HETATM   36  O   UNL     1      -9.014   5.313  70.014  1.00  0.00    -0.122 OA 
HETATM   37  O   UNL     1      -8.790   6.433  67.394  1.00  0.00    -0.107 OA 
HETATM   38  H   UNL     1      -9.200   5.586  67.516  1.00  0.00     0.000 HD 
BRANCH  31  39
HETATM   39  N   UNL     1      -8.443   7.280  72.281  1.00  0.00    -0.115 NA 
HETATM   40  H   UNL     1      -8.163   6.716  73.083  1.00  0.00     0.000 HD 
BRANCH  39  41
HETATM   41  C   UNL     1      -9.578   8.246  72.351  1.00  0.00    -0.294 C  
HETATM   42  C   UNL     1     -10.872   8.814  70.251  1.00  0.00    -0.252 C  
HETATM   43  C   UNL     1      -9.782   8.894  71.015  1.00  0.00    -0.320 C  
HETATM   44  C   UNL     1     -12.114   8.111  70.727  1.00  0.00    -0.062 C  
HETATM   45  H   UNL     1     -11.335   5.562  73.118  1.00  0.00     0.000 HD 
HETATM   46  O   UNL     1     -10.582   6.038  72.789  1.00  0.00    -0.203 OA 
HETATM   47  C   UNL     1     -12.170   7.793  72.243  1.00  0.00    -0.256 C  
HETATM   48  O   UNL     1     -12.262   6.922  69.956  1.00  0.00    -0.640 OA 
HETATM   49  H   UNL     1     -12.804   8.692  73.883  1.00  0.00     0.000 HD 
HETATM   50  O   UNL     1     -12.770   8.888  72.954  1.00  0.00    -0.301 OA 
HETATM   51  C   UNL     1     -10.819   7.461  72.893  1.00  0.00    -0.354 C  
HETATM   52  H   UNL     1     -13.046   6.478  70.257  1.00  0.00     0.000 HD 
BRANCH  42  53
HETATM   53  C   UNL     1     -10.951   9.397  68.857  1.00  0.00    -0.050 C  
HETATM   54  O   UNL     1     -11.219   8.404  67.872  1.00  0.00    -0.346 OA 
HETATM   55  H   UNL     1     -11.268   8.770  66.996  1.00  0.00     0.000 HD 
ENDBRANCH  42  53
ENDBRANCH  39  41
ENDBRANCH  31  39
ENDBRANCH  27  28
ENDBRANCH  23  27
ENDBRANCH  13  14
ENDBRANCH   4  13
ENDBRANCH   1   4
BRANCH   1  56
HETATM   56  C   UNL     1     -12.407  14.551  64.169  1.00  0.00    -0.286 C  
HETATM   57  O   UNL     1     -12.014  15.874  63.794  1.00  0.00    -1.238 OA 
HETATM   58  H   UNL     1     -12.720  16.278  63.304  1.00  0.00     0.000 HD 
ENDBRANCH   1  56
TORSDOF 12
ENDMDL
MODEL       93
REMARK 921   NORMALIZED FREE ENERGY PREDICTED BY IDOCK:   -5.49 KCAL/MOL
REMARK 922        TOTAL FREE ENERGY PREDICTED BY IDOCK:  -12.54 KCAL/MOL
REMARK 923 INTER-LIGAND FREE ENERGY PREDICTED BY IDOCK:  -10.80 KCAL/MOL
REMARK 924 INTRA-LIGAND FREE ENERGY PREDICTED BY IDOCK:   -1.73 KCAL/MOL
REMARK 927      BINDING AFFINITY PREDICTED BY RF-SCORE:    0.00 PKD
ROOT
HETATM    1  C   UNL     1      -9.514  17.111  67.444  1.00  0.00    -0.247 C  
HETATM    2  H   UNL     1     -10.524  17.486  69.055  1.00  0.00     0.000 HD 
HETATM    3  O   UNL     1     -10.669  17.616  68.125  1.00  0.00    -0.375 OA 
ENDROOT
BRANCH   1   4
HETATM    4  C   UNL     1      -9.189  15.634  67.820  1.00  0.00    -0.193 C  
BRANCH   4   5
HETATM    5  C   UNL     1      -7.662  15.390  68.032  1.00  0.00    -0.125 C  
HETATM    6  O   UNL     1      -7.171  14.350  67.172  1.00  0.00    -0.303 OA 
HETATM    7  H   UNL     1      -6.242  14.201  67.301  1.00  0.00     0.000 HD 
BRANCH   5   8
HETATM    8  C   UNL     1      -7.263  15.014  69.465  1.00  0.00    -0.199 C  
HETATM    9  C   UNL     1      -5.847  15.447  69.772  1.00  0.00    -0.135 C  
HETATM   10  O   UNL     1      -7.339  13.584  69.578  1.00  0.00    -0.317 OA 
HETATM   11  O   UNL     1      -5.577  16.545  70.253  1.00  0.00    -0.193 OA 
HETATM   12  H   UNL     1      -7.092  13.351  70.466  1.00  0.00     0.000 HD 
ENDBRANCH   5   8
ENDBRANCH   4   5
BRANCH   4  13
HETATM   13  O   UNL     1      -9.697  14.686  66.849  1.00  0.00    -0.228 OA 
BRANCH  13  14
HETATM   14  C   UNL     1     -11.121  14.719  66.660  1.00  0.00    -0.333 C  
HETATM   15  H   UNL     1     -12.144  11.884  69.281  1.00  0.00     0.000 HD 
HETATM   16  O   UNL     1     -11.563  14.249  69.063  1.00  0.00    -0.266 OA 
HETATM   17  C   UNL     1     -11.819  13.839  67.711  1.00  0.00    -0.369 C  
HETATM   18  O   UNL     1     -11.536  14.276  65.376  1.00  0.00    -0.329 OA 
HETATM   19  O   UNL     1     -12.211  11.566  68.388  1.00  0.00    -0.540 OA 
HETATM   20  C   UNL     1     -11.125  12.944  65.056  1.00  0.00    -0.292 C  
HETATM   21  H   UNL     1     -11.994  13.705  69.712  1.00  0.00     0.000 HD 
HETATM   22  C   UNL     1     -11.374  12.392  67.551  1.00  0.00    -0.315 C  
HETATM   23  C   UNL     1     -11.483  11.878  66.107  1.00  0.00    -0.288 C  
BRANCH  20  24
HETATM   24  C   UNL     1     -11.703  12.607  63.663  1.00  0.00    -0.522 C  
HETATM   25  O   UNL     1     -12.402  13.691  63.047  1.00  0.00    -1.041 OA 
HETATM   26  H   UNL     1     -12.757  13.483  62.191  1.00  0.00     0.000 HD 
ENDBRANCH  20  24
BRANCH  23  27
HETATM   27  O   UNL     1     -10.569  10.768  65.883  1.00  0.00    -0.225 OA 
BRANCH  27  28
HETATM   28  C   UNL     1      -9.811  10.410  67.045  1.00  0.00    -0.191 C  
HETATM   29  O   UNL     1     -10.252   9.164  67.565  1.00  0.00    -0.212 OA 
HETATM   30  C   UNL     1     -10.098   8.098  66.625  1.00  0.00    -0.273 C  
HETATM   31  C   UNL     1      -8.591   7.870  66.344  1.00  0.00    -0.147 C  
HETATM   32  C   UNL     1     -10.831   6.904  67.230  1.00  0.00    -0.426 C  
HETATM   33  C   UNL     1      -7.971   9.189  65.807  1.00  0.00    -0.103 C  
HETATM   34  H   UNL     1      -6.158   9.899  65.429  1.00  0.00     0.000 HD 
HETATM   35  C   UNL     1      -8.310  10.370  66.719  1.00  0.00    -0.126 C  
HETATM   36  O   UNL     1      -6.537   9.092  65.757  1.00  0.00    -0.067 OA 
HETATM   37  O   UNL     1      -7.861  11.600  66.122  1.00  0.00    -0.375 OA 
HETATM   38  H   UNL     1      -6.933  11.575  65.921  1.00  0.00     0.000 HD 
BRANCH  31  39
HETATM   39  N   UNL     1      -8.418   6.706  65.441  1.00  0.00    -0.246 NA 
HETATM   40  H   UNL     1      -8.922   6.629  64.557  1.00  0.00     0.000 HD 
BRANCH  39  41
HETATM   41  C   UNL     1      -7.465   5.654  65.902  1.00  0.00    -0.078 C  
HETATM   42  C   UNL     1      -7.839   4.515  68.132  1.00  0.00    -0.080 C  
HETATM   43  C   UNL     1      -7.482   5.570  67.399  1.00  0.00    -0.084 C  
HETATM   44  C   UNL     1      -8.183   3.196  67.494  1.00  0.00    -0.081 C  
HETATM   45  H   UNL     1      -9.413   3.641  64.160  1.00  0.00     0.000 HD 
HETATM   46  O   UNL     1      -9.178   4.447  64.606  1.00  0.00    -0.150 OA 
HETATM   47  C   UNL     1      -7.777   3.041  66.006  1.00  0.00    -0.078 C  
HETATM   48  O   UNL     1      -9.582   2.985  67.660  1.00  0.00    -0.298 OA 
HETATM   49  H   UNL     1      -6.201   2.408  64.999  1.00  0.00     0.000 HD 
HETATM   50  O   UNL     1      -6.449   2.503  65.911  1.00  0.00    -0.027 OA 
HETATM   51  C   UNL     1      -7.852   4.327  65.169  1.00  0.00    -0.086 C  
HETATM   52  H   UNL     1      -9.799   2.153  67.257  1.00  0.00     0.000 HD 
BRANCH  42  53
HETATM   53  C   UNL     1      -7.947   4.553  69.641  1.00  0.00    -0.061 C  
HETATM   54  O   UNL     1      -9.290   4.406  70.089  1.00  0.00    -0.122 OA 
HETATM   55  H   UNL     1      -9.358   4.430  71.037  1.00  0.00     0.000 HD 
ENDBRANCH  42  53
ENDBRANCH  39  41
ENDBRANCH  31  39
ENDBRANCH  27  28
ENDBRANCH  23  27
ENDBRANCH  13  14
ENDBRANCH   4  13
ENDBRANCH   1   4
BRANCH   1  56
HETATM   56  C   UNL     1      -9.748  17.321  65.946  1.00  0.00    -0.086 C  
HETATM   57  O   UNL     1     -10.609  18.448  65.765  1.00  0.00    -0.570 OA 
HETATM   58  H   UNL     1     -10.754  18.578  64.835  1.00  0.00     0.000 HD 
ENDBRANCH   1  56
TORSDOF 12
ENDMDL
MODEL       94
REMARK 921   NORMALIZED FREE ENERGY PREDICTED BY IDOCK:   -5.47 KCAL/MOL
REMARK 922        TOTAL FREE ENERGY PREDICTED BY IDOCK:  -12.50 KCAL/MOL
REMARK 923 INTER-LIGAND FREE ENERGY PREDICTED BY IDOCK:   -9.67 KCAL/MOL
REMARK 924 INTRA-LIGAND FREE ENERGY PREDICTED BY IDOCK:   -2.83 KCAL/MOL
REMARK 927      BINDING AFFINITY PREDICTED BY RF-SCORE:    0.00 PKD
ROOT
HETATM    1  C   UNL     1     -11.388  12.375  63.894  1.00  0.00    -0.433 C  
HETATM    2  H   UNL     1     -13.230  12.913  63.612  1.00  0.00     0.000 HD 
HETATM    3  O   UNL     1     -12.744  12.101  63.515  1.00  0.00    -0.718 OA 
ENDROOT
BRANCH   1   4
HETATM    4  C   UNL     1     -11.274  13.001  65.316  1.00  0.00    -0.289 C  
BRANCH   4   5
HETATM    5  C   UNL     1     -11.879  14.438  65.391  1.00  0.00    -0.366 C  
HETATM    6  O   UNL     1     -13.264  14.447  65.013  1.00  0.00    -0.562 OA 
HETATM    7  H   UNL     1     -13.632  15.321  65.059  1.00  0.00     0.000 HD 
BRANCH   5   8
HETATM    8  C   UNL     1     -11.169  15.481  64.517  1.00  0.00    -0.315 C  
HETATM    9  C   UNL     1     -10.589  16.597  65.356  1.00  0.00    -0.237 C  
HETATM   10  O   UNL     1     -12.145  16.040  63.624  1.00  0.00    -1.285 OA 
HETATM   11  O   UNL     1      -9.446  16.565  65.807  1.00  0.00    -0.484 OA 
HETATM   12  H   UNL     1     -11.705  16.685  63.083  1.00  0.00     0.000 HD 
ENDBRANCH   5   8
ENDBRANCH   4   5
BRANCH   4  13
HETATM   13  O   UNL     1      -9.912  13.027  65.807  1.00  0.00    -0.279 OA 
BRANCH  13  14
HETATM   14  C   UNL     1      -9.779  13.326  67.207  1.00  0.00    -0.231 C  
HETATM   15  H   UNL     1      -5.833  12.820  67.561  1.00  0.00     0.000 HD 
HETATM   16  O   UNL     1      -7.563  14.408  66.879  1.00  0.00    -0.293 OA 
HETATM   17  C   UNL     1      -8.294  13.401  67.598  1.00  0.00    -0.179 C  
HETATM   18  O   UNL     1     -10.404  12.373  68.055  1.00  0.00    -0.204 OA 
HETATM   19  O   UNL     1      -6.309  12.091  67.943  1.00  0.00    -0.060 OA 
HETATM   20  C   UNL     1      -9.922  11.036  67.887  1.00  0.00    -0.174 C  
HETATM   21  H   UNL     1      -6.645  14.455  67.121  1.00  0.00     0.000 HD 
HETATM   22  C   UNL     1      -7.626  12.055  67.356  1.00  0.00    -0.151 C  
HETATM   23  C   UNL     1      -8.394  10.876  67.974  1.00  0.00    -0.122 C  
BRANCH  20  24
HETATM   24  C   UNL     1     -10.662  10.150  68.916  1.00  0.00    -0.223 C  
HETATM   25  O   UNL     1     -10.959   8.836  68.441  1.00  0.00    -0.450 OA 
HETATM   26  H   UNL     1     -11.414   8.291  69.073  1.00  0.00     0.000 HD 
ENDBRANCH  20  24
BRANCH  23  27
HETATM   27  O   UNL     1      -8.080   9.634  67.283  1.00  0.00    -0.109 OA 
BRANCH  27  28
HETATM   28  C   UNL     1      -6.785   9.114  67.607  1.00  0.00    -0.069 C  
HETATM   29  O   UNL     1      -6.620   9.024  69.014  1.00  0.00    -0.047 OA 
HETATM   30  C   UNL     1      -7.580   8.155  69.620  1.00  0.00    -0.099 C  
HETATM   31  C   UNL     1      -7.346   6.704  69.127  1.00  0.00    -0.093 C  
HETATM   32  C   UNL     1      -7.431   8.358  71.126  1.00  0.00    -0.084 C  
HETATM   33  C   UNL     1      -7.456   6.672  67.578  1.00  0.00    -0.097 C  
HETATM   34  H   UNL     1      -7.082   5.384  66.116  1.00  0.00     0.000 HD 
HETATM   35  C   UNL     1      -6.571   7.746  66.940  1.00  0.00    -0.059 C  
HETATM   36  O   UNL     1      -7.016   5.403  67.064  1.00  0.00    -0.062 OA 
HETATM   37  O   UNL     1      -6.806   7.802  65.522  1.00  0.00    -0.051 OA 
HETATM   38  H   UNL     1      -6.673   6.957  65.110  1.00  0.00     0.000 HD 
BRANCH  31  39
HETATM   39  N   UNL     1      -8.279   5.781  69.820  1.00  0.00    -0.106 NA 
HETATM   40  H   UNL     1      -9.290   5.847  69.704  1.00  0.00     0.000 HD 
BRANCH  39  41
HETATM   41  C   UNL     1      -7.649   4.751  70.697  1.00  0.00    -0.058 C  
HETATM   42  C   UNL     1      -8.837   4.004  72.805  1.00  0.00    -0.111 C  
HETATM   43  C   UNL     1      -8.146   4.904  72.103  1.00  0.00    -0.111 C  
HETATM   44  C   UNL     1      -9.114   2.629  72.260  1.00  0.00    -0.084 C  
HETATM   45  H   UNL     1      -9.171   2.631  68.679  1.00  0.00     0.000 HD 
HETATM   46  O   UNL     1      -8.996   3.478  69.072  1.00  0.00    -0.100 OA 
HETATM   47  C   UNL     1      -8.281   2.215  71.019  1.00  0.00    -0.049 C  
HETATM   48  O   UNL     1     -10.509   2.545  71.982  1.00  0.00    -0.053 OA 
HETATM   49  H   UNL     1      -6.554   1.323  70.675  1.00  0.00     0.000 HD 
HETATM   50  O   UNL     1      -7.063   1.577  71.435  1.00  0.00    -0.030 OA 
HETATM   51  C   UNL     1      -7.938   3.355  70.050  1.00  0.00    -0.046 C  
HETATM   52  H   UNL     1     -10.683   1.677  71.638  1.00  0.00     0.000 HD 
BRANCH  42  53
HETATM   53  C   UNL     1      -9.409   4.286  74.177  1.00  0.00    -0.105 C  
HETATM   54  O   UNL     1     -10.669   4.946  74.111  1.00  0.00    -0.289 OA 
HETATM   55  H   UNL     1     -11.028   5.124  74.972  1.00  0.00     0.000 HD 
ENDBRANCH  42  53
ENDBRANCH  39  41
ENDBRANCH  31  39
ENDBRANCH  27  28
ENDBRANCH  23  27
ENDBRANCH  13  14
ENDBRANCH   4  13
ENDBRANCH   1   4
BRANCH   1  56
HETATM   56  C   UNL     1     -10.606  11.069  63.739  1.00  0.00    -0.295 C  
HETATM   57  O   UNL     1      -9.224  11.377  63.540  1.00  0.00    -0.409 OA 
HETATM   58  H   UNL     1      -8.738  10.566  63.444  1.00  0.00     0.000 HD 
ENDBRANCH   1  56
TORSDOF 12
ENDMDL
MODEL       95
REMARK 921   NORMALIZED FREE ENERGY PREDICTED BY IDOCK:   -5.47 KCAL/MOL
REMARK 922        TOTAL FREE ENERGY PREDICTED BY IDOCK:  -12.50 KCAL/MOL
REMARK 923 INTER-LIGAND FREE ENERGY PREDICTED BY IDOCK:   -9.83 KCAL/MOL
REMARK 924 INTRA-LIGAND FREE ENERGY PREDICTED BY IDOCK:   -2.67 KCAL/MOL
REMARK 927      BINDING AFFINITY PREDICTED BY RF-SCORE:    0.00 PKD
ROOT
HETATM    1  C   UNL     1     -11.242  12.438  63.974  1.00  0.00    -0.396 C  
HETATM    2  H   UNL     1     -13.092  12.955  63.708  1.00  0.00     0.000 HD 
HETATM    3  O   UNL     1     -12.588  12.162  63.565  1.00  0.00    -0.647 OA 
ENDROOT
BRANCH   1   4
HETATM    4  C   UNL     1     -11.154  12.975  65.434  1.00  0.00    -0.275 C  
BRANCH   4   5
HETATM    5  C   UNL     1     -11.733  14.418  65.580  1.00  0.00    -0.352 C  
HETATM    6  O   UNL     1     -13.156  14.435  65.391  1.00  0.00    -0.604 OA 
HETATM    7  H   UNL     1     -13.509  15.312  65.480  1.00  0.00     0.000 HD 
BRANCH   5   8
HETATM    8  C   UNL     1     -11.139  15.450  64.613  1.00  0.00    -0.347 C  
HETATM    9  C   UNL     1     -10.601  16.652  65.356  1.00  0.00    -0.237 C  
HETATM   10  O   UNL     1     -12.193  15.887  63.740  1.00  0.00    -1.213 OA 
HETATM   11  O   UNL     1      -9.438  16.725  65.749  1.00  0.00    -0.507 OA 
HETATM   12  H   UNL     1     -11.825  16.526  63.141  1.00  0.00     0.000 HD 
ENDBRANCH   5   8
ENDBRANCH   4   5
BRANCH   4  13
HETATM   13  O   UNL     1      -9.805  12.945  65.960  1.00  0.00    -0.267 OA 
BRANCH  13  14
HETATM   14  C   UNL     1      -9.697  13.222  67.366  1.00  0.00    -0.221 C  
HETATM   15  H   UNL     1      -5.741  13.720  67.583  1.00  0.00     0.000 HD 
HETATM   16  O   UNL     1      -7.840  14.840  67.017  1.00  0.00    -0.293 OA 
HETATM   17  C   UNL     1      -8.265  13.659  67.716  1.00  0.00    -0.179 C  
HETATM   18  O   UNL     1     -10.030  12.117  68.193  1.00  0.00    -0.191 OA 
HETATM   19  O   UNL     1      -6.002  12.883  67.949  1.00  0.00    -0.095 OA 
HETATM   20  C   UNL     1      -9.234  10.951  67.958  1.00  0.00    -0.156 C  
HETATM   21  H   UNL     1      -6.954  15.109  67.233  1.00  0.00     0.000 HD 
HETATM   22  C   UNL     1      -7.289  12.533  67.401  1.00  0.00    -0.147 C  
HETATM   23  C   UNL     1      -7.712  11.179  67.993  1.00  0.00    -0.107 C  
BRANCH  20  24
HETATM   24  C   UNL     1      -9.686   9.874  68.971  1.00  0.00    -0.193 C  
HETATM   25  O   UNL     1      -9.837  10.361  70.306  1.00  0.00    -0.377 OA 
HETATM   26  H   UNL     1     -10.115   9.699  70.928  1.00  0.00     0.000 HD 
ENDBRANCH  20  24
BRANCH  23  27
HETATM   27  O   UNL     1      -7.123  10.080  67.243  1.00  0.00    -0.083 OA 
BRANCH  27  28
HETATM   28  C   UNL     1      -5.770   9.795  67.620  1.00  0.00    -0.039 C  
HETATM   29  O   UNL     1      -5.642   9.754  69.033  1.00  0.00    -0.036 OA 
HETATM   30  C   UNL     1      -6.459   8.741  69.624  1.00  0.00    -0.039 C  
HETATM   31  C   UNL     1      -5.963   7.345  69.167  1.00  0.00    -0.030 C  
HETATM   32  C   UNL     1      -6.401   8.987  71.129  1.00  0.00    -0.065 C  
HETATM   33  C   UNL     1      -6.010   7.274  67.616  1.00  0.00    -0.034 C  
HETATM   34  H   UNL     1      -5.370   6.050  66.193  1.00  0.00     0.000 HD 
HETATM   35  C   UNL     1      -5.300   8.475  66.987  1.00  0.00    -0.037 C  
HETATM   36  O   UNL     1      -5.341   6.093  67.141  1.00  0.00    -0.005 OA 
HETATM   37  O   UNL     1      -5.491   8.470  65.561  1.00  0.00    -0.035 OA 
HETATM   38  H   UNL     1      -5.201   7.655  65.170  1.00  0.00     0.000 HD 
BRANCH  31  39
HETATM   39  N   UNL     1      -6.747   6.285  69.847  1.00  0.00    -0.054 NA 
HETATM   40  H   UNL     1      -6.339   5.690  70.569  1.00  0.00     0.000 HD 
BRANCH  39  41
HETATM   41  C   UNL     1      -8.168   6.141  69.414  1.00  0.00    -0.113 C  
HETATM   42  C   UNL     1      -9.216   3.839  69.301  1.00  0.00    -0.228 C  
HETATM   43  C   UNL     1      -8.389   4.776  68.835  1.00  0.00    -0.084 C  
HETATM   44  C   UNL     1     -10.135   4.110  70.461  1.00  0.00     0.004 C  
HETATM   45  H   UNL     1      -8.811   6.652  72.609  1.00  0.00     0.000 HD 
HETATM   46  O   UNL     1      -8.267   6.447  71.858  1.00  0.00    -0.109 OA 
HETATM   47  C   UNL     1     -10.308   5.601  70.849  1.00  0.00    -0.238 C  
HETATM   48  O   UNL     1      -9.668   3.351  71.572  1.00  0.00    -0.154 OA 
HETATM   49  H   UNL     1     -11.509   7.090  70.356  1.00  0.00     0.000 HD 
HETATM   50  O   UNL     1     -11.403   6.176  70.118  1.00  0.00    -0.382 OA 
HETATM   51  C   UNL     1      -9.064   6.479  70.652  1.00  0.00    -0.148 C  
HETATM   52  H   UNL     1     -10.249   3.522  72.304  1.00  0.00     0.000 HD 
BRANCH  42  53
HETATM   53  C   UNL     1      -9.288   2.440  68.730  1.00  0.00    -0.163 C  
HETATM   54  O   UNL     1      -8.886   2.393  67.365  1.00  0.00    -0.112 OA 
HETATM   55  H   UNL     1      -8.932   1.515  67.005  1.00  0.00     0.000 HD 
ENDBRANCH  42  53
ENDBRANCH  39  41
ENDBRANCH  31  39
ENDBRANCH  27  28
ENDBRANCH  23  27
ENDBRANCH  13  14
ENDBRANCH   4  13
ENDBRANCH   1   4
BRANCH   1  56
HETATM   56  C   UNL     1     -10.432  11.160  63.745  1.00  0.00    -0.381 C  
HETATM   57  O   UNL     1      -9.065  11.513  63.517  1.00  0.00    -0.460 OA 
HETATM   58  H   UNL     1      -8.562  10.720  63.375  1.00  0.00     0.000 HD 
ENDBRANCH   1  56
TORSDOF 12
ENDMDL
MODEL       96
REMARK 921   NORMALIZED FREE ENERGY PREDICTED BY IDOCK:   -5.46 KCAL/MOL
REMARK 922        TOTAL FREE ENERGY PREDICTED BY IDOCK:  -12.48 KCAL/MOL
REMARK 923 INTER-LIGAND FREE ENERGY PREDICTED BY IDOCK:   -9.16 KCAL/MOL
REMARK 924 INTRA-LIGAND FREE ENERGY PREDICTED BY IDOCK:   -3.33 KCAL/MOL
REMARK 927      BINDING AFFINITY PREDICTED BY RF-SCORE:    0.00 PKD
ROOT
HETATM    1  C   UNL     1     -10.896   8.033  69.866  1.00  0.00    -0.217 C  
HETATM    2  H   UNL     1      -9.913   9.555  70.556  1.00  0.00     0.000 HD 
HETATM    3  O   UNL     1     -10.389   8.830  70.945  1.00  0.00    -0.199 OA 
ENDROOT
BRANCH   1   4
HETATM    4  C   UNL     1      -9.783   7.583  68.874  1.00  0.00    -0.151 C  
BRANCH   4   5
HETATM    5  C   UNL     1      -8.663   6.745  69.567  1.00  0.00    -0.133 C  
HETATM    6  O   UNL     1      -7.513   7.550  69.866  1.00  0.00    -0.080 OA 
HETATM    7  H   UNL     1      -6.831   7.040  70.288  1.00  0.00     0.000 HD 
BRANCH   5   8
HETATM    8  C   UNL     1      -8.169   5.538  68.759  1.00  0.00    -0.102 C  
HETATM    9  C   UNL     1      -8.339   4.251  69.535  1.00  0.00    -0.062 C  
HETATM   10  O   UNL     1      -6.771   5.731  68.495  1.00  0.00    -0.053 OA 
HETATM   11  O   UNL     1      -9.355   3.562  69.466  1.00  0.00    -0.148 OA 
HETATM   12  H   UNL     1      -6.465   4.984  67.994  1.00  0.00     0.000 HD 
ENDBRANCH   5   8
ENDBRANCH   4   5
BRANCH   4  13
HETATM   13  O   UNL     1      -9.182   8.694  68.166  1.00  0.00    -0.137 OA 
BRANCH  13  14
HETATM   14  C   UNL     1      -8.853   8.429  66.792  1.00  0.00    -0.138 C  
HETATM   15  H   UNL     1      -5.478  10.552  66.560  1.00  0.00     0.000 HD 
HETATM   16  O   UNL     1      -6.411   8.405  67.267  1.00  0.00    -0.055 OA 
HETATM   17  C   UNL     1      -7.454   8.978  66.463  1.00  0.00    -0.089 C  
HETATM   18  O   UNL     1      -9.771   8.993  65.866  1.00  0.00    -0.271 OA 
HETATM   19  O   UNL     1      -6.193  10.995  66.118  1.00  0.00    -0.130 OA 
HETATM   20  C   UNL     1      -9.910  10.413  65.973  1.00  0.00    -0.232 C  
HETATM   21  H   UNL     1      -5.547   8.745  67.064  1.00  0.00     0.000 HD 
HETATM   22  C   UNL     1      -7.435  10.489  66.651  1.00  0.00    -0.120 C  
HETATM   23  C   UNL     1      -8.591  11.205  65.936  1.00  0.00    -0.135 C  
BRANCH  20  24
HETATM   24  C   UNL     1     -10.893  10.862  64.867  1.00  0.00    -0.080 C  
HETATM   25  O   UNL     1     -11.417  12.177  65.056  1.00  0.00    -0.325 OA 
HETATM   26  H   UNL     1     -12.020  12.453  64.375  1.00  0.00     0.000 HD 
ENDBRANCH  20  24
BRANCH  23  27
HETATM   27  O   UNL     1      -8.874  12.487  66.564  1.00  0.00    -0.185 OA 
BRANCH  27  28
HETATM   28  C   UNL     1      -8.990  12.409  67.990  1.00  0.00    -0.194 C  
HETATM   29  O   UNL     1      -7.785  12.827  68.613  1.00  0.00    -0.124 OA 
HETATM   30  C   UNL     1      -7.451  14.181  68.297  1.00  0.00    -0.125 C  
HETATM   31  C   UNL     1      -8.523  15.129  68.891  1.00  0.00    -0.199 C  
HETATM   32  C   UNL     1      -6.035  14.393  68.828  1.00  0.00    -0.084 C  
HETATM   33  C   UNL     1      -9.914  14.744  68.317  1.00  0.00    -0.222 C  
HETATM   34  H   UNL     1     -11.812  15.202  68.664  1.00  0.00     0.000 HD 
HETATM   35  C   UNL     1     -10.182  13.246  68.481  1.00  0.00    -0.220 C  
HETATM   36  O   UNL     1     -10.962  15.438  69.016  1.00  0.00    -0.228 OA 
HETATM   37  O   UNL     1     -11.400  12.886  67.805  1.00  0.00    -0.264 OA 
HETATM   38  H   UNL     1     -12.137  13.402  68.109  1.00  0.00     0.000 HD 
BRANCH  31  39
HETATM   39  N   UNL     1      -8.136  16.541  68.648  1.00  0.00    -0.221 NA 
HETATM   40  H   UNL     1      -7.978  17.197  69.412  1.00  0.00     0.000 HD 
BRANCH  39  41
HETATM   41  C   UNL     1      -7.992  16.943  67.218  1.00  0.00    -0.174 C  
HETATM   42  C   UNL     1      -9.148  19.035  66.382  1.00  0.00    -0.339 C  
HETATM   43  C   UNL     1      -9.171  17.768  66.798  1.00  0.00    -0.281 C  
HETATM   44  C   UNL     1      -7.852  19.773  66.185  1.00  0.00    -0.335 C  
HETATM   45  H   UNL     1      -5.273  18.466  68.300  1.00  0.00     0.000 HD 
HETATM   46  O   UNL     1      -6.113  18.030  68.385  1.00  0.00    -0.172 OA 
HETATM   47  C   UNL     1      -6.574  18.895  66.163  1.00  0.00    -0.219 C  
HETATM   48  O   UNL     1      -7.761  20.770  67.199  1.00  0.00    -0.448 OA 
HETATM   49  H   UNL     1      -5.510  17.932  64.807  1.00  0.00     0.000 HD 
HETATM   50  O   UNL     1      -6.293  18.469  64.820  1.00  0.00    -0.431 OA 
HETATM   51  C   UNL     1      -6.609  17.662  67.078  1.00  0.00    -0.167 C  
HETATM   52  H   UNL     1      -6.942  21.235  67.075  1.00  0.00     0.000 HD 
BRANCH  42  53
HETATM   53  C   UNL     1     -10.400  19.835  66.095  1.00  0.00    -0.524 C  
HETATM   54  O   UNL     1     -11.275  19.889  67.217  1.00  0.00    -0.192 OA 
HETATM   55  H   UNL     1     -12.062  20.391  67.036  1.00  0.00     0.000 HD 
ENDBRANCH  42  53
ENDBRANCH  39  41
ENDBRANCH  31  39
ENDBRANCH  27  28
ENDBRANCH  23  27
ENDBRANCH  13  14
ENDBRANCH   4  13
ENDBRANCH   1   4
BRANCH   1  56
HETATM   56  C   UNL     1     -11.663   6.865  70.492  1.00  0.00    -0.350 C  
HETATM   57  O   UNL     1     -13.018   7.265  70.710  1.00  0.00    -0.604 OA 
HETATM   58  H   UNL     1     -13.495   6.540  71.099  1.00  0.00     0.000 HD 
ENDBRANCH   1  56
TORSDOF 12
ENDMDL
MODEL       97
REMARK 921   NORMALIZED FREE ENERGY PREDICTED BY IDOCK:   -5.46 KCAL/MOL
REMARK 922        TOTAL FREE ENERGY PREDICTED BY IDOCK:  -12.48 KCAL/MOL
REMARK 923 INTER-LIGAND FREE ENERGY PREDICTED BY IDOCK:   -9.14 KCAL/MOL
REMARK 924 INTRA-LIGAND FREE ENERGY PREDICTED BY IDOCK:   -3.34 KCAL/MOL
REMARK 927      BINDING AFFINITY PREDICTED BY RF-SCORE:    0.00 PKD
ROOT
HETATM    1  C   UNL     1      -9.408  14.165  66.979  1.00  0.00    -0.246 C  
HETATM    2  H   UNL     1      -9.902  15.389  65.560  1.00  0.00     0.000 HD 
HETATM    3  O   UNL     1      -9.112  15.227  66.063  1.00  0.00    -0.310 OA 
ENDROOT
BRANCH   1   4
HETATM    4  C   UNL     1      -9.962  12.893  66.270  1.00  0.00    -0.270 C  
BRANCH   4   5
HETATM    5  C   UNL     1     -11.506  12.735  66.440  1.00  0.00    -0.357 C  
HETATM    6  O   UNL     1     -11.841  11.489  67.069  1.00  0.00    -0.568 OA 
HETATM    7  H   UNL     1     -12.781  11.393  67.173  1.00  0.00     0.000 HD 
BRANCH   5   8
HETATM    8  C   UNL     1     -12.308  12.810  65.134  1.00  0.00    -0.496 C  
HETATM    9  C   UNL     1     -11.410  13.117  63.956  1.00  0.00    -0.394 C  
HETATM   10  O   UNL     1     -13.265  13.872  65.269  1.00  0.00    -0.774 OA 
HETATM   11  O   UNL     1     -10.874  12.240  63.282  1.00  0.00    -0.435 OA 
HETATM   12  H   UNL     1     -13.761  13.918  64.460  1.00  0.00     0.000 HD 
ENDBRANCH   5   8
ENDBRANCH   4   5
BRANCH   4  13
HETATM   13  O   UNL     1      -9.305  11.678  66.707  1.00  0.00    -0.177 OA 
BRANCH  13  14
HETATM   14  C   UNL     1      -8.478  11.048  65.714  1.00  0.00    -0.119 C  
HETATM   15  H   UNL     1     -10.301   7.497  65.577  1.00  0.00     0.000 HD 
HETATM   16  O   UNL     1     -10.400   9.796  64.749  1.00  0.00    -0.215 OA 
HETATM   17  C   UNL     1      -9.078   9.693  65.302  1.00  0.00    -0.218 C  
HETATM   18  O   UNL     1      -7.143  10.821  66.143  1.00  0.00    -0.130 OA 
HETATM   19  O   UNL     1      -9.475   7.441  66.043  1.00  0.00    -0.071 OA 
HETATM   20  C   UNL     1      -7.037  10.012  67.318  1.00  0.00    -0.085 C  
HETATM   21  H   UNL     1     -10.770   8.959  64.496  1.00  0.00     0.000 HD 
HETATM   22  C   UNL     1      -9.129   8.763  66.507  1.00  0.00    -0.162 C  
HETATM   23  C   UNL     1      -7.793   8.673  67.262  1.00  0.00    -0.097 C  
BRANCH  20  24
HETATM   24  C   UNL     1      -5.531   9.821  67.609  1.00  0.00    -0.036 C  
HETATM   25  O   UNL     1      -5.249   9.375  68.937  1.00  0.00    -0.037 OA 
HETATM   26  H   UNL     1      -4.323   9.258  69.115  1.00  0.00     0.000 HD 
ENDBRANCH  20  24
BRANCH  23  27
HETATM   27  O   UNL     1      -8.006   8.272  68.644  1.00  0.00    -0.117 OA 
BRANCH  27  28
HETATM   28  C   UNL     1      -9.046   9.009  69.297  1.00  0.00    -0.145 C  
HETATM   29  O   UNL     1     -10.249   8.255  69.331  1.00  0.00    -0.195 OA 
HETATM   30  C   UNL     1     -10.099   7.026  70.047  1.00  0.00    -0.187 C  
HETATM   31  C   UNL     1      -9.810   7.329  71.539  1.00  0.00    -0.174 C  
HETATM   32  C   UNL     1     -11.378   6.235  69.784  1.00  0.00    -0.506 C  
HETATM   33  C   UNL     1      -8.528   8.199  71.639  1.00  0.00    -0.136 C  
HETATM   34  H   UNL     1      -7.572   9.231  73.038  1.00  0.00     0.000 HD 
HETATM   35  C   UNL     1      -8.612   9.416  70.714  1.00  0.00    -0.145 C  
HETATM   36  O   UNL     1      -8.356   8.699  72.977  1.00  0.00    -0.404 OA 
HETATM   37  O   UNL     1      -7.357  10.118  70.706  1.00  0.00    -0.401 OA 
HETATM   38  H   UNL     1      -7.088  10.370  71.581  1.00  0.00     0.000 HD 
BRANCH  31  39
HETATM   39  N   UNL     1      -9.745   6.061  72.306  1.00  0.00    -0.157 NA 
HETATM   40  H   UNL     1     -10.212   5.949  73.206  1.00  0.00     0.000 HD 
BRANCH  39  41
HETATM   41  C   UNL     1      -8.954   4.959  71.684  1.00  0.00    -0.138 C  
HETATM   42  C   UNL     1      -7.045   3.905  72.970  1.00  0.00    -0.058 C  
HETATM   43  C   UNL     1      -7.580   4.914  72.282  1.00  0.00    -0.090 C  
HETATM   44  C   UNL     1      -7.770   2.597  73.137  1.00  0.00    -0.050 C  
HETATM   45  H   UNL     1     -11.319   3.040  72.952  1.00  0.00     0.000 HD 
HETATM   46  O   UNL     1     -10.815   3.839  72.849  1.00  0.00    -0.150 OA 
HETATM   47  C   UNL     1      -8.987   2.377  72.202  1.00  0.00    -0.078 C  
HETATM   48  O   UNL     1      -8.158   2.487  74.503  1.00  0.00    -0.063 OA 
HETATM   49  H   UNL     1      -9.309   1.611  70.410  1.00  0.00     0.000 HD 
HETATM   50  O   UNL     1      -8.563   1.746  70.983  1.00  0.00    -0.049 OA 
HETATM   51  C   UNL     1      -9.784   3.643  71.855  1.00  0.00    -0.166 C  
HETATM   52  H   UNL     1      -8.616   1.661  74.608  1.00  0.00     0.000 HD 
BRANCH  42  53
HETATM   53  C   UNL     1      -5.695   3.989  73.648  1.00  0.00    -0.004 C  
HETATM   54  O   UNL     1      -5.285   2.738  74.190  1.00  0.00     0.000 OA 
HETATM   55  H   UNL     1      -4.437   2.790  74.616  1.00  0.00     0.000 HD 
ENDBRANCH  42  53
ENDBRANCH  39  41
ENDBRANCH  31  39
ENDBRANCH  27  28
ENDBRANCH  23  27
ENDBRANCH  13  14
ENDBRANCH   4  13
ENDBRANCH   1   4
BRANCH   1  56
HETATM   56  C   UNL     1      -8.136  13.904  67.790  1.00  0.00    -0.172 C  
HETATM   57  O   UNL     1      -8.432  14.060  69.180  1.00  0.00    -0.362 OA 
HETATM   58  H   UNL     1      -7.643  13.898  69.684  1.00  0.00     0.000 HD 
ENDBRANCH   1  56
TORSDOF 12
ENDMDL
MODEL       98
REMARK 921   NORMALIZED FREE ENERGY PREDICTED BY IDOCK:   -5.44 KCAL/MOL
REMARK 922        TOTAL FREE ENERGY PREDICTED BY IDOCK:  -12.44 KCAL/MOL
REMARK 923 INTER-LIGAND FREE ENERGY PREDICTED BY IDOCK:   -8.85 KCAL/MOL
REMARK 924 INTRA-LIGAND FREE ENERGY PREDICTED BY IDOCK:   -3.59 KCAL/MOL
REMARK 927      BINDING AFFINITY PREDICTED BY RF-SCORE:    0.00 PKD
ROOT
HETATM    1  C   UNL     1      -9.614   4.924  66.209  1.00  0.00    -0.174 C  
HETATM    2  H   UNL     1     -11.102   3.762  65.770  1.00  0.00     0.000 HD 
HETATM    3  O   UNL     1     -10.426   4.206  65.271  1.00  0.00    -0.218 OA 
ENDROOT
BRANCH   1   4
HETATM    4  C   UNL     1      -9.052   4.013  67.342  1.00  0.00    -0.150 C  
BRANCH   4   5
HETATM    5  C   UNL     1      -9.391   2.505  67.125  1.00  0.00    -0.054 C  
HETATM    6  O   UNL     1      -9.679   1.846  68.367  1.00  0.00    -0.221 OA 
HETATM    7  H   UNL     1      -9.886   0.928  68.235  1.00  0.00     0.000 HD 
BRANCH   5   8
HETATM    8  C   UNL     1      -8.292   1.692  66.429  1.00  0.00    -0.090 C  
HETATM    9  C   UNL     1      -6.917   2.219  66.774  1.00  0.00    -0.044 C  
HETATM   10  O   UNL     1      -8.487   1.818  65.011  1.00  0.00    -0.081 OA 
HETATM   11  O   UNL     1      -6.267   1.805  67.731  1.00  0.00    -0.024 OA 
HETATM   12  H   UNL     1      -7.807   1.314  64.580  1.00  0.00     0.000 HD 
ENDBRANCH   5   8
ENDBRANCH   4   5
BRANCH   4  13
HETATM   13  O   UNL     1      -9.497   4.420  68.659  1.00  0.00    -0.137 OA 
BRANCH  13  14
HETATM   14  C   UNL     1      -8.443   4.668  69.604  1.00  0.00    -0.074 C  
HETATM   15  H   UNL     1     -10.575   6.553  72.406  1.00  0.00     0.000 HD 
HETATM   16  O   UNL     1      -9.960   4.347  71.549  1.00  0.00    -0.180 OA 
HETATM   17  C   UNL     1      -9.021   5.229  70.914  1.00  0.00    -0.137 C  
HETATM   18  O   UNL     1      -7.460   5.581  69.136  1.00  0.00    -0.075 OA 
HETATM   19  O   UNL     1     -10.037   7.164  71.915  1.00  0.00    -0.182 OA 
HETATM   20  C   UNL     1      -7.980   6.865  68.776  1.00  0.00    -0.120 C  
HETATM   21  H   UNL     1     -10.318   4.693  72.358  1.00  0.00     0.000 HD 
HETATM   22  C   UNL     1      -9.712   6.559  70.646  1.00  0.00    -0.179 C  
HETATM   23  C   UNL     1      -8.843   7.547  69.852  1.00  0.00    -0.141 C  
BRANCH  20  24
HETATM   24  C   UNL     1      -6.781   7.742  68.348  1.00  0.00    -0.062 C  
HETATM   25  O   UNL     1      -7.045   8.573  67.216  1.00  0.00    -0.074 OA 
HETATM   26  H   UNL     1      -6.308   9.112  66.953  1.00  0.00     0.000 HD 
ENDBRANCH  20  24
BRANCH  23  27
HETATM   27  O   UNL     1      -9.671   8.516  69.150  1.00  0.00    -0.165 OA 
BRANCH  27  28
HETATM   28  C   UNL     1      -9.517   9.855  69.637  1.00  0.00    -0.231 C  
HETATM   29  O   UNL     1      -8.897  10.675  68.658  1.00  0.00    -0.137 OA 
HETATM   30  C   UNL     1      -9.662  10.756  67.453  1.00  0.00    -0.171 C  
HETATM   31  C   UNL     1     -11.004  11.476  67.741  1.00  0.00    -0.236 C  
HETATM   32  C   UNL     1      -8.761  11.452  66.436  1.00  0.00    -0.185 C  
HETATM   33  C   UNL     1     -11.770  10.695  68.843  1.00  0.00    -0.211 C  
HETATM   34  H   UNL     1     -13.371  10.972  69.981  1.00  0.00     0.000 HD 
HETATM   35  C   UNL     1     -10.876  10.435  70.058  1.00  0.00    -0.289 C  
HETATM   36  O   UNL     1     -12.903  11.450  69.307  1.00  0.00     0.018 OA 
HETATM   37  O   UNL     1     -11.554   9.579  70.996  1.00  0.00    -0.291 OA 
HETATM   38  H   UNL     1     -12.393   9.938  71.257  1.00  0.00     0.000 HD 
BRANCH  31  39
HETATM   39  N   UNL     1     -11.764  11.647  66.479  1.00  0.00    -0.471 NA 
HETATM   40  H   UNL     1     -11.940  10.867  65.844  1.00  0.00     0.000 HD 
BRANCH  39  41
HETATM   41  C   UNL     1     -12.257  13.026  66.192  1.00  0.00    -0.360 C  
HETATM   42  C   UNL     1     -10.944  15.024  67.025  1.00  0.00    -0.318 C  
HETATM   43  C   UNL     1     -11.745  13.978  67.230  1.00  0.00    -0.420 C  
HETATM   44  C   UNL     1     -10.534  15.437  65.637  1.00  0.00    -0.372 C  
HETATM   45  H   UNL     1     -10.566  12.653  63.385  1.00  0.00     0.000 HD 
HETATM   46  O   UNL     1     -10.821  12.443  64.275  1.00  0.00    -0.306 OA 
HETATM   47  C   UNL     1     -11.347  14.806  64.478  1.00  0.00    -0.303 C  
HETATM   48  O   UNL     1      -9.145  15.152  65.493  1.00  0.00    -0.338 OA 
HETATM   49  H   UNL     1     -12.976  15.246  63.452  1.00  0.00     0.000 HD 
HETATM   50  O   UNL     1     -12.478  15.633  64.163  1.00  0.00    -0.560 OA 
HETATM   51  C   UNL     1     -11.835  13.371  64.725  1.00  0.00    -0.380 C  
HETATM   52  H   UNL     1      -8.886  15.413  64.616  1.00  0.00     0.000 HD 
BRANCH  42  53
HETATM   53  C   UNL     1     -10.372  15.863  68.146  1.00  0.00    -0.256 C  
HETATM   54  O   UNL     1      -9.275  16.662  67.717  1.00  0.00    -0.211 OA 
HETATM   55  H   UNL     1      -8.915  17.188  68.422  1.00  0.00     0.000 HD 
ENDBRANCH  42  53
ENDBRANCH  39  41
ENDBRANCH  31  39
ENDBRANCH  27  28
ENDBRANCH  23  27
ENDBRANCH  13  14
ENDBRANCH   4  13
ENDBRANCH   1   4
BRANCH   1  56
HETATM   56  C   UNL     1      -8.524   5.638  65.406  1.00  0.00    -0.147 C  
HETATM   57  O   UNL     1      -8.141   4.808  64.306  1.00  0.00    -0.099 OA 
HETATM   58  H   UNL     1      -7.464   5.252  63.807  1.00  0.00     0.000 HD 
ENDBRANCH   1  56
TORSDOF 12
ENDMDL
MODEL       99
REMARK 921   NORMALIZED FREE ENERGY PREDICTED BY IDOCK:   -5.42 KCAL/MOL
REMARK 922        TOTAL FREE ENERGY PREDICTED BY IDOCK:  -12.41 KCAL/MOL
REMARK 923 INTER-LIGAND FREE ENERGY PREDICTED BY IDOCK:  -10.90 KCAL/MOL
REMARK 924 INTRA-LIGAND FREE ENERGY PREDICTED BY IDOCK:   -1.51 KCAL/MOL
REMARK 927      BINDING AFFINITY PREDICTED BY RF-SCORE:    0.00 PKD
ROOT
HETATM    1  C   UNL     1     -12.706  13.767  65.716  1.00  0.00    -0.446 C  
HETATM    2  H   UNL     1     -13.637  12.101  65.373  1.00  0.00     0.000 HD 
HETATM    3  O   UNL     1     -13.161  12.728  64.840  1.00  0.00    -0.808 OA 
ENDROOT
BRANCH   1   4
HETATM    4  C   UNL     1     -11.879  13.222  66.919  1.00  0.00    -0.392 C  
BRANCH   4   5
HETATM    5  C   UNL     1     -11.057  14.338  67.637  1.00  0.00    -0.292 C  
HETATM    6  O   UNL     1     -10.130  13.783  68.582  1.00  0.00    -0.236 OA 
HETATM    7  H   UNL     1      -9.629  14.462  69.019  1.00  0.00     0.000 HD 
BRANCH   5   8
HETATM    8  C   UNL     1     -11.900  15.375  68.390  1.00  0.00    -0.244 C  
HETATM    9  C   UNL     1     -11.025  16.403  69.073  1.00  0.00    -0.325 C  
HETATM   10  O   UNL     1     -12.654  14.678  69.394  1.00  0.00    -0.570 OA 
HETATM   11  O   UNL     1     -10.680  17.450  68.528  1.00  0.00    -0.348 OA 
HETATM   12  H   UNL     1     -13.177  15.320  69.861  1.00  0.00     0.000 HD 
ENDBRANCH   5   8
ENDBRANCH   4   5
BRANCH   4  13
HETATM   13  O   UNL     1     -10.993  12.139  66.544  1.00  0.00    -0.258 OA 
BRANCH  13  14
HETATM   14  C   UNL     1     -10.060  12.456  65.497  1.00  0.00    -0.267 C  
HETATM   15  H   UNL     1      -9.800   8.848  63.807  1.00  0.00     0.000 HD 
HETATM   16  O   UNL     1     -11.147  10.887  63.902  1.00  0.00    -0.423 OA 
HETATM   17  C   UNL     1      -9.914  11.266  64.534  1.00  0.00    -0.284 C  
HETATM   18  O   UNL     1      -8.765  12.795  65.971  1.00  0.00     0.228 OA 
HETATM   19  O   UNL     1      -9.023   9.045  64.316  1.00  0.00    -0.123 OA 
HETATM   20  C   UNL     1      -8.145  11.773  66.758  1.00  0.00    -0.133 C  
HETATM   21  H   UNL     1     -11.057  10.151  63.307  1.00  0.00     0.000 HD 
HETATM   22  C   UNL     1      -9.363  10.060  65.283  1.00  0.00    -0.237 C  
HETATM   23  C   UNL     1      -8.106  10.379  66.107  1.00  0.00    -0.139 C  
BRANCH  20  24
HETATM   24  C   UNL     1      -6.735  12.279  67.139  1.00  0.00    -0.104 C  
HETATM   25  O   UNL     1      -5.716  11.917  66.205  1.00  0.00    -0.505 OA 
HETATM   26  H   UNL     1      -4.850  12.229  66.440  1.00  0.00     0.000 HD 
ENDBRANCH  20  24
BRANCH  23  27
HETATM   27  O   UNL     1      -7.948   9.429  67.198  1.00  0.00    -0.102 OA 
BRANCH  27  28
HETATM   28  C   UNL     1      -9.187   9.060  67.815  1.00  0.00    -0.140 C  
HETATM   29  O   UNL     1      -9.370   7.653  67.767  1.00  0.00    -0.141 OA 
HETATM   30  C   UNL     1      -8.336   6.946  68.456  1.00  0.00    -0.121 C  
HETATM   31  C   UNL     1      -8.406   7.276  69.969  1.00  0.00    -0.137 C  
HETATM   32  C   UNL     1      -8.536   5.474  68.106  1.00  0.00    -0.100 C  
HETATM   33  C   UNL     1      -8.262   8.811  70.159  1.00  0.00    -0.117 C  
HETATM   34  H   UNL     1      -8.468  10.122  71.633  1.00  0.00     0.000 HD 
HETATM   35  C   UNL     1      -9.243   9.572  69.263  1.00  0.00    -0.169 C  
HETATM   36  O   UNL     1      -8.555   9.184  71.517  1.00  0.00    -0.339 OA 
HETATM   37  O   UNL     1      -8.986  10.985  69.340  1.00  0.00    -0.395 OA 
HETATM   38  H   UNL     1      -9.020  11.302  70.234  1.00  0.00     0.000 HD 
BRANCH  31  39
HETATM   39  N   UNL     1      -7.396   6.476  70.704  1.00  0.00    -0.077 NA 
HETATM   40  H   UNL     1      -6.494   6.233  70.292  1.00  0.00     0.000 HD 
BRANCH  39  41
HETATM   41  C   UNL     1      -7.776   6.048  72.083  1.00  0.00    -0.101 C  
HETATM   42  C   UNL     1     -10.134   5.249  72.541  1.00  0.00    -0.224 C  
HETATM   43  C   UNL     1      -9.252   6.215  72.281  1.00  0.00    -0.143 C  
HETATM   44  C   UNL     1      -9.695   3.829  72.776  1.00  0.00    -0.139 C  
HETATM   45  H   UNL     1      -6.609   3.123  71.102  1.00  0.00     0.000 HD 
HETATM   46  O   UNL     1      -6.927   4.010  70.986  1.00  0.00    -0.031 OA 
HETATM   47  C   UNL     1      -8.179   3.625  73.031  1.00  0.00    -0.083 C  
HETATM   48  O   UNL     1     -10.128   3.051  71.664  1.00  0.00    -0.139 OA 
HETATM   49  H   UNL     1      -6.971   3.598  74.593  1.00  0.00     0.000 HD 
HETATM   50  O   UNL     1      -7.900   3.723  74.437  1.00  0.00    -0.072 OA 
HETATM   51  C   UNL     1      -7.252   4.585  72.272  1.00  0.00    -0.071 C  
HETATM   52  H   UNL     1      -9.851   2.154  71.812  1.00  0.00     0.000 HD 
BRANCH  42  53
HETATM   53  C   UNL     1     -11.627   5.485  72.604  1.00  0.00    -0.232 C  
HETATM   54  O   UNL     1     -11.949   6.862  72.773  1.00  0.00    -0.498 OA 
HETATM   55  H   UNL     1     -12.887   7.010  72.813  1.00  0.00     0.000 HD 
ENDBRANCH  42  53
ENDBRANCH  39  41
ENDBRANCH  31  39
ENDBRANCH  27  28
ENDBRANCH  23  27
ENDBRANCH  13  14
ENDBRANCH   4  13
ENDBRANCH   1   4
BRANCH   1  56
HETATM   56  C   UNL     1     -11.939  14.775  64.856  1.00  0.00    -0.358 C  
HETATM   57  O   UNL     1     -12.417  14.695  63.511  1.00  0.00    -1.069 OA 
HETATM   58  H   UNL     1     -11.941  15.321  62.977  1.00  0.00     0.000 HD 
ENDBRANCH   1  56
TORSDOF 12
ENDMDL
MODEL      100
REMARK 921   NORMALIZED FREE ENERGY PREDICTED BY IDOCK:   -5.41 KCAL/MOL
REMARK 922        TOTAL FREE ENERGY PREDICTED BY IDOCK:  -12.40 KCAL/MOL
REMARK 923 INTER-LIGAND FREE ENERGY PREDICTED BY IDOCK:  -10.31 KCAL/MOL
REMARK 924 INTRA-LIGAND FREE ENERGY PREDICTED BY IDOCK:   -2.09 KCAL/MOL
REMARK 927      BINDING AFFINITY PREDICTED BY RF-SCORE:    0.00 PKD
ROOT
HETATM    1  C   UNL     1      -9.300   4.115  71.454  1.00  0.00    -0.145 C  
HETATM    2  H   UNL     1      -7.470   4.713  71.228  1.00  0.00     0.000 HD 
HETATM    3  O   UNL     1      -7.884   3.895  71.479  1.00  0.00    -0.059 OA 
ENDROOT
BRANCH   1   4
HETATM    4  C   UNL     1      -9.801   4.670  70.087  1.00  0.00    -0.236 C  
BRANCH   4   5
HETATM    5  C   UNL     1      -8.653   4.806  69.038  1.00  0.00    -0.080 C  
HETATM    6  O   UNL     1      -8.751   6.039  68.308  1.00  0.00    -0.114 OA 
HETATM    7  H   UNL     1      -8.053   6.123  67.670  1.00  0.00     0.000 HD 
BRANCH   5   8
HETATM    8  C   UNL     1      -8.590   3.676  68.002  1.00  0.00    -0.098 C  
HETATM    9  C   UNL     1      -8.698   4.215  66.593  1.00  0.00    -0.114 C  
HETATM   10  O   UNL     1      -9.703   2.800  68.243  1.00  0.00    -0.137 OA 
HETATM   11  O   UNL     1      -7.716   4.539  65.928  1.00  0.00    -0.092 OA 
HETATM   12  H   UNL     1      -9.664   2.100  67.602  1.00  0.00     0.000 HD 
ENDBRANCH   5   8
ENDBRANCH   4   5
BRANCH   4  13
HETATM   13  O   UNL     1     -10.486   5.939  70.216  1.00  0.00    -0.219 OA 
BRANCH  13  14
HETATM   14  C   UNL     1     -10.904   6.267  71.552  1.00  0.00    -0.254 C  
HETATM   15  H   UNL     1     -13.365   9.291  70.688  1.00  0.00     0.000 HD 
HETATM   16  O   UNL     1     -13.204   6.854  70.806  1.00  0.00    -0.447 OA 
HETATM   17  C   UNL     1     -12.039   7.304  71.516  1.00  0.00    -0.331 C  
HETATM   18  O   UNL     1      -9.863   6.789  72.364  1.00  0.00    -0.159 OA 
HETATM   19  O   UNL     1     -12.549   9.608  71.057  1.00  0.00    -0.312 OA 
HETATM   20  C   UNL     1      -9.250   7.971  71.839  1.00  0.00    -0.167 C  
HETATM   21  H   UNL     1     -13.905   7.495  70.784  1.00  0.00     0.000 HD 
HETATM   22  C   UNL     1     -11.544   8.590  70.867  1.00  0.00    -0.263 C  
HETATM   23  C   UNL     1     -10.224   9.102  71.463  1.00  0.00    -0.333 C  
BRANCH  20  24
HETATM   24  C   UNL     1      -8.188   8.431  72.865  1.00  0.00    -0.114 C  
HETATM   25  O   UNL     1      -6.844   8.139  72.480  1.00  0.00    -0.076 OA 
HETATM   26  H   UNL     1      -6.192   8.422  73.110  1.00  0.00     0.000 HD 
ENDBRANCH  20  24
BRANCH  23  27
HETATM   27  O   UNL     1      -9.516   9.942  70.508  1.00  0.00    -0.161 OA 
BRANCH  27  28
HETATM   28  C   UNL     1      -8.529   9.233  69.749  1.00  0.00    -0.149 C  
HETATM   29  O   UNL     1      -9.094   8.716  68.554  1.00  0.00    -0.138 OA 
HETATM   30  C   UNL     1      -9.610   9.745  67.706  1.00  0.00    -0.135 C  
HETATM   31  C   UNL     1      -8.444  10.637  67.209  1.00  0.00    -0.126 C  
HETATM   32  C   UNL     1     -10.388   9.026  66.607  1.00  0.00    -0.289 C  
HETATM   33  C   UNL     1      -7.704  11.235  68.436  1.00  0.00    -0.125 C  
HETATM   34  H   UNL     1      -6.029  12.239  68.783  1.00  0.00     0.000 HD 
HETATM   35  C   UNL     1      -7.329  10.143  69.441  1.00  0.00    -0.106 C  
HETATM   36  O   UNL     1      -6.481  11.873  68.031  1.00  0.00    -0.050 OA 
HETATM   37  O   UNL     1      -6.789  10.736  70.636  1.00  0.00    -0.471 OA 
HETATM   38  H   UNL     1      -6.048  11.298  70.446  1.00  0.00     0.000 HD 
BRANCH  31  39
HETATM   39  N   UNL     1      -8.957  11.651  66.256  1.00  0.00    -0.217 NA 
HETATM   40  H   UNL     1      -8.348  12.119  65.584  1.00  0.00     0.000 HD 
BRANCH  39  41
HETATM   41  C   UNL     1     -10.418  11.946  66.337  1.00  0.00    -0.223 C  
HETATM   42  C   UNL     1     -11.194  14.306  66.826  1.00  0.00    -0.337 C  
HETATM   43  C   UNL     1     -10.649  13.149  67.202  1.00  0.00    -0.259 C  
HETATM   44  C   UNL     1     -11.757  14.495  65.443  1.00  0.00    -0.354 C  
HETATM   45  H   UNL     1     -10.148  12.345  63.074  1.00  0.00     0.000 HD 
HETATM   46  O   UNL     1      -9.829  12.260  63.965  1.00  0.00    -0.261 OA 
HETATM   47  C   UNL     1     -11.971  13.200  64.619  1.00  0.00    -0.388 C  
HETATM   48  O   UNL     1     -10.904  15.400  64.748  1.00  0.00    -0.534 OA 
HETATM   49  H   UNL     1     -13.419  11.884  64.352  1.00  0.00     0.000 HD 
HETATM   50  O   UNL     1     -13.288  12.678  64.857  1.00  0.00    -0.741 OA 
HETATM   51  C   UNL     1     -10.943  12.087  64.870  1.00  0.00    -0.306 C  
HETATM   52  H   UNL     1     -11.260  15.520  63.875  1.00  0.00     0.000 HD 
BRANCH  42  53
HETATM   53  C   UNL     1     -11.278  15.516  67.731  1.00  0.00    -0.302 C  
HETATM   54  O   UNL     1     -12.275  15.369  68.737  1.00  0.00    -0.581 OA 
HETATM   55  H   UNL     1     -12.328  16.129  69.305  1.00  0.00     0.000 HD 
ENDBRANCH  42  53
ENDBRANCH  39  41
ENDBRANCH  31  39
ENDBRANCH  27  28
ENDBRANCH  23  27
ENDBRANCH  13  14
ENDBRANCH   4  13
ENDBRANCH   1   4
BRANCH   1  56
HETATM   56  C   UNL     1      -9.967   2.797  71.857  1.00  0.00    -0.140 C  
HETATM   57  O   UNL     1     -10.759   3.018  73.027  1.00  0.00    -0.163 OA 
HETATM   58  H   UNL     1     -11.173   2.200  73.277  1.00  0.00     0.000 HD 
ENDBRANCH   1  56
TORSDOF 12
ENDMDL
MODEL      101
REMARK 921   NORMALIZED FREE ENERGY PREDICTED BY IDOCK:   -5.39 KCAL/MOL
REMARK 922        TOTAL FREE ENERGY PREDICTED BY IDOCK:  -12.36 KCAL/MOL
REMARK 923 INTER-LIGAND FREE ENERGY PREDICTED BY IDOCK:   -9.30 KCAL/MOL
REMARK 924 INTRA-LIGAND FREE ENERGY PREDICTED BY IDOCK:   -3.05 KCAL/MOL
REMARK 927      BINDING AFFINITY PREDICTED BY RF-SCORE:    0.00 PKD
ROOT
HETATM    1  C   UNL     1      -9.804   5.107  70.141  1.00  0.00    -0.230 C  
HETATM    2  H   UNL     1      -9.116   3.350  69.698  1.00  0.00     0.000 HD 
HETATM    3  O   UNL     1      -9.739   3.688  70.331  1.00  0.00    -0.189 OA 
ENDROOT
BRANCH   1   4
HETATM    4  C   UNL     1     -10.134   5.505  68.671  1.00  0.00    -0.183 C  
BRANCH   4   5
HETATM    5  C   UNL     1      -9.753   4.390  67.647  1.00  0.00    -0.146 C  
HETATM    6  O   UNL     1      -8.331   4.204  67.576  1.00  0.00    -0.098 OA 
HETATM    7  H   UNL     1      -8.099   3.525  66.953  1.00  0.00     0.000 HD 
BRANCH   5   8
HETATM    8  C   UNL     1     -10.245   4.636  66.215  1.00  0.00    -0.275 C  
HETATM    9  C   UNL     1      -9.104   4.580  65.225  1.00  0.00    -0.149 C  
HETATM   10  O   UNL     1     -10.824   5.950  66.172  1.00  0.00    -0.568 OA 
HETATM   11  O   UNL     1      -8.763   3.542  64.661  1.00  0.00    -0.106 OA 
HETATM   12  H   UNL     1     -11.129   6.102  65.285  1.00  0.00     0.000 HD 
ENDBRANCH   5   8
ENDBRANCH   4   5
BRANCH   4  13
HETATM   13  O   UNL     1      -9.512   6.752  68.276  1.00  0.00    -0.127 OA 
BRANCH  13  14
HETATM   14  C   UNL     1      -8.076   6.761  68.349  1.00  0.00    -0.119 C  
HETATM   15  H   UNL     1      -7.597  10.172  70.370  1.00  0.00     0.000 HD 
HETATM   16  O   UNL     1      -8.088   7.789  70.615  1.00  0.00    -0.100 OA 
HETATM   17  C   UNL     1      -7.596   7.896  69.269  1.00  0.00    -0.097 C  
HETATM   18  O   UNL     1      -7.442   6.924  67.089  1.00  0.00    -0.090 OA 
HETATM   19  O   UNL     1      -7.373  10.282  69.453  1.00  0.00    -0.087 OA 
HETATM   20  C   UNL     1      -7.811   8.123  66.400  1.00  0.00    -0.093 C  
HETATM   21  H   UNL     1      -7.792   8.491  71.183  1.00  0.00     0.000 HD 
HETATM   22  C   UNL     1      -8.030   9.241  68.701  1.00  0.00    -0.100 C  
HETATM   23  C   UNL     1      -7.669   9.419  67.218  1.00  0.00    -0.091 C  
BRANCH  20  24
HETATM   24  C   UNL     1      -6.994   8.168  65.088  1.00  0.00    -0.063 C  
HETATM   25  O   UNL     1      -7.575   8.987  64.071  1.00  0.00    -0.110 OA 
HETATM   26  H   UNL     1      -7.073   9.014  63.265  1.00  0.00     0.000 HD 
ENDBRANCH  20  24
BRANCH  23  27
HETATM   27  O   UNL     1      -8.546  10.393  66.585  1.00  0.00    -0.124 OA 
BRANCH  27  28
HETATM   28  C   UNL     1      -9.910   9.962  66.503  1.00  0.00    -0.215 C  
HETATM   29  O   UNL     1     -10.568  10.144  67.748  1.00  0.00    -0.218 OA 
HETATM   30  C   UNL     1     -10.589  11.515  68.155  1.00  0.00    -0.196 C  
HETATM   31  C   UNL     1     -11.446  12.337  67.160  1.00  0.00    -0.352 C  
HETATM   32  C   UNL     1     -11.096  11.511  69.595  1.00  0.00    -0.211 C  
HETATM   33  C   UNL     1     -10.852  12.182  65.733  1.00  0.00    -0.281 C  
HETATM   34  H   UNL     1     -11.381  12.636  63.876  1.00  0.00     0.000 HD 
HETATM   35  C   UNL     1     -10.644  10.708  65.378  1.00  0.00    -0.115 C  
HETATM   36  O   UNL     1     -11.745  12.731  64.749  1.00  0.00    -0.322 OA 
HETATM   37  O   UNL     1      -9.951  10.595  64.123  1.00  0.00    -0.308 OA 
HETATM   38  H   UNL     1     -10.405  11.056  63.427  1.00  0.00     0.000 HD 
BRANCH  31  39
HETATM   39  N   UNL     1     -11.550  13.741  67.626  1.00  0.00    -0.326 NA 
HETATM   40  H   UNL     1     -12.436  14.147  67.927  1.00  0.00     0.000 HD 
BRANCH  39  41
HETATM   41  C   UNL     1     -10.280  14.526  67.627  1.00  0.00    -0.225 C  
HETATM   42  C   UNL     1     -10.257  16.873  66.676  1.00  0.00    -0.312 C  
HETATM   43  C   UNL     1     -10.310  15.548  66.531  1.00  0.00    -0.293 C  
HETATM   44  C   UNL     1     -10.047  17.506  68.025  1.00  0.00    -0.332 C  
HETATM   45  H   UNL     1     -11.250  15.396  70.658  1.00  0.00     0.000 HD 
HETATM   46  O   UNL     1     -11.357  15.038  69.784  1.00  0.00    -0.254 OA 
HETATM   47  C   UNL     1      -9.567  16.553  69.150  1.00  0.00    -0.228 C  
HETATM   48  O   UNL     1     -11.263  18.151  68.396  1.00  0.00    -0.027 OA 
HETATM   49  H   UNL     1      -7.838  15.926  69.869  1.00  0.00     0.000 HD 
HETATM   50  O   UNL     1      -8.132  16.510  69.180  1.00  0.00    -0.237 OA 
HETATM   51  C   UNL     1     -10.104  15.117  69.066  1.00  0.00    -0.244 C  
HETATM   52  H   UNL     1     -11.130  18.550  69.247  1.00  0.00     0.000 HD 
BRANCH  42  53
HETATM   53  C   UNL     1     -10.418  17.840  65.524  1.00  0.00    -0.017 C  
HETATM   54  O   UNL     1     -11.351  17.374  64.555  1.00  0.00    -0.947 OA 
HETATM   55  H   UNL     1     -11.452  17.981  63.831  1.00  0.00     0.000 HD 
ENDBRANCH  42  53
ENDBRANCH  39  41
ENDBRANCH  31  39
ENDBRANCH  27  28
ENDBRANCH  23  27
ENDBRANCH  13  14
ENDBRANCH   4  13
ENDBRANCH   1   4
BRANCH   1  56
HETATM   56  C   UNL     1     -10.809   5.651  71.159  1.00  0.00    -0.218 C  
HETATM   57  O   UNL     1     -11.327   6.895  70.680  1.00  0.00    -0.283 OA 
HETATM   58  H   UNL     1     -11.951   7.233  71.312  1.00  0.00     0.000 HD 
ENDBRANCH   1  56
TORSDOF 12
ENDMDL
MODEL      102
REMARK 921   NORMALIZED FREE ENERGY PREDICTED BY IDOCK:   -5.37 KCAL/MOL
REMARK 922        TOTAL FREE ENERGY PREDICTED BY IDOCK:  -12.33 KCAL/MOL
REMARK 923 INTER-LIGAND FREE ENERGY PREDICTED BY IDOCK:   -9.08 KCAL/MOL
REMARK 924 INTRA-LIGAND FREE ENERGY PREDICTED BY IDOCK:   -3.25 KCAL/MOL
REMARK 927      BINDING AFFINITY PREDICTED BY RF-SCORE:    0.00 PKD
ROOT
HETATM    1  C   UNL     1     -12.122  14.504  64.843  1.00  0.00    -0.416 C  
HETATM    2  H   UNL     1     -13.215  13.185  65.751  1.00  0.00     0.000 HD 
HETATM    3  O   UNL     1     -13.373  13.846  65.086  1.00  0.00    -0.698 OA 
ENDROOT
BRANCH   1   4
HETATM    4  C   UNL     1     -10.981  13.511  64.472  1.00  0.00    -0.394 C  
BRANCH   4   5
HETATM    5  C   UNL     1     -11.457  12.024  64.461  1.00  0.00    -0.319 C  
HETATM    6  O   UNL     1     -11.883  11.598  65.764  1.00  0.00    -0.307 OA 
HETATM    7  H   UNL     1     -12.173  10.694  65.757  1.00  0.00     0.000 HD 
BRANCH   5   8
HETATM    8  C   UNL     1     -10.406  11.015  63.979  1.00  0.00    -0.371 C  
HETATM    9  C   UNL     1      -9.737  10.322  65.145  1.00  0.00    -0.300 C  
HETATM   10  O   UNL     1      -9.408  11.741  63.245  1.00  0.00    -0.545 OA 
HETATM   11  O   UNL     1     -10.159   9.272  65.626  1.00  0.00    -0.215 OA 
HETATM   12  H   UNL     1      -8.757  11.116  62.947  1.00  0.00     0.000 HD 
ENDBRANCH   5   8
ENDBRANCH   4   5
BRANCH   4  13
HETATM   13  O   UNL     1      -9.826  13.638  65.337  1.00  0.00    -0.233 OA 
BRANCH  13  14
HETATM   14  C   UNL     1     -10.062  14.358  66.558  1.00  0.00    -0.276 C  
HETATM   15  H   UNL     1      -6.275  14.776  67.755  1.00  0.00     0.000 HD 
HETATM   16  O   UNL     1      -7.993  15.713  66.289  1.00  0.00    -0.273 OA 
HETATM   17  C   UNL     1      -8.732  14.841  67.159  1.00  0.00    -0.221 C  
HETATM   18  O   UNL     1     -10.737  13.596  67.549  1.00  0.00    -0.256 OA 
HETATM   19  O   UNL     1      -6.726  14.114  68.267  1.00  0.00    -0.086 OA 
HETATM   20  C   UNL     1     -10.057  12.394  67.924  1.00  0.00    -0.208 C  
HETATM   21  H   UNL     1      -7.171  16.011  66.660  1.00  0.00     0.000 HD 
HETATM   22  C   UNL     1      -7.855  13.644  67.501  1.00  0.00    -0.177 C  
HETATM   23  C   UNL     1      -8.584  12.573  68.329  1.00  0.00    -0.173 C  
BRANCH  20  24
HETATM   24  C   UNL     1     -10.892  11.724  69.039  1.00  0.00    -0.195 C  
HETATM   25  O   UNL     1     -11.442  10.458  68.671  1.00  0.00    -0.419 OA 
HETATM   26  H   UNL     1     -11.955  10.046  69.357  1.00  0.00     0.000 HD 
ENDBRANCH  20  24
BRANCH  23  27
HETATM   27  O   UNL     1      -7.957  11.271  68.157  1.00  0.00    -0.118 OA 
BRANCH  27  28
HETATM   28  C   UNL     1      -6.962  10.983  69.147  1.00  0.00    -0.104 C  
HETATM   29  O   UNL     1      -7.549  10.359  70.279  1.00  0.00    -0.180 OA 
HETATM   30  C   UNL     1      -8.179   9.119  69.951  1.00  0.00    -0.136 C  
HETATM   31  C   UNL     1      -7.106   8.103  69.483  1.00  0.00    -0.051 C  
HETATM   32  C   UNL     1      -8.959   8.708  71.197  1.00  0.00    -0.253 C  
HETATM   33  C   UNL     1      -6.350   8.691  68.261  1.00  0.00    -0.055 C  
HETATM   34  H   UNL     1      -4.736   8.253  67.196  1.00  0.00     0.000 HD 
HETATM   35  C   UNL     1      -5.848  10.107  68.553  1.00  0.00    -0.041 C  
HETATM   36  O   UNL     1      -5.198   7.892  67.943  1.00  0.00    -0.030 OA 
HETATM   37  O   UNL     1      -5.291  10.689  67.360  1.00  0.00    -0.040 OA 
HETATM   38  H   UNL     1      -4.602  10.148  66.993  1.00  0.00     0.000 HD 
BRANCH  31  39
HETATM   39  N   UNL     1      -7.739   6.785  69.228  1.00  0.00    -0.103 NA 
HETATM   40  H   UNL     1      -8.626   6.699  68.731  1.00  0.00     0.000 HD 
BRANCH  39  41
HETATM   41  C   UNL     1      -7.002   5.594  69.743  1.00  0.00    -0.062 C  
HETATM   42  C   UNL     1      -7.986   4.235  71.640  1.00  0.00    -0.086 C  
HETATM   43  C   UNL     1      -7.388   5.330  71.167  1.00  0.00    -0.082 C  
HETATM   44  C   UNL     1      -8.255   3.046  70.758  1.00  0.00    -0.053 C  
HETATM   45  H   UNL     1      -8.603   4.016  67.328  1.00  0.00     0.000 HD 
HETATM   46  O   UNL     1      -8.428   4.734  67.926  1.00  0.00    -0.103 OA 
HETATM   47  C   UNL     1      -7.511   3.033  69.397  1.00  0.00    -0.044 C  
HETATM   48  O   UNL     1      -9.664   2.960  70.563  1.00  0.00    -0.141 OA 
HETATM   49  H   UNL     1      -5.785   2.370  68.704  1.00  0.00     0.000 HD 
HETATM   50  O   UNL     1      -6.240   2.378  69.538  1.00  0.00    -0.024 OA 
HETATM   51  C   UNL     1      -7.291   4.412  68.758  1.00  0.00    -0.056 C  
HETATM   52  H   UNL     1      -9.833   2.209  70.006  1.00  0.00     0.000 HD 
BRANCH  42  53
HETATM   53  C   UNL     1      -8.455   4.100  73.072  1.00  0.00    -0.093 C  
HETATM   54  O   UNL     1      -9.875   4.065  73.173  1.00  0.00    -0.123 OA 
HETATM   55  H   UNL     1     -10.169   3.980  74.073  1.00  0.00     0.000 HD 
ENDBRANCH  42  53
ENDBRANCH  39  41
ENDBRANCH  31  39
ENDBRANCH  27  28
ENDBRANCH  23  27
ENDBRANCH  13  14
ENDBRANCH   4  13
ENDBRANCH   1   4
BRANCH   1  56
HETATM   56  C   UNL     1     -12.376  15.568  63.772  1.00  0.00     0.534 C  
HETATM   57  O   UNL     1     -11.369  16.578  63.875  1.00  0.00    -1.557 OA 
HETATM   58  H   UNL     1     -11.526  17.238  63.210  1.00  0.00     0.000 HD 
ENDBRANCH   1  56
TORSDOF 12
ENDMDL
MODEL      103
REMARK 921   NORMALIZED FREE ENERGY PREDICTED BY IDOCK:   -5.33 KCAL/MOL
REMARK 922        TOTAL FREE ENERGY PREDICTED BY IDOCK:  -12.26 KCAL/MOL
REMARK 923 INTER-LIGAND FREE ENERGY PREDICTED BY IDOCK:  -10.15 KCAL/MOL
REMARK 924 INTRA-LIGAND FREE ENERGY PREDICTED BY IDOCK:   -2.11 KCAL/MOL
REMARK 927      BINDING AFFINITY PREDICTED BY RF-SCORE:    0.00 PKD
ROOT
HETATM    1  C   UNL     1      -6.884   8.004  69.531  1.00  0.00    -0.046 C  
HETATM    2  H   UNL     1      -6.585   6.191  68.912  1.00  0.00     0.000 HD 
HETATM    3  O   UNL     1      -7.126   6.592  69.582  1.00  0.00    -0.068 OA 
ENDROOT
BRANCH   1   4
HETATM    4  C   UNL     1      -7.110   8.603  68.110  1.00  0.00    -0.082 C  
BRANCH   4   5
HETATM    5  C   UNL     1      -5.852   9.350  67.566  1.00  0.00    -0.045 C  
HETATM    6  O   UNL     1      -6.027  10.774  67.608  1.00  0.00    -0.044 OA 
HETATM    7  H   UNL     1      -5.261  11.229  67.277  1.00  0.00     0.000 HD 
BRANCH   5   8
HETATM    8  C   UNL     1      -5.461   8.987  66.128  1.00  0.00    -0.041 C  
HETATM    9  C   UNL     1      -5.922  10.045  65.150  1.00  0.00    -0.104 C  
HETATM   10  O   UNL     1      -6.107   7.748  65.798  1.00  0.00    -0.038 OA 
HETATM   11  O   UNL     1      -5.224  11.005  64.831  1.00  0.00    -0.218 OA 
HETATM   12  H   UNL     1      -5.864   7.523  64.908  1.00  0.00     0.000 HD 
ENDBRANCH   5   8
ENDBRANCH   4   5
BRANCH   4  13
HETATM   13  O   UNL     1      -8.256   9.487  68.053  1.00  0.00    -0.112 OA 
BRANCH  13  14
HETATM   14  C   UNL     1      -9.509   8.837  67.782  1.00  0.00    -0.142 C  
HETATM   15  H   UNL     1      -9.997  10.021  63.999  1.00  0.00     0.000 HD 
HETATM   16  O   UNL     1      -8.882   8.371  65.419  1.00  0.00    -0.276 OA 
HETATM   17  C   UNL     1      -9.862   8.960  66.290  1.00  0.00    -0.285 C  
HETATM   18  O   UNL     1     -10.596   9.359  68.531  1.00  0.00    -0.213 OA 
HETATM   19  O   UNL     1     -10.574  10.497  64.584  1.00  0.00    -0.250 OA 
HETATM   20  C   UNL     1     -10.825  10.758  68.332  1.00  0.00    -0.232 C  
HETATM   21  H   UNL     1      -9.100   8.448  64.498  1.00  0.00     0.000 HD 
HETATM   22  C   UNL     1     -10.022  10.427  65.915  1.00  0.00    -0.255 C  
HETATM   23  C   UNL     1     -10.955  11.198  66.863  1.00  0.00    -0.273 C  
BRANCH  20  24
HETATM   24  C   UNL     1     -12.066  11.144  69.169  1.00  0.00    -0.283 C  
HETATM   25  O   UNL     1     -12.000  12.455  69.734  1.00  0.00    -0.312 OA 
HETATM   26  H   UNL     1     -12.763  12.692  70.248  1.00  0.00     0.000 HD 
ENDBRANCH  20  24
BRANCH  23  27
HETATM   27  O   UNL     1     -10.655  12.621  66.840  1.00  0.00    -0.238 OA 
BRANCH  27  28
HETATM   28  C   UNL     1     -11.823  13.449  66.787  1.00  0.00    -0.403 C  
HETATM   29  O   UNL     1     -11.860  14.334  67.896  1.00  0.00    -0.342 OA 
HETATM   30  C   UNL     1     -10.732  15.211  67.930  1.00  0.00    -0.268 C  
HETATM   31  C   UNL     1     -10.774  16.155  66.702  1.00  0.00    -0.226 C  
HETATM   32  C   UNL     1     -10.791  15.910  69.286  1.00  0.00    -0.276 C  
HETATM   33  C   UNL     1     -10.784  15.300  65.406  1.00  0.00    -0.391 C  
HETATM   34  H   UNL     1     -11.066  15.597  63.465  1.00  0.00     0.000 HD 
HETATM   35  C   UNL     1     -11.874  14.226  65.462  1.00  0.00    -0.363 C  
HETATM   36  O   UNL     1     -11.060  16.121  64.258  1.00  0.00    -0.653 OA 
HETATM   37  O   UNL     1     -11.762  13.351  64.326  1.00  0.00    -0.376 OA 
HETATM   38  H   UNL     1     -11.794  13.830  63.507  1.00  0.00     0.000 HD 
BRANCH  31  39
HETATM   39  N   UNL     1      -9.658  17.129  66.778  1.00  0.00    -0.259 NA 
HETATM   40  H   UNL     1      -8.845  17.069  66.164  1.00  0.00     0.000 HD 
BRANCH  39  41
HETATM   41  C   UNL     1      -9.793  18.202  67.806  1.00  0.00    -0.310 C  
HETATM   42  C   UNL     1      -7.753  19.525  68.514  1.00  0.00    -0.389 C  
HETATM   43  C   UNL     1      -8.483  18.409  68.505  1.00  0.00    -0.346 C  
HETATM   44  C   UNL     1      -8.249  20.791  67.871  1.00  0.00     0.120 C  
HETATM   45  H   UNL     1     -10.540  20.092  65.208  1.00  0.00     0.000 HD 
HETATM   46  O   UNL     1     -10.200  19.322  65.649  1.00  0.00    -0.473 OA 
HETATM   47  C   UNL     1      -9.757  20.819  67.510  1.00  0.00    -0.304 C  
HETATM   48  O   UNL     1      -7.450  21.034  66.716  1.00  0.00    -0.543 OA 
HETATM   49  H   UNL     1     -11.442  21.347  68.395  1.00  0.00     0.000 HD 
HETATM   50  O   UNL     1     -10.518  21.330  68.616  1.00  0.00     0.767 OA 
HETATM   51  C   UNL     1     -10.352  19.470  67.079  1.00  0.00    -0.453 C  
HETATM   52  H   UNL     1      -7.764  21.833  66.310  1.00  0.00     0.000 HD 
BRANCH  42  53
HETATM   53  C   UNL     1      -6.379  19.611  69.142  1.00  0.00    -0.312 C  
HETATM   54  O   UNL     1      -6.238  20.759  69.973  1.00  0.00    -0.355 OA 
HETATM   55  H   UNL     1      -5.375  20.813  70.367  1.00  0.00     0.000 HD 
ENDBRANCH  42  53
ENDBRANCH  39  41
ENDBRANCH  31  39
ENDBRANCH  27  28
ENDBRANCH  23  27
ENDBRANCH  13  14
ENDBRANCH   4  13
ENDBRANCH   1   4
BRANCH   1  56
HETATM   56  C   UNL     1      -7.758   8.649  70.610  1.00  0.00    -0.086 C  
HETATM   57  O   UNL     1      -7.454  10.044  70.678  1.00  0.00    -0.348 OA 
HETATM   58  H   UNL     1      -7.997  10.445  71.348  1.00  0.00     0.000 HD 
ENDBRANCH   1  56
TORSDOF 12
ENDMDL
MODEL      104
REMARK 921   NORMALIZED FREE ENERGY PREDICTED BY IDOCK:   -5.30 KCAL/MOL
REMARK 922        TOTAL FREE ENERGY PREDICTED BY IDOCK:  -12.22 KCAL/MOL
REMARK 923 INTER-LIGAND FREE ENERGY PREDICTED BY IDOCK:  -10.38 KCAL/MOL
REMARK 924 INTRA-LIGAND FREE ENERGY PREDICTED BY IDOCK:   -1.84 KCAL/MOL
REMARK 927      BINDING AFFINITY PREDICTED BY RF-SCORE:    0.00 PKD
ROOT
HETATM    1  C   UNL     1     -10.305  18.231  66.452  1.00  0.00    -0.400 C  
HETATM    2  H   UNL     1     -10.305  16.501  65.578  1.00  0.00     0.000 HD 
HETATM    3  O   UNL     1     -10.472  17.394  65.300  1.00  0.00    -0.654 OA 
ENDROOT
BRANCH   1   4
HETATM    4  C   UNL     1      -8.918  18.043  67.138  1.00  0.00    -0.255 C  
BRANCH   4   5
HETATM    5  C   UNL     1      -7.741  18.590  66.272  1.00  0.00    -0.254 C  
HETATM    6  O   UNL     1      -6.901  17.528  65.794  1.00  0.00    -0.229 OA 
HETATM    7  H   UNL     1      -6.184  17.861  65.267  1.00  0.00     0.000 HD 
BRANCH   5   8
HETATM    8  C   UNL     1      -6.829  19.596  66.987  1.00  0.00    -0.200 C  
HETATM    9  C   UNL     1      -6.842  19.381  68.484  1.00  0.00    -0.291 C  
HETATM   10  O   UNL     1      -7.331  20.914  66.710  1.00  0.00    -0.497 OA 
HETATM   11  O   UNL     1      -6.047  18.637  69.055  1.00  0.00    -0.220 OA 
HETATM   12  H   UNL     1      -6.766  21.537  67.153  1.00  0.00     0.000 HD 
ENDBRANCH   5   8
ENDBRANCH   4   5
BRANCH   4  13
HETATM   13  O   UNL     1      -8.653  16.665  67.493  1.00  0.00    -0.186 OA 
BRANCH  13  14
HETATM   14  C   UNL     1      -9.049  16.296  68.825  1.00  0.00    -0.245 C  
HETATM   15  H   UNL     1      -6.396  13.380  69.460  1.00  0.00     0.000 HD 
HETATM   16  O   UNL     1      -6.707  15.805  69.505  1.00  0.00    -0.169 OA 
HETATM   17  C   UNL     1      -8.047  15.294  69.422  1.00  0.00    -0.230 C  
HETATM   18  O   UNL     1     -10.342  15.713  68.894  1.00  0.00    -0.203 OA 
HETATM   19  O   UNL     1      -7.263  13.026  69.295  1.00  0.00     0.011 OA 
HETATM   20  C   UNL     1     -10.496  14.536  68.095  1.00  0.00    -0.239 C  
HETATM   21  H   UNL     1      -6.088  15.185  69.874  1.00  0.00     0.000 HD 
HETATM   22  C   UNL     1      -8.029  14.021  68.586  1.00  0.00    -0.122 C  
HETATM   23  C   UNL     1      -9.430  13.449  68.319  1.00  0.00    -0.209 C  
BRANCH  20  24
HETATM   24  C   UNL     1     -11.929  14.006  68.331  1.00  0.00    -0.343 C  
HETATM   25  O   UNL     1     -12.607  14.631  69.421  1.00  0.00    -0.570 OA 
HETATM   26  H   UNL     1     -13.488  14.305  69.566  1.00  0.00     0.000 HD 
ENDBRANCH  20  24
BRANCH  23  27
HETATM   27  O   UNL     1      -9.433  12.628  67.118  1.00  0.00    -0.202 OA 
BRANCH  27  28
HETATM   28  C   UNL     1     -10.318  11.504  67.199  1.00  0.00    -0.216 C  
HETATM   29  O   UNL     1     -10.461  10.887  65.928  1.00  0.00    -0.254 OA 
HETATM   30  C   UNL     1      -9.217  10.400  65.418  1.00  0.00    -0.193 C  
HETATM   31  C   UNL     1      -8.696   9.258  66.327  1.00  0.00    -0.142 C  
HETATM   32  C   UNL     1      -9.491  10.000  63.970  1.00  0.00    -0.299 C  
HETATM   33  C   UNL     1      -8.539   9.797  67.775  1.00  0.00    -0.125 C  
HETATM   34  H   UNL     1      -8.191   9.048  69.579  1.00  0.00     0.000 HD 
HETATM   35  C   UNL     1      -9.816  10.497  68.246  1.00  0.00    -0.149 C  
HETATM   36  O   UNL     1      -8.287   8.718  68.693  1.00  0.00    -0.125 OA 
HETATM   37  O   UNL     1      -9.595  11.121  69.523  1.00  0.00    -0.405 OA 
HETATM   38  H   UNL     1      -9.285  10.499  70.170  1.00  0.00     0.000 HD 
BRANCH  31  39
HETATM   39  N   UNL     1      -7.454   8.686  65.754  1.00  0.00    -0.084 NA 
HETATM   40  H   UNL     1      -6.787   9.255  65.231  1.00  0.00     0.000 HD 
BRANCH  39  41
HETATM   41  C   UNL     1      -7.236   7.228  65.986  1.00  0.00    -0.074 C  
HETATM   42  C   UNL     1      -9.137   5.600  65.605  1.00  0.00    -0.110 C  
HETATM   43  C   UNL     1      -8.539   6.561  66.310  1.00  0.00    -0.141 C  
HETATM   44  C   UNL     1      -8.477   4.983  64.402  1.00  0.00    -0.142 C  
HETATM   45  H   UNL     1      -6.183   7.260  62.860  1.00  0.00     0.000 HD 
HETATM   46  O   UNL     1      -6.624   7.603  63.628  1.00  0.00    -0.056 OA 
HETATM   47  C   UNL     1      -6.963   5.277  64.238  1.00  0.00    -0.049 C  
HETATM   48  O   UNL     1      -9.200   5.401  63.248  1.00  0.00    -0.335 OA 
HETATM   49  H   UNL     1      -5.264   4.454  64.816  1.00  0.00     0.000 HD 
HETATM   50  O   UNL     1      -6.191   4.273  64.917  1.00  0.00    -0.028 OA 
HETATM   51  C   UNL     1      -6.509   6.662  64.720  1.00  0.00    -0.042 C  
HETATM   52  H   UNL     1      -8.782   5.011  62.488  1.00  0.00     0.000 HD 
BRANCH  42  53
HETATM   53  C   UNL     1     -10.514   5.067  65.933  1.00  0.00    -0.186 C  
HETATM   54  O   UNL     1     -11.331   6.041  66.576  1.00  0.00    -0.737 OA 
HETATM   55  H   UNL     1     -12.196   5.706  66.782  1.00  0.00     0.000 HD 
ENDBRANCH  42  53
ENDBRANCH  39  41
ENDBRANCH  31  39
ENDBRANCH  27  28
ENDBRANCH  23  27
ENDBRANCH  13  14
ENDBRANCH   4  13
ENDBRANCH   1   4
BRANCH   1  56
HETATM   56  C   UNL     1     -10.573  19.670  66.005  1.00  0.00    -0.483 C  
HETATM   57  O   UNL     1     -10.343  20.549  67.109  1.00  0.00    -0.299 OA 
HETATM   58  H   UNL     1     -10.510  21.443  66.831  1.00  0.00     0.000 HD 
ENDBRANCH   1  56
TORSDOF 12
ENDMDL
MODEL      105
REMARK 921   NORMALIZED FREE ENERGY PREDICTED BY IDOCK:   -5.30 KCAL/MOL
REMARK 922        TOTAL FREE ENERGY PREDICTED BY IDOCK:  -12.22 KCAL/MOL
REMARK 923 INTER-LIGAND FREE ENERGY PREDICTED BY IDOCK:   -9.67 KCAL/MOL
REMARK 924 INTRA-LIGAND FREE ENERGY PREDICTED BY IDOCK:   -2.55 KCAL/MOL
REMARK 927      BINDING AFFINITY PREDICTED BY RF-SCORE:    0.00 PKD
ROOT
HETATM    1  C   UNL     1     -11.028  15.347  65.655  1.00  0.00    -0.326 C  
HETATM    2  H   UNL     1     -12.395  14.110  66.252  1.00  0.00     0.000 HD 
HETATM    3  O   UNL     1     -12.397  14.952  65.813  1.00  0.00    -0.058 OA 
ENDROOT
BRANCH   1   4
HETATM    4  C   UNL     1     -10.170  14.270  64.927  1.00  0.00    -0.329 C  
BRANCH   4   5
HETATM    5  C   UNL     1     -11.037  13.261  64.111  1.00  0.00    -0.365 C  
HETATM    6  O   UNL     1     -12.081  13.930  63.387  1.00  0.00    -0.894 OA 
HETATM    7  H   UNL     1     -12.609  13.315  62.890  1.00  0.00     0.000 HD 
BRANCH   5   8
HETATM    8  C   UNL     1     -11.705  12.163  64.949  1.00  0.00    -0.313 C  
HETATM    9  C   UNL     1     -11.210  10.790  64.550  1.00  0.00     0.632 C  
HETATM   10  O   UNL     1     -13.119  12.226  64.707  1.00  0.00    -0.724 OA 
HETATM   11  O   UNL     1     -10.239  10.254  65.079  1.00  0.00    -0.320 OA 
HETATM   12  H   UNL     1     -13.532  11.547  65.226  1.00  0.00     0.000 HD 
ENDBRANCH   5   8
ENDBRANCH   4   5
BRANCH   4  13
HETATM   13  O   UNL     1      -9.306  13.539  65.831  1.00  0.00    -0.093 OA 
BRANCH  13  14
HETATM   14  C   UNL     1      -9.346  13.984  67.197  1.00  0.00    -0.242 C  
HETATM   15  H   UNL     1      -5.502  13.425  68.127  1.00  0.00     0.000 HD 
HETATM   16  O   UNL     1      -7.067  14.972  67.058  1.00  0.00    -0.289 OA 
HETATM   17  C   UNL     1      -7.922  14.066  67.774  1.00  0.00    -0.171 C  
HETATM   18  O   UNL     1     -10.113  13.145  68.049  1.00  0.00    -0.219 OA 
HETATM   19  O   UNL     1      -6.051  12.754  68.516  1.00  0.00    -0.061 OA 
HETATM   20  C   UNL     1      -9.664  11.786  68.088  1.00  0.00    -0.192 C  
HETATM   21  H   UNL     1      -6.187  15.022  67.414  1.00  0.00     0.000 HD 
HETATM   22  C   UNL     1      -7.281  12.686  67.765  1.00  0.00    -0.127 C  
HETATM   23  C   UNL     1      -8.167  11.599  68.394  1.00  0.00    -0.155 C  
BRANCH  20  24
HETATM   24  C   UNL     1     -10.565  11.035  69.095  1.00  0.00    -0.219 C  
HETATM   25  O   UNL     1     -11.803  10.585  68.541  1.00  0.00    -0.682 OA 
HETATM   26  H   UNL     1     -12.356  10.122  69.161  1.00  0.00     0.000 HD 
ENDBRANCH  20  24
BRANCH  23  27
HETATM   27  O   UNL     1      -7.814  10.283  67.885  1.00  0.00    -0.099 OA 
BRANCH  27  28
HETATM   28  C   UNL     1      -6.526  10.243  67.257  1.00  0.00    -0.067 C  
HETATM   29  O   UNL     1      -5.641   9.404  67.984  1.00  0.00    -0.037 OA 
HETATM   30  C   UNL     1      -6.109   8.055  68.059  1.00  0.00    -0.046 C  
HETATM   31  C   UNL     1      -6.124   7.434  66.639  1.00  0.00    -0.043 C  
HETATM   32  C   UNL     1      -5.195   7.354  69.061  1.00  0.00    -0.015 C  
HETATM   33  C   UNL     1      -7.033   8.295  65.720  1.00  0.00    -0.067 C  
HETATM   34  H   UNL     1      -7.445   8.423  63.784  1.00  0.00     0.000 HD 
HETATM   35  C   UNL     1      -6.652   9.776  65.798  1.00  0.00    -0.088 C  
HETATM   36  O   UNL     1      -6.890   7.896  64.345  1.00  0.00    -0.061 OA 
HETATM   37  O   UNL     1      -7.602  10.569  65.064  1.00  0.00    -0.267 OA 
HETATM   38  H   UNL     1      -7.679  10.281  64.163  1.00  0.00     0.000 HD 
BRANCH  31  39
HETATM   39  N   UNL     1      -6.520   6.007  66.719  1.00  0.00    -0.048 NA 
HETATM   40  H   UNL     1      -5.910   5.257  66.391  1.00  0.00     0.000 HD 
BRANCH  39  41
HETATM   41  C   UNL     1      -7.864   5.731  67.307  1.00  0.00    -0.102 C  
HETATM   42  C   UNL     1      -9.446   4.142  66.131  1.00  0.00    -0.187 C  
HETATM   43  C   UNL     1      -8.819   5.315  66.229  1.00  0.00    -0.130 C  
HETATM   44  C   UNL     1      -9.329   3.098  67.208  1.00  0.00    -0.179 C  
HETATM   45  H   UNL     1      -6.243   3.409  68.999  1.00  0.00     0.000 HD 
HETATM   46  O   UNL     1      -6.366   4.050  68.308  1.00  0.00    -0.035 OA 
HETATM   47  C   UNL     1      -8.736   3.583  68.556  1.00  0.00    -0.100 C  
HETATM   48  O   UNL     1      -8.567   2.015  66.683  1.00  0.00    -0.099 OA 
HETATM   49  H   UNL     1      -9.423   4.349  70.241  1.00  0.00     0.000 HD 
HETATM   50  O   UNL     1      -9.787   4.052  69.415  1.00  0.00    -0.185 OA 
HETATM   51  C   UNL     1      -7.662   4.675  68.444  1.00  0.00    -0.080 C  
HETATM   52  H   UNL     1      -8.493   1.356  67.363  1.00  0.00     0.000 HD 
BRANCH  42  53
HETATM   53  C   UNL     1     -10.298   3.755  64.942  1.00  0.00    -0.082 C  
HETATM   54  O   UNL     1     -11.429   4.607  64.789  1.00  0.00    -0.891 OA 
HETATM   55  H   UNL     1     -11.964   4.364  64.043  1.00  0.00     0.000 HD 
ENDBRANCH  42  53
ENDBRANCH  39  41
ENDBRANCH  31  39
ENDBRANCH  27  28
ENDBRANCH  23  27
ENDBRANCH  13  14
ENDBRANCH   4  13
ENDBRANCH   1   4
BRANCH   1  56
HETATM   56  C   UNL     1     -11.031  16.704  64.947  1.00  0.00    -0.150 C  
HETATM   57  O   UNL     1     -11.613  16.549  63.650  1.00  0.00    -1.468 OA 
HETATM   58  H   UNL     1     -11.616  17.391  63.210  1.00  0.00     0.000 HD 
ENDBRANCH   1  56
TORSDOF 12
ENDMDL
MODEL      106
REMARK 921   NORMALIZED FREE ENERGY PREDICTED BY IDOCK:   -5.30 KCAL/MOL
REMARK 922        TOTAL FREE ENERGY PREDICTED BY IDOCK:  -12.22 KCAL/MOL
REMARK 923 INTER-LIGAND FREE ENERGY PREDICTED BY IDOCK:  -10.40 KCAL/MOL
REMARK 924 INTRA-LIGAND FREE ENERGY PREDICTED BY IDOCK:   -1.81 KCAL/MOL
REMARK 927      BINDING AFFINITY PREDICTED BY RF-SCORE:    0.00 PKD
ROOT
HETATM    1  C   UNL     1      -7.312  16.442  68.575  1.00  0.00    -0.181 C  
HETATM    2  H   UNL     1      -7.883  14.626  68.943  1.00  0.00     0.000 HD 
HETATM    3  O   UNL     1      -7.412  15.294  69.428  1.00  0.00    -0.182 OA 
ENDROOT
BRANCH   1   4
HETATM    4  C   UNL     1      -8.697  16.921  68.044  1.00  0.00    -0.215 C  
BRANCH   4   5
HETATM    5  C   UNL     1      -8.785  18.474  67.913  1.00  0.00    -0.284 C  
HETATM    6  O   UNL     1      -9.962  18.990  68.553  1.00  0.00    -0.379 OA 
HETATM    7  H   UNL     1     -10.015  19.935  68.474  1.00  0.00     0.000 HD 
BRANCH   5   8
HETATM    8  C   UNL     1      -8.792  18.999  66.471  1.00  0.00    -0.327 C  
HETATM    9  C   UNL     1     -10.172  18.907  65.860  1.00  0.00    -0.286 C  
HETATM   10  O   UNL     1      -7.897  18.178  65.703  1.00  0.00    -0.520 OA 
HETATM   11  O   UNL     1     -10.992  19.820  65.929  1.00  0.00    -0.362 OA 
HETATM   12  H   UNL     1      -7.901  18.503  64.810  1.00  0.00     0.000 HD 
ENDBRANCH   5   8
ENDBRANCH   4   5
BRANCH   4  13
HETATM   13  O   UNL     1      -9.801  16.444  68.851  1.00  0.00    -0.238 OA 
BRANCH  13  14
HETATM   14  C   UNL     1     -11.007  16.165  68.121  1.00  0.00    -0.341 C  
HETATM   15  H   UNL     1     -12.877  13.952  70.869  1.00  0.00     0.000 HD 
HETATM   16  O   UNL     1     -12.403  16.249  70.178  1.00  0.00    -0.333 OA 
HETATM   17  C   UNL     1     -12.032  15.468  69.031  1.00  0.00    -0.301 C  
HETATM   18  O   UNL     1     -10.806  15.341  66.981  1.00  0.00    -0.312 OA 
HETATM   19  O   UNL     1     -12.537  13.411  70.166  1.00  0.00    -0.209 OA 
HETATM   20  C   UNL     1     -10.217  14.070  67.275  1.00  0.00    -0.260 C  
HETATM   21  H   UNL     1     -13.036  15.819  70.741  1.00  0.00     0.000 HD 
HETATM   22  C   UNL     1     -11.475  14.136  69.513  1.00  0.00    -0.281 C  
HETATM   23  C   UNL     1     -10.925  13.260  68.376  1.00  0.00    -0.264 C  
BRANCH  20  24
HETATM   24  C   UNL     1     -10.124  13.289  65.944  1.00  0.00    -0.291 C  
HETATM   25  O   UNL     1     -10.092  14.122  64.784  1.00  0.00    -0.554 OA 
HETATM   26  H   UNL     1     -10.035  13.642  63.966  1.00  0.00     0.000 HD 
ENDBRANCH  20  24
BRANCH  23  27
HETATM   27  O   UNL     1      -9.937  12.318  68.880  1.00  0.00    -0.093 OA 
BRANCH  27  28
HETATM   28  C   UNL     1     -10.055  11.009  68.308  1.00  0.00    -0.177 C  
HETATM   29  O   UNL     1      -8.813  10.323  68.369  1.00  0.00    -0.122 OA 
HETATM   30  C   UNL     1      -8.354  10.150  69.712  1.00  0.00    -0.137 C  
HETATM   31  C   UNL     1      -9.329   9.218  70.475  1.00  0.00    -0.264 C  
HETATM   32  C   UNL     1      -6.922   9.632  69.597  1.00  0.00    -0.071 C  
HETATM   33  C   UNL     1     -10.752   9.839  70.442  1.00  0.00    -0.308 C  
HETATM   34  H   UNL     1     -12.598   9.281  70.909  1.00  0.00     0.000 HD 
HETATM   35  C   UNL     1     -11.160  10.209  69.014  1.00  0.00    -0.205 C  
HETATM   36  O   UNL     1     -11.728   8.901  70.930  1.00  0.00    -0.282 OA 
HETATM   37  O   UNL     1     -12.410  10.922  69.027  1.00  0.00    -0.705 OA 
HETATM   38  H   UNL     1     -13.093  10.428  69.463  1.00  0.00     0.000 HD 
BRANCH  31  39
HETATM   39  N   UNL     1      -8.812   8.958  71.841  1.00  0.00    -0.374 NA 
HETATM   40  H   UNL     1      -8.363   9.687  72.396  1.00  0.00     0.000 HD 
BRANCH  39  41
HETATM   41  C   UNL     1      -8.987   7.568  72.355  1.00  0.00    -0.135 C  
HETATM   42  C   UNL     1      -7.800   5.649  71.207  1.00  0.00    -0.111 C  
HETATM   43  C   UNL     1      -8.752   6.582  71.251  1.00  0.00    -0.130 C  
HETATM   44  C   UNL     1      -6.878   5.414  72.373  1.00  0.00    -0.075 C  
HETATM   45  H   UNL     1      -6.482   8.379  74.343  1.00  0.00     0.000 HD 
HETATM   46  O   UNL     1      -7.059   8.475  73.594  1.00  0.00    -0.257 OA 
HETATM   47  C   UNL     1      -7.307   6.062  73.714  1.00  0.00    -0.092 C  
HETATM   48  O   UNL     1      -5.577   5.855  71.993  1.00  0.00    -0.021 OA 
HETATM   49  H   UNL     1      -8.400   5.552  75.278  1.00  0.00     0.000 HD 
HETATM   50  O   UNL     1      -8.137   5.154  74.456  1.00  0.00    -0.101 OA 
HETATM   51  C   UNL     1      -8.035   7.409  73.587  1.00  0.00    -0.115 C  
HETATM   52  H   UNL     1      -4.995   5.706  72.730  1.00  0.00     0.000 HD 
BRANCH  42  53
HETATM   53  C   UNL     1      -7.553   4.773  69.998  1.00  0.00    -0.055 C  
HETATM   54  O   UNL     1      -6.321   4.064  70.088  1.00  0.00    -0.026 OA 
HETATM   55  H   UNL     1      -6.166   3.515  69.329  1.00  0.00     0.000 HD 
ENDBRANCH  42  53
ENDBRANCH  39  41
ENDBRANCH  31  39
ENDBRANCH  27  28
ENDBRANCH  23  27
ENDBRANCH  13  14
ENDBRANCH   4  13
ENDBRANCH   1   4
BRANCH   1  56
HETATM   56  C   UNL     1      -6.555  17.518  69.357  1.00  0.00    -0.207 C  
HETATM   57  O   UNL     1      -5.720  16.883  70.329  1.00  0.00    -0.219 OA 
HETATM   58  H   UNL     1      -5.249  17.551  70.814  1.00  0.00     0.000 HD 
ENDBRANCH   1  56
TORSDOF 12
ENDMDL
MODEL      107
REMARK 921   NORMALIZED FREE ENERGY PREDICTED BY IDOCK:   -5.29 KCAL/MOL
REMARK 922        TOTAL FREE ENERGY PREDICTED BY IDOCK:  -12.19 KCAL/MOL
REMARK 923 INTER-LIGAND FREE ENERGY PREDICTED BY IDOCK:   -8.05 KCAL/MOL
REMARK 924 INTRA-LIGAND FREE ENERGY PREDICTED BY IDOCK:   -4.13 KCAL/MOL
REMARK 927      BINDING AFFINITY PREDICTED BY RF-SCORE:    0.00 PKD
ROOT
HETATM    1  C   UNL     1      -8.069   4.102  64.214  1.00  0.00    -0.091 C  
HETATM    2  H   UNL     1      -6.145   4.079  64.451  1.00  0.00     0.000 HD 
HETATM    3  O   UNL     1      -6.765   3.577  63.934  1.00  0.00    -0.040 OA 
ENDROOT
BRANCH   1   4
HETATM    4  C   UNL     1      -8.165   5.639  63.977  1.00  0.00    -0.102 C  
BRANCH   4   5
HETATM    5  C   UNL     1      -6.819   6.255  63.479  1.00  0.00    -0.045 C  
HETATM    6  O   UNL     1      -5.889   6.428  64.559  1.00  0.00    -0.022 OA 
HETATM    7  H   UNL     1      -5.070   6.803  64.256  1.00  0.00     0.000 HD 
BRANCH   5   8
HETATM    8  C   UNL     1      -6.954   7.613  62.779  1.00  0.00    -0.076 C  
HETATM    9  C   UNL     1      -6.477   8.739  63.669  1.00  0.00    -0.088 C  
HETATM   10  O   UNL     1      -8.345   7.819  62.488  1.00  0.00    -0.305 OA 
HETATM   11  O   UNL     1      -5.314   9.138  63.671  1.00  0.00    -0.061 OA 
HETATM   12  H   UNL     1      -8.428   8.660  62.054  1.00  0.00     0.000 HD 
ENDBRANCH   5   8
ENDBRANCH   4   5
BRANCH   4  13
HETATM   13  O   UNL     1      -8.617   6.358  65.150  1.00  0.00    -0.110 OA 
BRANCH  13  14
HETATM   14  C   UNL     1      -8.499   5.634  66.386  1.00  0.00    -0.121 C  
HETATM   15  H   UNL     1     -12.033   6.585  67.982  1.00  0.00     0.000 HD 
HETATM   16  O   UNL     1     -10.922   5.072  66.416  1.00  0.00    -0.479 OA 
HETATM   17  C   UNL     1      -9.834   5.658  67.148  1.00  0.00    -0.149 C  
HETATM   18  O   UNL     1      -7.494   6.143  67.251  1.00  0.00    -0.079 OA 
HETATM   19  O   UNL     1     -11.328   7.064  68.402  1.00  0.00     0.033 OA 
HETATM   20  C   UNL     1      -7.674   7.516  67.612  1.00  0.00    -0.115 C  
HETATM   21  H   UNL     1     -11.747   5.088  66.887  1.00  0.00     0.000 HD 
HETATM   22  C   UNL     1     -10.204   7.094  67.497  1.00  0.00    -0.212 C  
HETATM   23  C   UNL     1      -9.063   7.868  68.175  1.00  0.00    -0.133 C  
BRANCH  20  24
HETATM   24  C   UNL     1      -6.536   7.885  68.592  1.00  0.00    -0.057 C  
HETATM   25  O   UNL     1      -6.068   9.228  68.456  1.00  0.00    -0.044 OA 
HETATM   26  H   UNL     1      -5.369   9.455  69.059  1.00  0.00     0.000 HD 
ENDBRANCH  20  24
BRANCH  23  27
HETATM   27  O   UNL     1      -9.223   9.301  67.981  1.00  0.00    -0.131 OA 
BRANCH  27  28
HETATM   28  C   UNL     1      -9.312  10.035  69.209  1.00  0.00    -0.214 C  
HETATM   29  O   UNL     1      -8.235  10.954  69.321  1.00  0.00    -0.130 OA 
HETATM   30  C   UNL     1      -8.228  11.915  68.262  1.00  0.00    -0.157 C  
HETATM   31  C   UNL     1      -9.490  12.809  68.368  1.00  0.00    -0.162 C  
HETATM   32  C   UNL     1      -6.899  12.655  68.384  1.00  0.00    -0.090 C  
HETATM   33  C   UNL     1     -10.754  11.909  68.304  1.00  0.00    -0.223 C  
HETATM   34  H   UNL     1     -12.705  12.115  68.594  1.00  0.00     0.000 HD 
HETATM   35  C   UNL     1     -10.664  10.758  69.309  1.00  0.00    -0.229 C  
HETATM   36  O   UNL     1     -11.932  12.665  68.633  1.00  0.00    -0.304 OA 
HETATM   37  O   UNL     1     -11.767   9.854  69.124  1.00  0.00    -0.471 OA 
HETATM   38  H   UNL     1     -12.603  10.300  69.186  1.00  0.00     0.000 HD 
BRANCH  31  39
HETATM   39  N   UNL     1      -9.444  13.867  67.329  1.00  0.00    -0.230 NA 
HETATM   40  H   UNL     1      -9.208  13.661  66.358  1.00  0.00     0.000 HD 
BRANCH  39  41
HETATM   41  C   UNL     1      -9.764  15.250  67.789  1.00  0.00    -0.215 C  
HETATM   42  C   UNL     1      -7.935  16.999  67.866  1.00  0.00    -0.192 C  
HETATM   43  C   UNL     1      -8.532  15.904  68.338  1.00  0.00    -0.176 C  
HETATM   44  C   UNL     1      -8.530  17.791  66.733  1.00  0.00    -0.248 C  
HETATM   45  H   UNL     1     -10.557  15.726  64.623  1.00  0.00     0.000 HD 
HETATM   46  O   UNL     1     -10.160  15.272  65.357  1.00  0.00    -0.354 OA 
HETATM   47  C   UNL     1     -10.006  17.466  66.386  1.00  0.00    -0.316 C  
HETATM   48  O   UNL     1      -7.694  17.614  65.593  1.00  0.00    -0.527 OA 
HETATM   49  H   UNL     1     -11.791  18.101  66.942  1.00  0.00     0.000 HD 
HETATM   50  O   UNL     1     -10.887  18.300  67.155  1.00  0.00    -0.351 OA 
HETATM   51  C   UNL     1     -10.417  15.999  66.580  1.00  0.00    -0.302 C  
HETATM   52  H   UNL     1      -8.070  18.114  64.878  1.00  0.00     0.000 HD 
BRANCH  42  53
HETATM   53  C   UNL     1      -6.621  17.524  68.403  1.00  0.00    -0.190 C  
HETATM   54  O   UNL     1      -6.034  18.493  67.541  1.00  0.00    -0.168 OA 
HETATM   55  H   UNL     1      -5.209  18.822  67.878  1.00  0.00     0.000 HD 
ENDBRANCH  42  53
ENDBRANCH  39  41
ENDBRANCH  31  39
ENDBRANCH  27  28
ENDBRANCH  23  27
ENDBRANCH  13  14
ENDBRANCH   4  13
ENDBRANCH   1   4
BRANCH   1  56
HETATM   56  C   UNL     1      -9.067   3.294  63.380  1.00  0.00    -0.092 C  
HETATM   57  O   UNL     1     -10.289   3.170  64.112  1.00  0.00    -0.286 OA 
HETATM   58  H   UNL     1     -10.908   2.668  63.595  1.00  0.00     0.000 HD 
ENDBRANCH   1  56
TORSDOF 12
ENDMDL
MODEL      108
REMARK 921   NORMALIZED FREE ENERGY PREDICTED BY IDOCK:   -5.28 KCAL/MOL
REMARK 922        TOTAL FREE ENERGY PREDICTED BY IDOCK:  -12.17 KCAL/MOL
REMARK 923 INTER-LIGAND FREE ENERGY PREDICTED BY IDOCK:   -9.33 KCAL/MOL
REMARK 924 INTRA-LIGAND FREE ENERGY PREDICTED BY IDOCK:   -2.84 KCAL/MOL
REMARK 927      BINDING AFFINITY PREDICTED BY RF-SCORE:    0.00 PKD
ROOT
HETATM    1  C   UNL     1     -11.702   7.208  72.327  1.00  0.00    -0.258 C  
HETATM    2  H   UNL     1     -13.133   5.924  72.575  1.00  0.00     0.000 HD 
HETATM    3  O   UNL     1     -12.994   6.675  72.009  1.00  0.00    -0.267 OA 
ENDROOT
BRANCH   1   4
HETATM    4  C   UNL     1     -10.570   6.142  72.232  1.00  0.00    -0.216 C  
BRANCH   4   5
HETATM    5  C   UNL     1      -9.985   5.761  73.629  1.00  0.00    -0.188 C  
HETATM    6  O   UNL     1      -8.585   6.068  73.715  1.00  0.00    -0.124 OA 
HETATM    7  H   UNL     1      -8.229   5.837  74.565  1.00  0.00     0.000 HD 
BRANCH   5   8
HETATM    8  C   UNL     1     -10.145   4.284  74.012  1.00  0.00    -0.167 C  
HETATM    9  C   UNL     1      -9.220   3.403  73.203  1.00  0.00    -0.097 C  
HETATM   10  O   UNL     1     -11.501   3.904  73.730  1.00  0.00    -0.166 OA 
HETATM   11  O   UNL     1      -8.083   3.116  73.572  1.00  0.00    -0.071 OA 
HETATM   12  H   UNL     1     -11.600   2.989  73.968  1.00  0.00     0.000 HD 
ENDBRANCH   5   8
ENDBRANCH   4   5
BRANCH   4  13
HETATM   13  O   UNL     1      -9.491   6.548  71.355  1.00  0.00    -0.159 OA 
BRANCH  13  14
HETATM   14  C   UNL     1      -9.097   5.563  70.385  1.00  0.00    -0.139 C  
HETATM   15  H   UNL     1      -5.184   6.353  70.278  1.00  0.00     0.000 HD 
HETATM   16  O   UNL     1      -6.920   5.158  71.518  1.00  0.00    -0.053 OA 
HETATM   17  C   UNL     1      -7.564   5.501  70.281  1.00  0.00    -0.080 C  
HETATM   18  O   UNL     1      -9.612   5.806  69.084  1.00  0.00    -0.128 OA 
HETATM   19  O   UNL     1      -5.622   6.684  69.503  1.00  0.00    -0.014 OA 
HETATM   20  C   UNL     1      -9.240   7.074  68.535  1.00  0.00    -0.137 C  
HETATM   21  H   UNL     1      -5.972   5.119  71.454  1.00  0.00     0.000 HD 
HETATM   22  C   UNL     1      -7.022   6.843  69.810  1.00  0.00    -0.062 C  
HETATM   23  C   UNL     1      -7.731   7.378  68.555  1.00  0.00    -0.120 C  
BRANCH  20  24
HETATM   24  C   UNL     1      -9.832   7.148  67.109  1.00  0.00    -0.181 C  
HETATM   25  O   UNL     1     -11.229   7.446  67.076  1.00  0.00    -0.491 OA 
HETATM   26  H   UNL     1     -11.592   7.492  66.199  1.00  0.00     0.000 HD 
ENDBRANCH  20  24
BRANCH  23  27
HETATM   27  O   UNL     1      -7.611   8.826  68.470  1.00  0.00    -0.094 OA 
BRANCH  27  28
HETATM   28  C   UNL     1      -6.974   9.275  67.268  1.00  0.00    -0.081 C  
HETATM   29  O   UNL     1      -7.927   9.446  66.230  1.00  0.00    -0.109 OA 
HETATM   30  C   UNL     1      -8.921  10.419  66.562  1.00  0.00    -0.145 C  
HETATM   31  C   UNL     1      -8.257  11.814  66.688  1.00  0.00    -0.117 C  
HETATM   32  C   UNL     1      -9.988  10.308  65.476  1.00  0.00    -0.364 C  
HETATM   33  C   UNL     1      -7.148  11.750  67.774  1.00  0.00    -0.096 C  
HETATM   34  H   UNL     1      -5.674  12.908  68.422  1.00  0.00     0.000 HD 
HETATM   35  C   UNL     1      -6.198  10.577  67.522  1.00  0.00    -0.056 C  
HETATM   36  O   UNL     1      -6.352  12.948  67.758  1.00  0.00    -0.111 OA 
HETATM   37  O   UNL     1      -5.278  10.443  68.620  1.00  0.00    -0.039 OA 
HETATM   38  H   UNL     1      -4.798  11.247  68.778  1.00  0.00     0.000 HD 
BRANCH  31  39
HETATM   39  N   UNL     1      -9.295  12.844  66.941  1.00  0.00    -0.234 NA 
HETATM   40  H   UNL     1      -9.836  12.864  67.805  1.00  0.00     0.000 HD 
BRANCH  39  41
HETATM   41  C   UNL     1      -9.499  13.848  65.856  1.00  0.00    -0.055 C  
HETATM   42  C   UNL     1     -11.488  13.629  64.304  1.00  0.00    -0.393 C  
HETATM   43  C   UNL     1     -10.289  13.238  64.737  1.00  0.00    -0.381 C  
HETATM   44  C   UNL     1     -12.161  14.855  64.860  1.00  0.00    -0.274 C  
HETATM   45  H   UNL     1     -11.086  15.528  68.210  1.00  0.00     0.000 HD 
HETATM   46  O   UNL     1     -10.686  14.763  67.812  1.00  0.00    -0.260 OA 
HETATM   47  C   UNL     1     -11.258  15.801  65.693  1.00  0.00    -0.055 C  
HETATM   48  O   UNL     1     -13.282  14.424  65.628  1.00  0.00    -0.569 OA 
HETATM   49  H   UNL     1     -10.096  17.360  65.345  1.00  0.00     0.000 HD 
HETATM   50  O   UNL     1     -10.649  16.780  64.835  1.00  0.00    -0.702 OA 
HETATM   51  C   UNL     1     -10.159  15.107  66.510  1.00  0.00    -0.269 C  
HETATM   52  H   UNL     1     -13.707  15.198  65.979  1.00  0.00     0.000 HD 
BRANCH  42  53
HETATM   53  C   UNL     1     -12.273  12.881  63.250  1.00  0.00    -0.397 C  
HETATM   54  O   UNL     1     -13.398  12.201  63.796  1.00  0.00    -0.701 OA 
HETATM   55  H   UNL     1     -13.891  11.730  63.134  1.00  0.00     0.000 HD 
ENDBRANCH  42  53
ENDBRANCH  39  41
ENDBRANCH  31  39
ENDBRANCH  27  28
ENDBRANCH  23  27
ENDBRANCH  13  14
ENDBRANCH   4  13
ENDBRANCH   1   4
BRANCH   1  56
HETATM   56  C   UNL     1     -11.478   8.416  71.415  1.00  0.00    -0.277 C  
HETATM   57  O   UNL     1     -11.796   8.047  70.070  1.00  0.00    -0.436 OA 
HETATM   58  H   UNL     1     -11.657   8.798  69.504  1.00  0.00     0.000 HD 
ENDBRANCH   1  56
TORSDOF 12
ENDMDL
MODEL      109
REMARK 921   NORMALIZED FREE ENERGY PREDICTED BY IDOCK:   -5.27 KCAL/MOL
REMARK 922        TOTAL FREE ENERGY PREDICTED BY IDOCK:  -12.16 KCAL/MOL
REMARK 923 INTER-LIGAND FREE ENERGY PREDICTED BY IDOCK:   -9.63 KCAL/MOL
REMARK 924 INTRA-LIGAND FREE ENERGY PREDICTED BY IDOCK:   -2.53 KCAL/MOL
REMARK 927      BINDING AFFINITY PREDICTED BY RF-SCORE:    0.00 PKD
ROOT
HETATM    1  C   UNL     1      -7.261   7.659  73.329  1.00  0.00    -0.089 C  
HETATM    2  H   UNL     1      -8.803   8.277  74.327  1.00  0.00     0.000 HD 
HETATM    3  O   UNL     1      -8.279   8.626  73.615  1.00  0.00    -0.395 OA 
ENDROOT
BRANCH   1   4
HETATM    4  C   UNL     1      -7.839   6.242  73.037  1.00  0.00    -0.103 C  
BRANCH   4   5
HETATM    5  C   UNL     1      -7.055   5.110  73.773  1.00  0.00    -0.082 C  
HETATM    6  O   UNL     1      -6.260   4.340  72.858  1.00  0.00    -0.015 OA 
HETATM    7  H   UNL     1      -5.783   3.651  73.306  1.00  0.00     0.000 HD 
BRANCH   5   8
HETATM    8  C   UNL     1      -7.932   4.120  74.550  1.00  0.00    -0.087 C  
HETATM    9  C   UNL     1      -7.762   2.710  74.029  1.00  0.00    -0.055 C  
HETATM   10  O   UNL     1      -9.302   4.513  74.366  1.00  0.00    -0.115 OA 
HETATM   11  O   UNL     1      -6.924   1.932  74.479  1.00  0.00    -0.025 OA 
HETATM   12  H   UNL     1      -9.845   3.900  74.847  1.00  0.00     0.000 HD 
ENDBRANCH   5   8
ENDBRANCH   4   5
BRANCH   4  13
HETATM   13  O   UNL     1      -7.897   5.943  71.621  1.00  0.00    -0.103 OA 
BRANCH  13  14
HETATM   14  C   UNL     1      -8.700   4.801  71.277  1.00  0.00    -0.123 C  
HETATM   15  H   UNL     1      -8.895   5.369  67.329  1.00  0.00     0.000 HD 
HETATM   16  O   UNL     1      -7.500   4.468  69.123  1.00  0.00    -0.055 OA 
HETATM   17  C   UNL     1      -8.780   4.647  69.749  1.00  0.00    -0.081 C  
HETATM   18  O   UNL     1     -10.027   4.865  71.779  1.00  0.00    -0.175 OA 
HETATM   19  O   UNL     1      -9.716   5.597  67.749  1.00  0.00    -0.116 OA 
HETATM   20  C   UNL     1     -10.762   6.012  71.342  1.00  0.00    -0.259 C  
HETATM   21  H   UNL     1      -7.549   4.373  68.179  1.00  0.00     0.000 HD 
HETATM   22  C   UNL     1      -9.449   5.872  69.140  1.00  0.00    -0.128 C  
HETATM   23  C   UNL     1     -10.777   6.240  69.820  1.00  0.00    -0.297 C  
BRANCH  20  24
HETATM   24  C   UNL     1     -12.187   5.894  71.929  1.00  0.00     0.182 C  
HETATM   25  O   UNL     1     -12.260   5.111  73.122  1.00  0.00    -0.481 OA 
HETATM   26  H   UNL     1     -13.136   5.039  73.483  1.00  0.00     0.000 HD 
ENDBRANCH  20  24
BRANCH  23  27
HETATM   27  O   UNL     1     -11.084   7.649  69.627  1.00  0.00    -0.186 OA 
BRANCH  27  28
HETATM   28  C   UNL     1     -10.648   8.480  70.710  1.00  0.00    -0.206 C  
HETATM   29  O   UNL     1      -9.351   8.996  70.453  1.00  0.00    -0.175 OA 
HETATM   30  C   UNL     1      -9.310   9.799  69.271  1.00  0.00    -0.191 C  
HETATM   31  C   UNL     1     -10.178  11.067  69.476  1.00  0.00     0.005 C  
HETATM   32  C   UNL     1      -7.831  10.066  69.002  1.00  0.00    -0.101 C  
HETATM   33  C   UNL     1     -11.631  10.635  69.814  1.00  0.00    -0.309 C  
HETATM   34  H   UNL     1     -13.299  11.501  70.448  1.00  0.00     0.000 HD 
HETATM   35  C   UNL     1     -11.653   9.617  70.956  1.00  0.00    -0.359 C  
HETATM   36  O   UNL     1     -12.410  11.766  70.242  1.00  0.00    -0.294 OA 
HETATM   37  O   UNL     1     -12.989   9.116  71.146  1.00  0.00    -0.468 OA 
HETATM   38  H   UNL     1     -13.610   9.818  71.298  1.00  0.00     0.000 HD 
BRANCH  31  39
HETATM   39  N   UNL     1     -10.067  11.950  68.289  1.00  0.00    -0.199 NA 
HETATM   40  H   UNL     1      -9.602  12.857  68.333  1.00  0.00     0.000 HD 
BRANCH  39  41
HETATM   41  C   UNL     1     -10.676  11.433  67.029  1.00  0.00    -0.261 C  
HETATM   42  C   UNL     1     -11.812  13.040  65.435  1.00  0.00    -0.428 C  
HETATM   43  C   UNL     1     -11.772  12.351  66.577  1.00  0.00    -0.443 C  
HETATM   44  C   UNL     1     -10.750  12.876  64.383  1.00  0.00    -0.386 C  
HETATM   45  H   UNL     1      -7.635  11.847  65.820  1.00  0.00     0.000 HD 
HETATM   46  O   UNL     1      -8.341  11.962  66.446  1.00  0.00    -0.118 OA 
HETATM   47  C   UNL     1      -9.821  11.645  64.547  1.00  0.00    -0.224 C  
HETATM   48  O   UNL     1      -9.989  14.080  64.343  1.00  0.00    -0.702 OA 
HETATM   49  H   UNL     1      -9.810   9.759  63.963  1.00  0.00     0.000 HD 
HETATM   50  O   UNL     1     -10.380  10.513  63.862  1.00  0.00    -0.262 OA 
HETATM   51  C   UNL     1      -9.514  11.246  65.998  1.00  0.00    -0.216 C  
HETATM   52  H   UNL     1      -9.318  13.976  63.678  1.00  0.00     0.000 HD 
BRANCH  42  53
HETATM   53  C   UNL     1     -12.898  14.042  65.111  1.00  0.00    -0.334 C  
HETATM   54  O   UNL     1     -12.661  14.712  63.877  1.00  0.00    -0.814 OA 
HETATM   55  H   UNL     1     -13.343  15.342  63.673  1.00  0.00     0.000 HD 
ENDBRANCH  42  53
ENDBRANCH  39  41
ENDBRANCH  31  39
ENDBRANCH  27  28
ENDBRANCH  23  27
ENDBRANCH  13  14
ENDBRANCH   4  13
ENDBRANCH   1   4
BRANCH   1  56
HETATM   56  C   UNL     1      -6.418   8.221  72.181  1.00  0.00    -0.069 C  
HETATM   57  O   UNL     1      -6.809   9.575  71.939  1.00  0.00    -0.292 OA 
HETATM   58  H   UNL     1      -6.286   9.924  71.226  1.00  0.00     0.000 HD 
ENDBRANCH   1  56
TORSDOF 12
ENDMDL
MODEL      110
REMARK 921   NORMALIZED FREE ENERGY PREDICTED BY IDOCK:   -5.26 KCAL/MOL
REMARK 922        TOTAL FREE ENERGY PREDICTED BY IDOCK:  -12.15 KCAL/MOL
REMARK 923 INTER-LIGAND FREE ENERGY PREDICTED BY IDOCK:  -10.59 KCAL/MOL
REMARK 924 INTRA-LIGAND FREE ENERGY PREDICTED BY IDOCK:   -1.56 KCAL/MOL
REMARK 927      BINDING AFFINITY PREDICTED BY RF-SCORE:    0.00 PKD
ROOT
HETATM    1  C   UNL     1      -6.715  11.120  68.345  1.00  0.00    -0.060 C  
HETATM    2  H   UNL     1      -7.290  11.603  70.132  1.00  0.00     0.000 HD 
HETATM    3  O   UNL     1      -7.186  12.069  69.310  1.00  0.00    -0.052 OA 
ENDROOT
BRANCH   1   4
HETATM    4  C   UNL     1      -7.632   9.865  68.235  1.00  0.00    -0.080 C  
BRANCH   4   5
HETATM    5  C   UNL     1      -7.072   8.641  69.025  1.00  0.00    -0.065 C  
HETATM    6  O   UNL     1      -7.460   7.400  68.416  1.00  0.00    -0.100 OA 
HETATM    7  H   UNL     1      -7.119   6.654  68.896  1.00  0.00     0.000 HD 
BRANCH   5   8
HETATM    8  C   UNL     1      -7.500   8.573  70.496  1.00  0.00    -0.062 C  
HETATM    9  C   UNL     1      -8.809   9.298  70.721  1.00  0.00    -0.225 C  
HETATM   10  O   UNL     1      -6.482   9.216  71.278  1.00  0.00    -0.079 OA 
HETATM   11  O   UNL     1      -9.901   8.740  70.638  1.00  0.00    -0.174 OA 
HETATM   12  H   UNL     1      -6.747   9.174  72.189  1.00  0.00     0.000 HD 
ENDBRANCH   5   8
ENDBRANCH   4   5
BRANCH   4  13
HETATM   13  O   UNL     1      -7.885   9.477  66.863  1.00  0.00    -0.100 OA 
BRANCH  13  14
HETATM   14  C   UNL     1      -9.135   8.801  66.647  1.00  0.00    -0.158 C  
HETATM   15  H   UNL     1     -10.012  10.290  63.047  1.00  0.00     0.000 HD 
HETATM   16  O   UNL     1      -8.715   8.571  64.206  1.00  0.00    -0.397 OA 
HETATM   17  C   UNL     1      -9.629   9.039  65.210  1.00  0.00     0.080 C  
HETATM   18  O   UNL     1     -10.165   9.208  67.535  1.00  0.00    -0.212 OA 
HETATM   19  O   UNL     1     -10.548  10.688  63.723  1.00  0.00    -0.191 OA 
HETATM   20  C   UNL     1     -10.459  10.608  67.486  1.00  0.00    -0.230 C  
HETATM   21  H   UNL     1      -9.020   8.719  63.318  1.00  0.00     0.000 HD 
HETATM   22  C   UNL     1      -9.873  10.525  64.987  1.00  0.00    -0.306 C  
HETATM   23  C   UNL     1     -10.740  11.169  66.081  1.00  0.00    -0.225 C  
BRANCH  20  24
HETATM   24  C   UNL     1     -11.629  10.866  68.463  1.00  0.00    -0.290 C  
HETATM   25  O   UNL     1     -11.269  11.643  69.607  1.00  0.00    -0.378 OA 
HETATM   26  H   UNL     1     -11.988  11.801  70.207  1.00  0.00     0.000 HD 
ENDBRANCH  20  24
BRANCH  23  27
HETATM   27  O   UNL     1     -10.492  12.601  66.162  1.00  0.00    -0.250 OA 
BRANCH  27  28
HETATM   28  C   UNL     1     -11.681  13.375  66.359  1.00  0.00    -0.368 C  
HETATM   29  O   UNL     1     -11.617  14.087  67.586  1.00  0.00    -0.313 OA 
HETATM   30  C   UNL     1     -10.517  14.999  67.628  1.00  0.00    -0.247 C  
HETATM   31  C   UNL     1     -10.725  16.109  66.566  1.00  0.00    -0.220 C  
HETATM   32  C   UNL     1     -10.441  15.491  69.071  1.00  0.00    -0.231 C  
HETATM   33  C   UNL     1     -10.858  15.451  65.165  1.00  0.00    -0.431 C  
HETATM   34  H   UNL     1     -11.367  16.014  63.333  1.00  0.00     0.000 HD 
HETATM   35  C   UNL     1     -11.903  14.333  65.178  1.00  0.00    -0.384 C  
HETATM   36  O   UNL     1     -11.285  16.417  64.189  1.00  0.00    -0.882 OA 
HETATM   37  O   UNL     1     -11.898  13.637  63.919  1.00  0.00    -0.559 OA 
HETATM   38  H   UNL     1     -12.035  14.229  63.189  1.00  0.00     0.000 HD 
BRANCH  31  39
HETATM   39  N   UNL     1      -9.634  17.110  66.665  1.00  0.00    -0.256 NA 
HETATM   40  H   UNL     1      -8.923  17.207  65.940  1.00  0.00     0.000 HD 
BRANCH  39  41
HETATM   41  C   UNL     1      -9.640  17.966  67.887  1.00  0.00    -0.286 C  
HETATM   42  C   UNL     1      -7.623  19.399  68.423  1.00  0.00    -0.356 C  
HETATM   43  C   UNL     1      -8.234  18.217  68.343  1.00  0.00    -0.314 C  
HETATM   44  C   UNL     1      -8.358  20.683  68.147  1.00  0.00     0.280 C  
HETATM   45  H   UNL     1     -11.098  20.159  65.901  1.00  0.00     0.000 HD 
HETATM   46  O   UNL     1     -10.603  19.375  66.110  1.00  0.00    -0.463 OA 
HETATM   47  C   UNL     1      -9.904  20.578  68.101  1.00  0.00    -0.076 C  
HETATM   48  O   UNL     1      -7.852  21.218  66.927  1.00  0.00    -0.681 OA 
HETATM   49  H   UNL     1     -11.398  20.727  69.383  1.00  0.00     0.000 HD 
HETATM   50  O   UNL     1     -10.450  20.791  69.412  1.00  0.00     0.201 OA 
HETATM   51  C   UNL     1     -10.455  19.257  67.543  1.00  0.00    -0.459 C  
HETATM   52  H   UNL     1      -8.317  22.028  66.752  1.00  0.00     0.000 HD 
BRANCH  42  53
HETATM   53  C   UNL     1      -6.159  19.553  68.774  1.00  0.00    -0.246 C  
HETATM   54  O   UNL     1      -5.674  18.465  69.554  1.00  0.00    -0.224 OA 
HETATM   55  H   UNL     1      -4.755  18.562  69.775  1.00  0.00     0.000 HD 
ENDBRANCH  42  53
ENDBRANCH  39  41
ENDBRANCH  31  39
ENDBRANCH  27  28
ENDBRANCH  23  27
ENDBRANCH  13  14
ENDBRANCH   4  13
ENDBRANCH   1   4
BRANCH   1  56
HETATM   56  C   UNL     1      -6.548  11.870  67.022  1.00  0.00    -0.128 C  
HETATM   57  O   UNL     1      -7.689  12.709  66.818  1.00  0.00    -0.389 OA 
HETATM   58  H   UNL     1      -7.585  13.175  65.996  1.00  0.00     0.000 HD 
ENDBRANCH   1  56
TORSDOF 12
ENDMDL
MODEL      111
REMARK 921   NORMALIZED FREE ENERGY PREDICTED BY IDOCK:   -5.25 KCAL/MOL
REMARK 922        TOTAL FREE ENERGY PREDICTED BY IDOCK:  -12.13 KCAL/MOL
REMARK 923 INTER-LIGAND FREE ENERGY PREDICTED BY IDOCK:   -9.88 KCAL/MOL
REMARK 924 INTRA-LIGAND FREE ENERGY PREDICTED BY IDOCK:   -2.25 KCAL/MOL
REMARK 927      BINDING AFFINITY PREDICTED BY RF-SCORE:    0.00 PKD
ROOT
HETATM    1  C   UNL     1     -10.249  16.493  66.841  1.00  0.00    -0.296 C  
HETATM    2  H   UNL     1      -9.519  15.958  65.127  1.00  0.00     0.000 HD 
HETATM    3  O   UNL     1      -9.771  16.785  65.522  1.00  0.00    -0.537 OA 
ENDROOT
BRANCH   1   4
HETATM    4  C   UNL     1      -9.221  15.689  67.691  1.00  0.00    -0.193 C  
BRANCH   4   5
HETATM    5  C   UNL     1      -7.774  15.759  67.108  1.00  0.00    -0.219 C  
HETATM    6  O   UNL     1      -7.146  14.468  67.102  1.00  0.00    -0.328 OA 
HETATM    7  H   UNL     1      -6.266  14.510  66.747  1.00  0.00     0.000 HD 
BRANCH   5   8
HETATM    8  C   UNL     1      -6.828  16.714  67.848  1.00  0.00    -0.144 C  
HETATM    9  C   UNL     1      -6.846  16.460  69.339  1.00  0.00    -0.217 C  
HETATM   10  O   UNL     1      -7.285  18.055  67.608  1.00  0.00    -0.201 OA 
HETATM   11  O   UNL     1      -6.076  15.675  69.888  1.00  0.00    -0.151 OA 
HETATM   12  H   UNL     1      -6.699  18.646  68.065  1.00  0.00     0.000 HD 
ENDBRANCH   5   8
ENDBRANCH   4   5
BRANCH   4  13
HETATM   13  O   UNL     1      -9.602  14.302  67.864  1.00  0.00    -0.210 OA 
BRANCH  13  14
HETATM   14  C   UNL     1     -10.306  13.725  66.752  1.00  0.00    -0.272 C  
HETATM   15  H   UNL     1     -13.062  11.670  68.782  1.00  0.00     0.000 HD 
HETATM   16  O   UNL     1     -12.499  13.886  67.914  1.00  0.00    -0.436 OA 
HETATM   17  C   UNL     1     -11.579  13.014  67.237  1.00  0.00    -0.356 C  
HETATM   18  O   UNL     1      -9.536  12.786  66.015  1.00  0.00    -0.246 OA 
HETATM   19  O   UNL     1     -12.395  11.093  68.430  1.00  0.00    -0.556 OA 
HETATM   20  C   UNL     1      -9.056  11.686  66.793  1.00  0.00    -0.186 C  
HETATM   21  H   UNL     1     -13.286  13.446  68.215  1.00  0.00     0.000 HD 
HETATM   22  C   UNL     1     -11.209  11.876  68.179  1.00  0.00    -0.258 C  
HETATM   23  C   UNL     1     -10.129  10.943  67.609  1.00  0.00    -0.179 C  
BRANCH  20  24
HETATM   24  C   UNL     1      -8.296  10.742  65.833  1.00  0.00    -0.162 C  
HETATM   25  O   UNL     1      -6.931  11.109  65.619  1.00  0.00    -0.373 OA 
HETATM   26  H   UNL     1      -6.465  10.528  65.029  1.00  0.00     0.000 HD 
ENDBRANCH  20  24
BRANCH  23  27
HETATM   27  O   UNL     1      -9.419  10.259  68.680  1.00  0.00    -0.155 OA 
BRANCH  27  28
HETATM   28  C   UNL     1      -8.933   8.965  68.304  1.00  0.00    -0.137 C  
HETATM   29  O   UNL     1      -8.005   8.481  69.264  1.00  0.00    -0.107 OA 
HETATM   30  C   UNL     1      -8.587   8.345  70.562  1.00  0.00    -0.134 C  
HETATM   31  C   UNL     1      -9.684   7.250  70.524  1.00  0.00    -0.176 C  
HETATM   32  C   UNL     1      -7.425   8.062  71.510  1.00  0.00    -0.076 C  
HETATM   33  C   UNL     1     -10.752   7.640  69.465  1.00  0.00    -0.209 C  
HETATM   34  H   UNL     1     -12.309   6.786  68.582  1.00  0.00     0.000 HD 
HETATM   35  C   UNL     1     -10.099   7.981  68.123  1.00  0.00    -0.197 C  
HETATM   36  O   UNL     1     -11.656   6.547  69.229  1.00  0.00    -0.309 OA 
HETATM   37  O   UNL     1     -11.088   8.488  67.209  1.00  0.00    -0.401 OA 
HETATM   38  H   UNL     1     -11.809   7.880  67.097  1.00  0.00     0.000 HD 
BRANCH  31  39
HETATM   39  N   UNL     1     -10.230   7.037  71.887  1.00  0.00    -0.188 NA 
HETATM   40  H   UNL     1     -10.391   7.812  72.531  1.00  0.00     0.000 HD 
BRANCH  39  41
HETATM   41  C   UNL     1     -10.530   5.624  72.259  1.00  0.00    -0.213 C  
HETATM   42  C   UNL     1      -8.823   3.814  71.787  1.00  0.00    -0.137 C  
HETATM   43  C   UNL     1      -9.747   4.688  71.388  1.00  0.00    -0.246 C  
HETATM   44  C   UNL     1      -8.529   3.596  73.247  1.00  0.00    -0.087 C  
HETATM   45  H   UNL     1      -9.284   6.514  75.181  1.00  0.00     0.000 HD 
HETATM   46  O   UNL     1      -9.456   6.601  74.251  1.00  0.00    -0.200 OA 
HETATM   47  C   UNL     1      -9.571   4.175  74.238  1.00  0.00    -0.110 C  
HETATM   48  O   UNL     1      -7.232   4.123  73.513  1.00  0.00    -0.066 OA 
HETATM   49  H   UNL     1     -11.225   3.552  75.119  1.00  0.00     0.000 HD 
HETATM   50  O   UNL     1     -10.587   3.197  74.511  1.00  0.00    -0.181 OA 
HETATM   51  C   UNL     1     -10.246   5.480  73.792  1.00  0.00    -0.227 C  
HETATM   52  H   UNL     1      -7.047   3.985  74.434  1.00  0.00     0.000 HD 
BRANCH  42  53
HETATM   53  C   UNL     1      -7.989   2.994  70.828  1.00  0.00    -0.046 C  
HETATM   54  O   UNL     1      -7.173   2.041  71.502  1.00  0.00    -0.031 OA 
HETATM   55  H   UNL     1      -6.649   1.526  70.900  1.00  0.00     0.000 HD 
ENDBRANCH  42  53
ENDBRANCH  39  41
ENDBRANCH  31  39
ENDBRANCH  27  28
ENDBRANCH  23  27
ENDBRANCH  13  14
ENDBRANCH   4  13
ENDBRANCH   1   4
BRANCH   1  56
HETATM   56  C   UNL     1     -10.655  17.825  67.477  1.00  0.00    -0.359 C  
HETATM   57  O   UNL     1     -10.075  17.912  68.781  1.00  0.00    -0.367 OA 
HETATM   58  H   UNL     1     -10.326  18.739  69.176  1.00  0.00     0.000 HD 
ENDBRANCH   1  56
TORSDOF 12
ENDMDL
MODEL      112
REMARK 921   NORMALIZED FREE ENERGY PREDICTED BY IDOCK:   -5.23 KCAL/MOL
REMARK 922        TOTAL FREE ENERGY PREDICTED BY IDOCK:  -12.10 KCAL/MOL
REMARK 923 INTER-LIGAND FREE ENERGY PREDICTED BY IDOCK:  -11.96 KCAL/MOL
REMARK 924 INTRA-LIGAND FREE ENERGY PREDICTED BY IDOCK:   -0.13 KCAL/MOL
REMARK 927      BINDING AFFINITY PREDICTED BY RF-SCORE:    0.00 PKD
ROOT
HETATM    1  C   UNL     1     -11.995  14.073  65.519  1.00  0.00    -0.384 C  
HETATM    2  H   UNL     1     -13.102  13.615  67.043  1.00  0.00     0.000 HD 
HETATM    3  O   UNL     1     -12.639  13.121  66.376  1.00  0.00    -0.332 OA 
ENDROOT
BRANCH   1   4
HETATM    4  C   UNL     1     -11.083  15.067  66.300  1.00  0.00    -0.334 C  
BRANCH   4   5
HETATM    5  C   UNL     1     -11.119  16.509  65.704  1.00  0.00     0.089 C  
HETATM    6  O   UNL     1     -10.910  16.497  64.283  1.00  0.00    -1.050 OA 
HETATM    7  H   UNL     1     -10.932  17.375  63.921  1.00  0.00     0.000 HD 
BRANCH   5   8
HETATM    8  C   UNL     1     -10.091  17.478  66.301  1.00  0.00    -0.336 C  
HETATM    9  C   UNL     1     -10.463  18.917  66.019  1.00  0.00    -0.446 C  
HETATM   10  O   UNL     1      -8.823  17.205  65.684  1.00  0.00    -0.482 OA 
HETATM   11  O   UNL     1     -11.160  19.584  66.780  1.00  0.00    -0.374 OA 
HETATM   12  H   UNL     1      -8.186  17.805  66.055  1.00  0.00     0.000 HD 
ENDBRANCH   5   8
ENDBRANCH   4   5
BRANCH   4  13
HETATM   13  O   UNL     1      -9.709  14.616  66.383  1.00  0.00    -0.267 OA 
BRANCH  13  14
HETATM   14  C   UNL     1      -9.208  14.448  67.720  1.00  0.00    -0.192 C  
HETATM   15  H   UNL     1      -5.629  12.915  66.835  1.00  0.00     0.000 HD 
HETATM   16  O   UNL     1      -6.882  15.005  67.038  1.00  0.00    -0.313 OA 
HETATM   17  C   UNL     1      -7.726  14.041  67.687  1.00  0.00    -0.177 C  
HETATM   18  O   UNL     1      -9.912  13.471  68.474  1.00  0.00    -0.234 OA 
HETATM   19  O   UNL     1      -6.218  12.245  67.162  1.00  0.00    -0.150 OA 
HETATM   20  C   UNL     1      -9.912  12.167  67.884  1.00  0.00    -0.200 C  
HETATM   21  H   UNL     1      -5.966  14.753  67.017  1.00  0.00     0.000 HD 
HETATM   22  C   UNL     1      -7.572  12.705  66.974  1.00  0.00     0.013 C  
HETATM   23  C   UNL     1      -8.525  11.621  67.502  1.00  0.00    -0.150 C  
BRANCH  20  24
HETATM   24  C   UNL     1     -10.664  11.225  68.852  1.00  0.00    -0.207 C  
HETATM   25  O   UNL     1     -11.944  11.714  69.259  1.00  0.00    -0.320 OA 
HETATM   26  H   UNL     1     -12.406  11.135  69.854  1.00  0.00     0.000 HD 
ENDBRANCH  20  24
BRANCH  23  27
HETATM   27  O   UNL     1      -8.759  10.600  66.491  1.00  0.00    -0.139 OA 
BRANCH  27  28
HETATM   28  C   UNL     1      -7.768   9.565  66.488  1.00  0.00    -0.097 C  
HETATM   29  O   UNL     1      -7.269   9.346  67.799  1.00  0.00    -0.081 OA 
HETATM   30  C   UNL     1      -8.293   8.938  68.709  1.00  0.00    -0.123 C  
HETATM   31  C   UNL     1      -8.838   7.551  68.285  1.00  0.00    -0.125 C  
HETATM   32  C   UNL     1      -7.657   8.986  70.096  1.00  0.00    -0.082 C  
HETATM   33  C   UNL     1      -9.380   7.643  66.832  1.00  0.00    -0.161 C  
HETATM   34  H   UNL     1     -10.008   6.390  65.428  1.00  0.00     0.000 HD 
HETATM   35  C   UNL     1      -8.344   8.269  65.896  1.00  0.00    -0.129 C  
HETATM   36  O   UNL     1      -9.677   6.333  66.317  1.00  0.00    -0.136 OA 
HETATM   37  O   UNL     1      -8.922   8.487  64.596  1.00  0.00    -0.420 OA 
HETATM   38  H   UNL     1      -9.277   7.687  64.230  1.00  0.00     0.000 HD 
BRANCH  31  39
HETATM   39  N   UNL     1      -9.836   7.078  69.276  1.00  0.00    -0.158 NA 
HETATM   40  H   UNL     1     -10.466   6.300  69.079  1.00  0.00     0.000 HD 
BRANCH  39  41
HETATM   41  C   UNL     1      -9.863   7.808  70.577  1.00  0.00    -0.182 C  
HETATM   42  C   UNL     1     -12.073   8.193  71.753  1.00  0.00    -0.357 C  
HETATM   43  C   UNL     1     -11.203   8.451  70.775  1.00  0.00    -0.290 C  
HETATM   44  C   UNL     1     -11.733   7.251  72.876  1.00  0.00    -0.015 C  
HETATM   45  H   UNL     1      -9.316   4.814  71.850  1.00  0.00     0.000 HD 
HETATM   46  O   UNL     1      -9.562   5.436  71.175  1.00  0.00    -0.155 OA 
HETATM   47  C   UNL     1     -10.235   6.875  73.012  1.00  0.00    -0.218 C  
HETATM   48  O   UNL     1     -12.533   6.082  72.719  1.00  0.00    -0.485 OA 
HETATM   49  H   UNL     1      -8.652   7.581  73.959  1.00  0.00     0.000 HD 
HETATM   50  O   UNL     1      -9.570   7.812  73.876  1.00  0.00    -0.245 OA 
HETATM   51  C   UNL     1      -9.460   6.784  71.690  1.00  0.00    -0.155 C  
HETATM   52  H   UNL     1     -12.318   5.487  73.428  1.00  0.00     0.000 HD 
BRANCH  42  53
HETATM   53  C   UNL     1     -13.458   8.797  71.810  1.00  0.00    -0.393 C  
HETATM   54  O   UNL     1     -14.137   8.477  73.020  1.00  0.00    -0.874 OA 
HETATM   55  H   UNL     1     -15.008   8.856  73.055  1.00  0.00     0.000 HD 
ENDBRANCH  42  53
ENDBRANCH  39  41
ENDBRANCH  31  39
ENDBRANCH  27  28
ENDBRANCH  23  27
ENDBRANCH  13  14
ENDBRANCH   4  13
ENDBRANCH   1   4
BRANCH   1  56
HETATM   56  C   UNL     1     -11.249  13.277  64.445  1.00  0.00    -0.381 C  
HETATM   57  O   UNL     1      -9.972  13.881  64.225  1.00  0.00    -0.714 OA 
HETATM   58  H   UNL     1      -9.508  13.387  63.558  1.00  0.00     0.000 HD 
ENDBRANCH   1  56
TORSDOF 12
ENDMDL
MODEL      113
REMARK 921   NORMALIZED FREE ENERGY PREDICTED BY IDOCK:   -5.23 KCAL/MOL
REMARK 922        TOTAL FREE ENERGY PREDICTED BY IDOCK:  -12.09 KCAL/MOL
REMARK 923 INTER-LIGAND FREE ENERGY PREDICTED BY IDOCK:  -10.35 KCAL/MOL
REMARK 924 INTRA-LIGAND FREE ENERGY PREDICTED BY IDOCK:   -1.74 KCAL/MOL
REMARK 927      BINDING AFFINITY PREDICTED BY RF-SCORE:    0.00 PKD
ROOT
HETATM    1  C   UNL     1      -8.811   4.106  68.952  1.00  0.00    -0.102 C  
HETATM    2  H   UNL     1      -7.034   4.868  68.814  1.00  0.00     0.000 HD 
HETATM    3  O   UNL     1      -7.385   3.986  68.864  1.00  0.00    -0.054 OA 
ENDROOT
BRANCH   1   4
HETATM    4  C   UNL     1      -9.418   4.951  67.792  1.00  0.00    -0.138 C  
BRANCH   4   5
HETATM    5  C   UNL     1      -8.430   5.129  66.597  1.00  0.00    -0.107 C  
HETATM    6  O   UNL     1      -7.916   6.469  66.534  1.00  0.00    -0.105 OA 
HETATM    7  H   UNL     1      -7.315   6.577  65.807  1.00  0.00     0.000 HD 
BRANCH   5   8
HETATM    8  C   UNL     1      -9.024   4.811  65.219  1.00  0.00    -0.151 C  
HETATM    9  C   UNL     1      -8.501   3.495  64.687  1.00  0.00    -0.096 C  
HETATM   10  O   UNL     1      -8.626   5.857  64.319  1.00  0.00    -0.332 OA 
HETATM   11  O   UNL     1      -9.063   2.422  64.898  1.00  0.00    -0.124 OA 
HETATM   12  H   UNL     1      -8.994   5.660  63.466  1.00  0.00     0.000 HD 
ENDBRANCH   5   8
ENDBRANCH   4   5
BRANCH   4  13
HETATM   13  O   UNL     1      -9.879   6.252  68.232  1.00  0.00    -0.121 OA 
BRANCH  13  14
HETATM   14  C   UNL     1      -9.709   6.512  69.635  1.00  0.00    -0.156 C  
HETATM   15  H   UNL     1     -12.778   9.011  70.164  1.00  0.00     0.000 HD 
HETATM   16  O   UNL     1     -12.163   6.649  70.020  1.00  0.00    -0.605 OA 
HETATM   17  C   UNL     1     -10.901   7.317  70.177  1.00  0.00    -0.256 C  
HETATM   18  O   UNL     1      -8.523   7.229  69.943  1.00  0.00    -0.136 OA 
HETATM   19  O   UNL     1     -11.951   9.479  70.158  1.00  0.00    -0.087 OA 
HETATM   20  C   UNL     1      -8.422   8.498  69.291  1.00  0.00    -0.128 C  
HETATM   21  H   UNL     1     -12.900   7.147  70.355  1.00  0.00     0.000 HD 
HETATM   22  C   UNL     1     -10.977   8.665  69.473  1.00  0.00    -0.055 C  
HETATM   23  C   UNL     1      -9.640   9.423  69.464  1.00  0.00    -0.180 C  
BRANCH  20  24
HETATM   24  C   UNL     1      -7.112   9.161  69.777  1.00  0.00    -0.061 C  
HETATM   25  O   UNL     1      -7.289  10.477  70.303  1.00  0.00    -0.405 OA 
HETATM   26  H   UNL     1      -6.484  10.884  70.602  1.00  0.00     0.000 HD 
ENDBRANCH  20  24
BRANCH  23  27
HETATM   27  O   UNL     1      -9.588  10.369  68.360  1.00  0.00    -0.141 OA 
BRANCH  27  28
HETATM   28  C   UNL     1     -10.674  10.225  67.436  1.00  0.00    -0.281 C  
HETATM   29  O   UNL     1     -11.597  11.294  67.578  1.00  0.00    -0.508 OA 
HETATM   30  C   UNL     1     -10.998  12.567  67.321  1.00  0.00    -0.261 C  
HETATM   31  C   UNL     1     -10.569  12.644  65.833  1.00  0.00    -0.273 C  
HETATM   32  C   UNL     1     -12.032  13.605  67.750  1.00  0.00    -0.387 C  
HETATM   33  C   UNL     1      -9.580  11.485  65.531  1.00  0.00    -0.227 C  
HETATM   34  H   UNL     1      -8.737  10.668  63.933  1.00  0.00     0.000 HD 
HETATM   35  C   UNL     1     -10.147  10.141  65.994  1.00  0.00    -0.248 C  
HETATM   36  O   UNL     1      -9.341  11.378  64.117  1.00  0.00    -0.162 OA 
HETATM   37  O   UNL     1      -9.155   9.110  65.848  1.00  0.00    -0.175 OA 
HETATM   38  H   UNL     1      -8.830   9.058  64.957  1.00  0.00     0.000 HD 
BRANCH  31  39
HETATM   39  N   UNL     1     -10.031  13.994  65.535  1.00  0.00    -0.477 NA 
HETATM   40  H   UNL     1      -9.777  14.278  64.589  1.00  0.00     0.000 HD 
BRANCH  39  41
HETATM   41  C   UNL     1      -9.884  14.914  66.702  1.00  0.00    -0.260 C  
HETATM   42  C   UNL     1      -7.644  15.998  67.168  1.00  0.00    -0.246 C  
HETATM   43  C   UNL     1      -8.455  14.940  67.155  1.00  0.00    -0.244 C  
HETATM   44  C   UNL     1      -8.140  17.371  66.805  1.00  0.00    -0.250 C  
HETATM   45  H   UNL     1     -10.932  17.200  64.567  1.00  0.00     0.000 HD 
HETATM   46  O   UNL     1     -10.583  16.356  64.830  1.00  0.00    -0.676 OA 
HETATM   47  C   UNL     1      -9.681  17.539  66.749  1.00  0.00    -0.295 C  
HETATM   48  O   UNL     1      -7.549  17.731  65.559  1.00  0.00    -0.489 OA 
HETATM   49  H   UNL     1     -11.124  18.031  68.005  1.00  0.00     0.000 HD 
HETATM   50  O   UNL     1     -10.180  17.928  68.039  1.00  0.00    -0.337 OA 
HETATM   51  C   UNL     1     -10.457  16.304  66.269  1.00  0.00    -0.308 C  
HETATM   52  H   UNL     1      -7.863  18.598  65.330  1.00  0.00     0.000 HD 
BRANCH  42  53
HETATM   53  C   UNL     1      -6.176  15.913  67.524  1.00  0.00    -0.158 C  
HETATM   54  O   UNL     1      -5.937  15.032  68.617  1.00  0.00    -0.083 OA 
HETATM   55  H   UNL     1      -5.014  14.978  68.841  1.00  0.00     0.000 HD 
ENDBRANCH  42  53
ENDBRANCH  39  41
ENDBRANCH  31  39
ENDBRANCH  27  28
ENDBRANCH  23  27
ENDBRANCH  13  14
ENDBRANCH   4  13
ENDBRANCH   1   4
BRANCH   1  56
HETATM   56  C   UNL     1      -9.377   2.685  69.030  1.00  0.00    -0.143 C  
HETATM   57  O   UNL     1      -9.417   2.129  67.713  1.00  0.00    -0.320 OA 
HETATM   58  H   UNL     1      -9.768   1.247  67.762  1.00  0.00     0.000 HD 
ENDBRANCH   1  56
TORSDOF 12
ENDMDL
MODEL      114
REMARK 921   NORMALIZED FREE ENERGY PREDICTED BY IDOCK:   -5.15 KCAL/MOL
REMARK 922        TOTAL FREE ENERGY PREDICTED BY IDOCK:  -11.96 KCAL/MOL
REMARK 923 INTER-LIGAND FREE ENERGY PREDICTED BY IDOCK:   -8.33 KCAL/MOL
REMARK 924 INTRA-LIGAND FREE ENERGY PREDICTED BY IDOCK:   -3.63 KCAL/MOL
REMARK 927      BINDING AFFINITY PREDICTED BY RF-SCORE:    0.00 PKD
ROOT
HETATM    1  C   UNL     1      -9.005   3.873  70.023  1.00  0.00    -0.100 C  
HETATM    2  H   UNL     1      -7.285   4.477  70.684  1.00  0.00     0.000 HD 
HETATM    3  O   UNL     1      -7.678   3.630  70.509  1.00  0.00    -0.046 OA 
ENDROOT
BRANCH   1   4
HETATM    4  C   UNL     1      -9.032   4.834  68.797  1.00  0.00    -0.106 C  
BRANCH   4   5
HETATM    5  C   UNL     1      -7.631   4.991  68.126  1.00  0.00    -0.079 C  
HETATM    6  O   UNL     1      -6.797   5.904  68.855  1.00  0.00    -0.061 OA 
HETATM    7  H   UNL     1      -5.945   5.999  68.447  1.00  0.00     0.000 HD 
BRANCH   5   8
HETATM    8  C   UNL     1      -7.665   5.477  66.671  1.00  0.00    -0.100 C  
HETATM    9  C   UNL     1      -6.750   6.664  66.467  1.00  0.00    -0.056 C  
HETATM   10  O   UNL     1      -9.012   5.882  66.378  1.00  0.00    -0.131 OA 
HETATM   11  O   UNL     1      -5.572   6.546  66.135  1.00  0.00    -0.013 OA 
HETATM   12  H   UNL     1      -9.033   6.183  65.477  1.00  0.00     0.000 HD 
ENDBRANCH   5   8
ENDBRANCH   4   5
BRANCH   4  13
HETATM   13  O   UNL     1      -9.556   6.144  69.125  1.00  0.00    -0.133 OA 
BRANCH  13  14
HETATM   14  C   UNL     1      -9.788   6.369  70.525  1.00  0.00    -0.183 C  
HETATM   15  H   UNL     1     -12.617   9.172  70.224  1.00  0.00     0.000 HD 
HETATM   16  O   UNL     1     -12.219   6.759  70.172  1.00  0.00    -0.634 OA 
HETATM   17  C   UNL     1     -11.004   7.290  70.723  1.00  0.00    -0.251 C  
HETATM   18  O   UNL     1      -8.684   6.955  71.200  1.00  0.00    -0.134 OA 
HETATM   19  O   UNL     1     -11.785   9.550  70.483  1.00  0.00    -0.265 OA 
HETATM   20  C   UNL     1      -8.270   8.214  70.659  1.00  0.00    -0.114 C  
HETATM   21  H   UNL     1     -12.971   7.329  70.294  1.00  0.00     0.000 HD 
HETATM   22  C   UNL     1     -10.735   8.646  70.084  1.00  0.00    -0.234 C  
HETATM   23  C   UNL     1      -9.389   9.259  70.503  1.00  0.00    -0.264 C  
BRANCH  20  24
HETATM   24  C   UNL     1      -7.107   8.730  71.538  1.00  0.00    -0.083 C  
HETATM   25  O   UNL     1      -6.549   9.967  71.093  1.00  0.00    -0.325 OA 
HETATM   26  H   UNL     1      -5.835  10.285  71.633  1.00  0.00     0.000 HD 
ENDBRANCH  20  24
BRANCH  23  27
HETATM   27  O   UNL     1      -8.918  10.206  69.503  1.00  0.00    -0.192 OA 
BRANCH  27  28
HETATM   28  C   UNL     1      -8.805   9.640  68.192  1.00  0.00    -0.119 C  
HETATM   29  O   UNL     1      -9.933   9.983  67.400  1.00  0.00    -0.180 OA 
HETATM   30  C   UNL     1     -10.070  11.396  67.233  1.00  0.00    -0.192 C  
HETATM   31  C   UNL     1      -8.868  11.939  66.418  1.00  0.00    -0.152 C  
HETATM   32  C   UNL     1     -11.437  11.607  66.586  1.00  0.00    -0.280 C  
HETATM   33  C   UNL     1      -7.551  11.584  67.162  1.00  0.00    -0.149 C  
HETATM   34  H   UNL     1      -5.604  11.641  66.787  1.00  0.00     0.000 HD 
HETATM   35  C   UNL     1      -7.502  10.096  67.518  1.00  0.00    -0.090 C  
HETATM   36  O   UNL     1      -6.409  11.858  66.332  1.00  0.00    -0.032 OA 
HETATM   37  O   UNL     1      -6.353   9.823  68.339  1.00  0.00    -0.054 OA 
HETATM   38  H   UNL     1      -5.547  10.105  67.923  1.00  0.00     0.000 HD 
BRANCH  31  39
HETATM   39  N   UNL     1      -9.048  13.388  66.161  1.00  0.00    -0.468 NA 
HETATM   40  H   UNL     1      -9.083  13.769  65.214  1.00  0.00     0.000 HD 
BRANCH  39  41
HETATM   41  C   UNL     1      -9.175  14.258  67.367  1.00  0.00    -0.200 C  
HETATM   42  C   UNL     1      -7.992  16.495  67.430  1.00  0.00    -0.175 C  
HETATM   43  C   UNL     1      -7.985  15.162  67.473  1.00  0.00    -0.194 C  
HETATM   44  C   UNL     1      -9.280  17.271  67.370  1.00  0.00    -0.231 C  
HETATM   45  H   UNL     1     -11.890  15.350  65.844  1.00  0.00     0.000 HD 
HETATM   46  O   UNL     1     -11.055  14.901  65.908  1.00  0.00    -0.330 OA 
HETATM   47  C   UNL     1     -10.566  16.469  67.698  1.00  0.00    -0.321 C  
HETATM   48  O   UNL     1      -9.371  17.862  66.076  1.00  0.00    -0.508 OA 
HETATM   49  H   UNL     1     -11.626  16.040  69.307  1.00  0.00     0.000 HD 
HETATM   50  O   UNL     1     -10.838  16.532  69.107  1.00  0.00    -0.310 OA 
HETATM   51  C   UNL     1     -10.550  14.997  67.260  1.00  0.00    -0.279 C  
HETATM   52  H   UNL     1     -10.184  18.351  66.038  1.00  0.00     0.000 HD 
BRANCH  42  53
HETATM   53  C   UNL     1      -6.731  17.331  67.419  1.00  0.00    -0.151 C  
HETATM   54  O   UNL     1      -5.793  16.879  66.448  1.00  0.00    -0.320 OA 
HETATM   55  H   UNL     1      -5.000  17.403  66.442  1.00  0.00     0.000 HD 
ENDBRANCH  42  53
ENDBRANCH  39  41
ENDBRANCH  31  39
ENDBRANCH  27  28
ENDBRANCH  23  27
ENDBRANCH  13  14
ENDBRANCH   4  13
ENDBRANCH   1   4
BRANCH   1  56
HETATM   56  C   UNL     1      -9.638   2.509  69.742  1.00  0.00     0.013 C  
HETATM   57  O   UNL     1      -9.824   2.367  68.331  1.00  0.00    -0.100 OA 
HETATM   58  H   UNL     1     -10.216   1.519  68.156  1.00  0.00     0.000 HD 
ENDBRANCH   1  56
TORSDOF 12
ENDMDL
MODEL      115
REMARK 921   NORMALIZED FREE ENERGY PREDICTED BY IDOCK:   -5.15 KCAL/MOL
REMARK 922        TOTAL FREE ENERGY PREDICTED BY IDOCK:  -11.96 KCAL/MOL
REMARK 923 INTER-LIGAND FREE ENERGY PREDICTED BY IDOCK:  -10.04 KCAL/MOL
REMARK 924 INTRA-LIGAND FREE ENERGY PREDICTED BY IDOCK:   -1.92 KCAL/MOL
REMARK 927      BINDING AFFINITY PREDICTED BY RF-SCORE:    0.00 PKD
ROOT
HETATM    1  C   UNL     1      -9.510  18.849  66.164  1.00  0.00    -0.215 C  
HETATM    2  H   UNL     1      -7.897  19.350  65.213  1.00  0.00     0.000 HD 
HETATM    3  O   UNL     1      -8.536  19.813  65.743  1.00  0.00    -0.377 OA 
ENDROOT
BRANCH   1   4
HETATM    4  C   UNL     1      -8.874  17.624  66.887  1.00  0.00    -0.246 C  
BRANCH   4   5
HETATM    5  C   UNL     1      -7.317  17.713  66.961  1.00  0.00    -0.191 C  
HETATM    6  O   UNL     1      -6.695  16.592  66.314  1.00  0.00    -0.162 OA 
HETATM    7  H   UNL     1      -5.748  16.646  66.360  1.00  0.00     0.000 HD 
BRANCH   5   8
HETATM    8  C   UNL     1      -6.745  17.785  68.383  1.00  0.00    -0.213 C  
HETATM    9  C   UNL     1      -7.284  16.670  69.250  1.00  0.00    -0.200 C  
HETATM   10  O   UNL     1      -7.147  19.041  68.952  1.00  0.00    -0.305 OA 
HETATM   11  O   UNL     1      -6.728  15.578  69.352  1.00  0.00    -0.145 OA 
HETATM   12  H   UNL     1      -6.792  19.087  69.832  1.00  0.00     0.000 HD 
ENDBRANCH   5   8
ENDBRANCH   4   5
BRANCH   4  13
HETATM   13  O   UNL     1      -9.255  16.362  66.287  1.00  0.00    -0.269 OA 
BRANCH  13  14
HETATM   14  C   UNL     1     -10.668  16.100  66.275  1.00  0.00    -0.213 C  
HETATM   15  H   UNL     1     -10.887  13.805  69.535  1.00  0.00     0.000 HD 
HETATM   16  O   UNL     1     -10.807  16.122  68.758  1.00  0.00    -0.272 OA 
HETATM   17  C   UNL     1     -11.088  15.375  67.564  1.00  0.00    -0.315 C  
HETATM   18  O   UNL     1     -11.092  15.310  65.173  1.00  0.00    -0.370 OA 
HETATM   19  O   UNL     1     -10.964  13.285  68.744  1.00  0.00    -0.249 OA 
HETATM   20  C   UNL     1     -10.452  14.033  65.089  1.00  0.00    -0.397 C  
HETATM   21  H   UNL     1     -11.066  15.674  69.555  1.00  0.00     0.000 HD 
HETATM   22  C   UNL     1     -10.380  14.031  67.656  1.00  0.00    -0.242 C  
HETATM   23  C   UNL     1     -10.503  13.190  66.376  1.00  0.00    -0.282 C  
BRANCH  20  24
HETATM   24  C   UNL     1     -11.066  13.291  63.880  1.00  0.00    -0.239 C  
HETATM   25  O   UNL     1     -12.265  13.886  63.382  1.00  0.00    -1.003 OA 
HETATM   26  H   UNL     1     -12.642  13.430  62.638  1.00  0.00     0.000 HD 
ENDBRANCH  20  24
BRANCH  23  27
HETATM   27  O   UNL     1      -9.409  12.236  66.275  1.00  0.00    -0.232 OA 
BRANCH  27  28
HETATM   28  C   UNL     1      -9.014  11.687  67.539  1.00  0.00    -0.165 C  
HETATM   29  O   UNL     1      -9.774  10.526  67.839  1.00  0.00    -0.151 OA 
HETATM   30  C   UNL     1      -9.598   9.494  66.865  1.00  0.00    -0.165 C  
HETATM   31  C   UNL     1      -8.131   8.995  66.900  1.00  0.00    -0.112 C  
HETATM   32  C   UNL     1     -10.649   8.435  67.189  1.00  0.00    -0.326 C  
HETATM   33  C   UNL     1      -7.182  10.195  66.629  1.00  0.00    -0.105 C  
HETATM   34  H   UNL     1      -5.235  10.562  66.718  1.00  0.00     0.000 HD 
HETATM   35  C   UNL     1      -7.509  11.376  67.545  1.00  0.00    -0.113 C  
HETATM   36  O   UNL     1      -5.815   9.828  66.884  1.00  0.00    -0.050 OA 
HETATM   37  O   UNL     1      -6.726  12.523  67.171  1.00  0.00    -0.275 OA 
HETATM   38  H   UNL     1      -5.796  12.331  67.175  1.00  0.00     0.000 HD 
BRANCH  31  39
HETATM   39  N   UNL     1      -7.963   7.862  65.958  1.00  0.00    -0.098 NA 
HETATM   40  H   UNL     1      -8.183   7.948  64.965  1.00  0.00     0.000 HD 
BRANCH  39  41
HETATM   41  C   UNL     1      -7.452   6.590  66.547  1.00  0.00    -0.086 C  
HETATM   42  C   UNL     1      -9.041   5.053  67.781  1.00  0.00    -0.123 C  
HETATM   43  C   UNL     1      -8.321   6.172  67.695  1.00  0.00    -0.112 C  
HETATM   44  C   UNL     1      -8.968   3.989  66.719  1.00  0.00    -0.131 C  
HETATM   45  H   UNL     1      -8.068   5.377  63.542  1.00  0.00     0.000 HD 
HETATM   46  O   UNL     1      -8.125   6.010  64.249  1.00  0.00    -0.126 OA 
HETATM   47  C   UNL     1      -7.785   4.111  65.724  1.00  0.00    -0.090 C  
HETATM   48  O   UNL     1     -10.212   3.982  66.025  1.00  0.00    -0.415 OA 
HETATM   49  H   UNL     1      -5.921   3.470  65.614  1.00  0.00     0.000 HD 
HETATM   50  O   UNL     1      -6.645   3.395  66.225  1.00  0.00    -0.036 OA 
HETATM   51  C   UNL     1      -7.360   5.547  65.384  1.00  0.00    -0.072 C  
HETATM   52  H   UNL     1     -10.165   3.310  65.355  1.00  0.00     0.000 HD 
BRANCH  42  53
HETATM   53  C   UNL     1      -9.992   4.765  68.922  1.00  0.00    -0.126 C  
HETATM   54  O   UNL     1     -11.144   5.601  68.888  1.00  0.00    -0.182 OA 
HETATM   55  H   UNL     1     -11.741   5.421  69.606  1.00  0.00     0.000 HD 
ENDBRANCH  42  53
ENDBRANCH  39  41
ENDBRANCH  31  39
ENDBRANCH  27  28
ENDBRANCH  23  27
ENDBRANCH  13  14
ENDBRANCH   4  13
ENDBRANCH   1   4
BRANCH   1  56
HETATM   56  C   UNL     1     -10.539  19.594  67.018  1.00  0.00    -0.480 C  
HETATM   57  O   UNL     1     -10.560  19.017  68.326  1.00  0.00    -0.363 OA 
HETATM   58  H   UNL     1     -11.198  19.479  68.857  1.00  0.00     0.000 HD 
ENDBRANCH   1  56
TORSDOF 12
ENDMDL
MODEL      116
REMARK 921   NORMALIZED FREE ENERGY PREDICTED BY IDOCK:   -5.14 KCAL/MOL
REMARK 922        TOTAL FREE ENERGY PREDICTED BY IDOCK:  -11.95 KCAL/MOL
REMARK 923 INTER-LIGAND FREE ENERGY PREDICTED BY IDOCK:   -9.66 KCAL/MOL
REMARK 924 INTRA-LIGAND FREE ENERGY PREDICTED BY IDOCK:   -2.29 KCAL/MOL
REMARK 927      BINDING AFFINITY PREDICTED BY RF-SCORE:    0.00 PKD
ROOT
HETATM    1  C   UNL     1      -7.975  16.248  67.420  1.00  0.00    -0.155 C  
HETATM    2  H   UNL     1      -7.408  17.805  66.414  1.00  0.00     0.000 HD 
HETATM    3  O   UNL     1      -7.009  16.976  66.651  1.00  0.00    -0.202 OA 
ENDROOT
BRANCH   1   4
HETATM    4  C   UNL     1      -9.339  16.092  66.683  1.00  0.00    -0.243 C  
BRANCH   4   5
HETATM    5  C   UNL     1     -10.396  17.144  67.145  1.00  0.00    -0.307 C  
HETATM    6  O   UNL     1     -10.234  18.391  66.452  1.00  0.00    -0.370 OA 
HETATM    7  H   UNL     1     -10.877  19.031  66.733  1.00  0.00     0.000 HD 
BRANCH   5   8
HETATM    8  C   UNL     1     -10.377  17.458  68.646  1.00  0.00    -0.364 C  
HETATM    9  C   UNL     1      -9.084  18.133  69.050  1.00  0.00    -0.038 C  
HETATM   10  O   UNL     1     -10.483  16.213  69.355  1.00  0.00    -0.242 OA 
HETATM   11  O   UNL     1      -8.943  19.354  69.048  1.00  0.00    -0.349 OA 
HETATM   12  H   UNL     1     -10.471  16.408  70.285  1.00  0.00     0.000 HD 
ENDBRANCH   5   8
ENDBRANCH   4   5
BRANCH   4  13
HETATM   13  O   UNL     1      -9.897  14.761  66.816  1.00  0.00    -0.241 OA 
BRANCH  13  14
HETATM   14  C   UNL     1     -11.226  14.608  66.291  1.00  0.00    -0.340 C  
HETATM   15  H   UNL     1     -12.662  12.068  69.018  1.00  0.00     0.000 HD 
HETATM   16  O   UNL     1     -12.222  14.430  68.564  1.00  0.00    -0.555 OA 
HETATM   17  C   UNL     1     -12.099  13.810  67.274  1.00  0.00    -0.357 C  
HETATM   18  O   UNL     1     -11.270  13.948  65.034  1.00  0.00    -0.317 OA 
HETATM   19  O   UNL     1     -12.479  11.624  68.198  1.00  0.00    -0.215 OA 
HETATM   20  C   UNL     1     -10.694  12.638  65.042  1.00  0.00    -0.293 C  
HETATM   21  H   UNL     1     -12.761  13.937  69.171  1.00  0.00     0.000 HD 
HETATM   22  C   UNL     1     -11.522  12.413  67.462  1.00  0.00    -0.346 C  
HETATM   23  C   UNL     1     -11.225  11.695  66.136  1.00  0.00    -0.254 C  
BRANCH  20  24
HETATM   24  C   UNL     1     -10.876  12.049  63.624  1.00  0.00    -0.446 C  
HETATM   25  O   UNL     1     -10.777  10.624  63.571  1.00  0.00    -0.467 OA 
HETATM   26  H   UNL     1     -10.890  10.263  62.700  1.00  0.00     0.000 HD 
ENDBRANCH  20  24
BRANCH  23  27
HETATM   27  O   UNL     1     -10.204  10.674  66.318  1.00  0.00    -0.233 OA 
BRANCH  27  28
HETATM   28  C   UNL     1      -9.261  10.989  67.350  1.00  0.00    -0.151 C  
HETATM   29  O   UNL     1      -9.640  10.380  68.575  1.00  0.00    -0.147 OA 
HETATM   30  C   UNL     1      -9.691   8.954  68.481  1.00  0.00    -0.161 C  
HETATM   31  C   UNL     1      -8.267   8.403  68.217  1.00  0.00    -0.124 C  
HETATM   32  C   UNL     1     -10.340   8.476  69.777  1.00  0.00    -0.212 C  
HETATM   33  C   UNL     1      -7.712   9.035  66.911  1.00  0.00    -0.098 C  
HETATM   34  H   UNL     1      -5.976   9.122  65.957  1.00  0.00     0.000 HD 
HETATM   35  C   UNL     1      -7.845  10.559  66.937  1.00  0.00    -0.117 C  
HETATM   36  O   UNL     1      -6.314   8.735  66.756  1.00  0.00    -0.058 OA 
HETATM   37  O   UNL     1      -7.472  11.108  65.660  1.00  0.00    -0.366 OA 
HETATM   38  H   UNL     1      -6.597  10.843  65.404  1.00  0.00     0.000 HD 
BRANCH  31  39
HETATM   39  N   UNL     1      -8.296   6.919  68.209  1.00  0.00    -0.122 NA 
HETATM   40  H   UNL     1      -8.182   6.372  69.063  1.00  0.00     0.000 HD 
BRANCH  39  41
HETATM   41  C   UNL     1      -8.501   6.275  66.879  1.00  0.00    -0.109 C  
HETATM   42  C   UNL     1      -7.750   3.885  66.515  1.00  0.00    -0.089 C  
HETATM   43  C   UNL     1      -7.494   5.183  66.679  1.00  0.00    -0.087 C  
HETATM   44  C   UNL     1      -9.160   3.371  66.406  1.00  0.00    -0.158 C  
HETATM   45  H   UNL     1     -11.465   5.517  68.112  1.00  0.00     0.000 HD 
HETATM   46  O   UNL     1     -10.559   5.801  68.149  1.00  0.00    -0.218 OA 
HETATM   47  C   UNL     1     -10.251   4.444  66.158  1.00  0.00    -0.203 C  
HETATM   48  O   UNL     1      -9.443   2.628  67.588  1.00  0.00    -0.309 OA 
HETATM   49  H   UNL     1     -11.105   5.298  64.596  1.00  0.00     0.000 HD 
HETATM   50  O   UNL     1     -10.436   4.640  64.747  1.00  0.00     0.013 OA 
HETATM   51  C   UNL     1      -9.993   5.806  66.819  1.00  0.00    -0.175 C  
HETATM   52  H   UNL     1     -10.334   2.304  67.520  1.00  0.00     0.000 HD 
BRANCH  42  53
HETATM   53  C   UNL     1      -6.668   2.829  66.443  1.00  0.00    -0.043 C  
HETATM   54  O   UNL     1      -7.199   1.509  66.482  1.00  0.00    -0.049 OA 
HETATM   55  H   UNL     1      -6.520   0.846  66.437  1.00  0.00     0.000 HD 
ENDBRANCH  42  53
ENDBRANCH  39  41
ENDBRANCH  31  39
ENDBRANCH  27  28
ENDBRANCH  23  27
ENDBRANCH  13  14
ENDBRANCH   4  13
ENDBRANCH   1   4
BRANCH   1  56
HETATM   56  C   UNL     1      -7.332  14.912  67.802  1.00  0.00    -0.166 C  
HETATM   57  O   UNL     1      -8.056  14.346  68.897  1.00  0.00    -0.175 OA 
HETATM   58  H   UNL     1      -7.657  13.516  69.134  1.00  0.00     0.000 HD 
ENDBRANCH   1  56
TORSDOF 12
ENDMDL
MODEL      117
REMARK 921   NORMALIZED FREE ENERGY PREDICTED BY IDOCK:   -5.14 KCAL/MOL
REMARK 922        TOTAL FREE ENERGY PREDICTED BY IDOCK:  -11.93 KCAL/MOL
REMARK 923 INTER-LIGAND FREE ENERGY PREDICTED BY IDOCK:  -10.18 KCAL/MOL
REMARK 924 INTRA-LIGAND FREE ENERGY PREDICTED BY IDOCK:   -1.75 KCAL/MOL
REMARK 927      BINDING AFFINITY PREDICTED BY RF-SCORE:    0.00 PKD
ROOT
HETATM    1  C   UNL     1     -11.658   6.546  70.387  1.00  0.00    -0.407 C  
HETATM    2  H   UNL     1     -10.461   7.388  69.116  1.00  0.00     0.000 HD 
HETATM    3  O   UNL     1     -11.065   7.701  69.779  1.00  0.00    -0.212 OA 
ENDROOT
BRANCH   1   4
HETATM    4  C   UNL     1     -10.600   5.543  70.936  1.00  0.00    -0.239 C  
BRANCH   4   5
HETATM    5  C   UNL     1     -10.340   5.722  72.465  1.00  0.00    -0.198 C  
HETATM    6  O   UNL     1      -8.987   6.125  72.726  1.00  0.00    -0.128 OA 
HETATM    7  H   UNL     1      -8.829   6.234  73.656  1.00  0.00     0.000 HD 
BRANCH   5   8
HETATM    8  C   UNL     1     -10.607   4.471  73.313  1.00  0.00    -0.216 C  
HETATM    9  C   UNL     1     -10.294   3.208  72.543  1.00  0.00    -0.106 C  
HETATM   10  O   UNL     1     -12.003   4.464  73.654  1.00  0.00    -0.198 OA 
HETATM   11  O   UNL     1      -9.185   2.676  72.561  1.00  0.00    -0.081 OA 
HETATM   12  H   UNL     1     -12.168   3.690  74.179  1.00  0.00     0.000 HD 
ENDBRANCH   5   8
ENDBRANCH   4   5
BRANCH   4  13
HETATM   13  O   UNL     1      -9.340   5.614  70.224  1.00  0.00    -0.147 OA 
BRANCH  13  14
HETATM   14  C   UNL     1      -9.061   4.488  69.376  1.00  0.00    -0.112 C  
HETATM   15  H   UNL     1      -5.445   5.586  68.085  1.00  0.00     0.000 HD 
HETATM   16  O   UNL     1      -6.638   4.524  69.937  1.00  0.00    -0.031 OA 
HETATM   17  C   UNL     1      -7.608   4.543  68.877  1.00  0.00    -0.060 C  
HETATM   18  O   UNL     1      -9.909   4.407  68.239  1.00  0.00    -0.138 OA 
HETATM   19  O   UNL     1      -6.102   5.707  67.409  1.00  0.00    -0.027 OA 
HETATM   20  C   UNL     1      -9.864   5.561  67.394  1.00  0.00    -0.148 C  
HETATM   21  H   UNL     1      -5.740   4.559  69.629  1.00  0.00     0.000 HD 
HETATM   22  C   UNL     1      -7.393   5.801  68.046  1.00  0.00    -0.073 C  
HETATM   23  C   UNL     1      -8.455   5.996  66.954  1.00  0.00    -0.109 C  
BRANCH  20  24
HETATM   24  C   UNL     1     -10.792   5.283  66.189  1.00  0.00    -0.075 C  
HETATM   25  O   UNL     1     -10.578   4.011  65.573  1.00  0.00    -0.474 OA 
HETATM   26  H   UNL     1     -11.149   3.841  64.833  1.00  0.00     0.000 HD 
ENDBRANCH  20  24
BRANCH  23  27
HETATM   27  O   UNL     1      -8.565   7.399  66.583  1.00  0.00    -0.118 OA 
BRANCH  27  28
HETATM   28  C   UNL     1      -7.453   8.192  67.019  1.00  0.00    -0.088 C  
HETATM   29  O   UNL     1      -6.786   8.771  65.907  1.00  0.00    -0.067 OA 
HETATM   30  C   UNL     1      -7.640   9.633  65.151  1.00  0.00    -0.114 C  
HETATM   31  C   UNL     1      -8.042  10.853  66.018  1.00  0.00    -0.142 C  
HETATM   32  C   UNL     1      -6.865   9.971  63.879  1.00  0.00    -0.126 C  
HETATM   33  C   UNL     1      -8.750  10.348  67.305  1.00  0.00    -0.125 C  
HETATM   34  H   UNL     1      -9.360  11.114  69.030  1.00  0.00     0.000 HD 
HETATM   35  C   UNL     1      -7.916   9.273  68.007  1.00  0.00    -0.100 C  
HETATM   36  O   UNL     1      -8.928  11.423  68.243  1.00  0.00    -0.162 OA 
HETATM   37  O   UNL     1      -8.659   8.711  69.104  1.00  0.00    -0.126 OA 
HETATM   38  H   UNL     1      -8.945   9.379  69.715  1.00  0.00     0.000 HD 
BRANCH  31  39
HETATM   39  N   UNL     1      -8.852  11.799  65.211  1.00  0.00    -0.375 NA 
HETATM   40  H   UNL     1      -8.421  12.505  64.614  1.00  0.00     0.000 HD 
BRANCH  39  41
HETATM   41  C   UNL     1     -10.333  11.655  65.325  1.00  0.00    -0.269 C  
HETATM   42  C   UNL     1     -11.743  13.665  65.945  1.00  0.00    -0.378 C  
HETATM   43  C   UNL     1     -10.878  12.698  66.254  1.00  0.00    -0.300 C  
HETATM   44  C   UNL     1     -12.372  13.747  64.580  1.00  0.00    -0.372 C  
HETATM   45  H   UNL     1     -10.274  12.267  62.084  1.00  0.00     0.000 HD 
HETATM   46  O   UNL     1      -9.921  12.236  62.966  1.00  0.00    -0.320 OA 
HETATM   47  C   UNL     1     -12.225  12.485  63.692  1.00  0.00    -0.550 C  
HETATM   48  O   UNL     1     -11.834  14.892  63.923  1.00  0.00    -0.792 OA 
HETATM   49  H   UNL     1     -13.239  10.821  63.372  1.00  0.00     0.000 HD 
HETATM   50  O   UNL     1     -13.329  11.594  63.917  1.00  0.00    -0.379 OA 
HETATM   51  C   UNL     1     -10.914  11.706  63.873  1.00  0.00    -0.407 C  
HETATM   52  H   UNL     1     -12.231  14.944  63.062  1.00  0.00     0.000 HD 
BRANCH  42  53
HETATM   53  C   UNL     1     -12.148  14.755  66.913  1.00  0.00    -0.090 C  
HETATM   54  O   UNL     1     -12.317  14.263  68.238  1.00  0.00    -0.592 OA 
HETATM   55  H   UNL     1     -12.572  14.948  68.846  1.00  0.00     0.000 HD 
ENDBRANCH  42  53
ENDBRANCH  39  41
ENDBRANCH  31  39
ENDBRANCH  27  28
ENDBRANCH  23  27
ENDBRANCH  13  14
ENDBRANCH   4  13
ENDBRANCH   1   4
BRANCH   1  56
HETATM   56  C   UNL     1     -12.631   7.050  71.456  1.00  0.00    -0.385 C  
HETATM   57  O   UNL     1     -13.875   7.379  70.831  1.00  0.00    -0.623 OA 
HETATM   58  H   UNL     1     -14.479   7.692  71.495  1.00  0.00     0.000 HD 
ENDBRANCH   1  56
TORSDOF 12
ENDMDL
MODEL      118
REMARK 921   NORMALIZED FREE ENERGY PREDICTED BY IDOCK:   -5.13 KCAL/MOL
REMARK 922        TOTAL FREE ENERGY PREDICTED BY IDOCK:  -11.93 KCAL/MOL
REMARK 923 INTER-LIGAND FREE ENERGY PREDICTED BY IDOCK:   -9.64 KCAL/MOL
REMARK 924 INTRA-LIGAND FREE ENERGY PREDICTED BY IDOCK:   -2.28 KCAL/MOL
REMARK 927      BINDING AFFINITY PREDICTED BY RF-SCORE:    0.00 PKD
ROOT
HETATM    1  C   UNL     1     -11.033  15.986  70.004  1.00  0.00    -0.365 C  
HETATM    2  H   UNL     1     -11.790  15.682  71.762  1.00  0.00     0.000 HD 
HETATM    3  O   UNL     1     -11.483  16.444  71.285  1.00  0.00    -0.396 OA 
ENDROOT
BRANCH   1   4
HETATM    4  C   UNL     1     -12.119  15.172  69.239  1.00  0.00    -0.244 C  
BRANCH   4   5
HETATM    5  C   UNL     1     -13.157  14.508  70.196  1.00  0.00     0.137 C  
HETATM    6  O   UNL     1     -14.066  15.477  70.741  1.00  0.00    -0.871 OA 
HETATM    7  H   UNL     1     -14.698  15.072  71.323  1.00  0.00     0.000 HD 
BRANCH   5   8
HETATM    8  C   UNL     1     -12.546  13.750  71.382  1.00  0.00    -0.348 C  
HETATM    9  C   UNL     1     -12.736  12.256  71.236  1.00  0.00    -0.251 C  
HETATM   10  O   UNL     1     -13.223  14.182  72.573  1.00  0.00    -0.435 OA 
HETATM   11  O   UNL     1     -11.915  11.533  70.674  1.00  0.00    -0.361 OA 
HETATM   12  H   UNL     1     -12.844  13.713  73.307  1.00  0.00     0.000 HD 
ENDBRANCH   5   8
ENDBRANCH   4   5
BRANCH   4  13
HETATM   13  O   UNL     1     -11.551  14.161  68.370  1.00  0.00    -0.281 OA 
BRANCH  13  14
HETATM   14  C   UNL     1     -11.131  14.638  67.081  1.00  0.00    -0.326 C  
HETATM   15  H   UNL     1     -11.507  11.234  65.027  1.00  0.00     0.000 HD 
HETATM   16  O   UNL     1     -12.740  13.162  65.888  1.00  0.00    -0.421 OA 
HETATM   17  C   UNL     1     -11.365  13.559  66.011  1.00  0.00    -0.312 C  
HETATM   18  O   UNL     1      -9.762  15.013  67.030  1.00  0.00    -0.228 OA 
HETATM   19  O   UNL     1     -10.594  11.431  65.200  1.00  0.00    -0.284 OA 
HETATM   20  C   UNL     1      -8.855  13.962  67.379  1.00  0.00    -0.207 C  
HETATM   21  H   UNL     1     -12.884  12.495  65.227  1.00  0.00     0.000 HD 
HETATM   22  C   UNL     1     -10.533  12.324  66.331  1.00  0.00    -0.236 C  
HETATM   23  C   UNL     1      -9.056  12.643  66.612  1.00  0.00    -0.193 C  
BRANCH  20  24
HETATM   24  C   UNL     1      -7.423  14.520  67.217  1.00  0.00    -0.097 C  
HETATM   25  O   UNL     1      -7.375  15.916  66.914  1.00  0.00    -0.216 OA 
HETATM   26  H   UNL     1      -6.494  16.258  66.814  1.00  0.00     0.000 HD 
ENDBRANCH  20  24
BRANCH  23  27
HETATM   27  O   UNL     1      -8.448  11.605  67.431  1.00  0.00    -0.140 OA 
BRANCH  27  28
HETATM   28  C   UNL     1      -7.110  11.279  67.037  1.00  0.00    -0.129 C  
HETATM   29  O   UNL     1      -6.332  10.913  68.167  1.00  0.00    -0.056 OA 
HETATM   30  C   UNL     1      -6.857   9.766  68.840  1.00  0.00    -0.054 C  
HETATM   31  C   UNL     1      -6.761   8.531  67.908  1.00  0.00    -0.066 C  
HETATM   32  C   UNL     1      -6.071   9.655  70.144  1.00  0.00    -0.053 C  
HETATM   33  C   UNL     1      -7.543   8.823  66.599  1.00  0.00    -0.089 C  
HETATM   34  H   UNL     1      -7.764   7.985  64.815  1.00  0.00     0.000 HD 
HETATM   35  C   UNL     1      -7.114  10.158  65.986  1.00  0.00    -0.118 C  
HETATM   36  O   UNL     1      -7.286   7.806  65.616  1.00  0.00    -0.065 OA 
HETATM   37  O   UNL     1      -7.958  10.481  64.866  1.00  0.00    -0.245 OA 
HETATM   38  H   UNL     1      -7.960   9.789  64.216  1.00  0.00     0.000 HD 
BRANCH  31  39
HETATM   39  N   UNL     1      -7.219   7.319  68.631  1.00  0.00    -0.088 NA 
HETATM   40  H   UNL     1      -6.576   6.733  69.165  1.00  0.00     0.000 HD 
BRANCH  39  41
HETATM   41  C   UNL     1      -8.675   7.008  68.532  1.00  0.00    -0.122 C  
HETATM   42  C   UNL     1      -9.441   4.595  68.491  1.00  0.00    -0.206 C  
HETATM   43  C   UNL     1      -8.868   5.654  67.918  1.00  0.00    -0.105 C  
HETATM   44  C   UNL     1     -10.079   4.688  69.851  1.00  0.00    -0.187 C  
HETATM   45  H   UNL     1      -8.585   7.281  71.818  1.00  0.00     0.000 HD 
HETATM   46  O   UNL     1      -8.217   7.184  70.947  1.00  0.00    -0.113 OA 
HETATM   47  C   UNL     1     -10.328   6.123  70.382  1.00  0.00    -0.213 C  
HETATM   48  O   UNL     1      -9.271   3.946  70.761  1.00  0.00    -0.104 OA 
HETATM   49  H   UNL     1     -11.778   7.460  70.298  1.00  0.00     0.000 HD 
HETATM   50  O   UNL     1     -11.626   6.581  69.972  1.00  0.00    -0.407 OA 
HETATM   51  C   UNL     1      -9.280   7.166  69.967  1.00  0.00    -0.144 C  
HETATM   52  H   UNL     1      -9.674   4.006  71.619  1.00  0.00     0.000 HD 
BRANCH  42  53
HETATM   53  C   UNL     1      -9.484   3.226  67.847  1.00  0.00    -0.164 C  
HETATM   54  O   UNL     1      -9.931   3.280  66.496  1.00  0.00    -0.383 OA 
HETATM   55  H   UNL     1      -9.958   2.420  66.092  1.00  0.00     0.000 HD 
ENDBRANCH  42  53
ENDBRANCH  39  41
ENDBRANCH  31  39
ENDBRANCH  27  28
ENDBRANCH  23  27
ENDBRANCH  13  14
ENDBRANCH   4  13
ENDBRANCH   1   4
BRANCH   1  56
HETATM   56  C   UNL     1     -10.539  17.214  69.235  1.00  0.00    -0.220 C  
HETATM   57  O   UNL     1      -9.140  17.069  68.980  1.00  0.00    -0.241 OA 
HETATM   58  H   UNL     1      -8.833  17.832  68.502  1.00  0.00     0.000 HD 
ENDBRANCH   1  56
TORSDOF 12
ENDMDL
MODEL      119
REMARK 921   NORMALIZED FREE ENERGY PREDICTED BY IDOCK:   -5.13 KCAL/MOL
REMARK 922        TOTAL FREE ENERGY PREDICTED BY IDOCK:  -11.93 KCAL/MOL
REMARK 923 INTER-LIGAND FREE ENERGY PREDICTED BY IDOCK:   -9.27 KCAL/MOL
REMARK 924 INTRA-LIGAND FREE ENERGY PREDICTED BY IDOCK:   -2.66 KCAL/MOL
REMARK 927      BINDING AFFINITY PREDICTED BY RF-SCORE:    0.00 PKD
ROOT
HETATM    1  C   UNL     1     -12.184   8.022  71.731  1.00  0.00    -0.316 C  
HETATM    2  H   UNL     1     -12.998   6.517  70.819  1.00  0.00     0.000 HD 
HETATM    3  O   UNL     1     -13.017   7.461  70.708  1.00  0.00    -0.113 OA 
ENDROOT
BRANCH   1   4
HETATM    4  C   UNL     1     -10.744   7.427  71.730  1.00  0.00    -0.214 C  
BRANCH   4   5
HETATM    5  C   UNL     1      -9.722   8.327  72.493  1.00  0.00    -0.298 C  
HETATM    6  O   UNL     1      -8.569   8.614  71.687  1.00  0.00    -0.170 OA 
HETATM    7  H   UNL     1      -7.947   9.162  72.151  1.00  0.00     0.000 HD 
BRANCH   5   8
HETATM    8  C   UNL     1      -9.210   7.741  73.815  1.00  0.00    -0.256 C  
HETATM    9  C   UNL     1      -7.711   7.892  73.940  1.00  0.00    -0.169 C  
HETATM   10  O   UNL     1      -9.530   6.340  73.825  1.00  0.00    -0.141 OA 
HETATM   11  O   UNL     1      -7.182   8.873  74.461  1.00  0.00    -0.393 OA 
HETATM   12  H   UNL     1      -9.214   5.977  74.644  1.00  0.00     0.000 HD 
ENDBRANCH   5   8
ENDBRANCH   4   5
BRANCH   4  13
HETATM   13  O   UNL     1     -10.248   7.165  70.394  1.00  0.00    -0.192 OA 
BRANCH  13  14
HETATM   14  C   UNL     1     -10.010   5.778  70.100  1.00  0.00    -0.198 C  
HETATM   15  H   UNL     1      -6.039   5.921  69.697  1.00  0.00     0.000 HD 
HETATM   16  O   UNL     1      -7.850   5.773  71.334  1.00  0.00    -0.107 OA 
HETATM   17  C   UNL     1      -8.500   5.488  70.085  1.00  0.00    -0.117 C  
HETATM   18  O   UNL     1     -10.546   5.360  68.853  1.00  0.00    -0.202 OA 
HETATM   19  O   UNL     1      -6.467   5.843  68.853  1.00  0.00    -0.044 OA 
HETATM   20  C   UNL     1     -10.052   6.094  67.729  1.00  0.00    -0.150 C  
HETATM   21  H   UNL     1      -6.917   5.594  71.325  1.00  0.00     0.000 HD 
HETATM   22  C   UNL     1      -7.826   6.306  68.992  1.00  0.00    -0.109 C  
HETATM   23  C   UNL     1      -8.519   6.181  67.625  1.00  0.00    -0.108 C  
BRANCH  20  24
HETATM   24  C   UNL     1     -10.688   5.477  66.462  1.00  0.00    -0.240 C  
HETATM   25  O   UNL     1     -10.178   4.186  66.127  1.00  0.00    -0.394 OA 
HETATM   26  H   UNL     1     -10.569   3.807  65.348  1.00  0.00     0.000 HD 
ENDBRANCH  20  24
BRANCH  23  27
HETATM   27  O   UNL     1      -8.236   7.341  66.794  1.00  0.00    -0.116 OA 
BRANCH  27  28
HETATM   28  C   UNL     1      -9.415   8.014  66.336  1.00  0.00    -0.201 C  
HETATM   29  O   UNL     1      -9.925   8.872  67.346  1.00  0.00    -0.178 OA 
HETATM   30  C   UNL     1      -8.988   9.884  67.723  1.00  0.00    -0.131 C  
HETATM   31  C   UNL     1      -8.742  10.833  66.522  1.00  0.00    -0.151 C  
HETATM   32  C   UNL     1      -9.576  10.552  68.964  1.00  0.00    -0.213 C  
HETATM   33  C   UNL     1      -8.218  10.001  65.320  1.00  0.00    -0.148 C  
HETATM   34  H   UNL     1      -7.881  10.287  63.386  1.00  0.00     0.000 HD 
HETATM   35  C   UNL     1      -9.123   8.797  65.046  1.00  0.00     0.015 C  
HETATM   36  O   UNL     1      -8.201  10.796  64.121  1.00  0.00    -0.044 OA 
HETATM   37  O   UNL     1      -8.537   7.958  64.035  1.00  0.00    -0.373 OA 
HETATM   38  H   UNL     1      -8.356   8.442  63.238  1.00  0.00     0.000 HD 
BRANCH  31  39
HETATM   39  N   UNL     1      -7.842  11.939  66.932  1.00  0.00    -0.267 NA 
HETATM   40  H   UNL     1      -6.919  11.766  67.329  1.00  0.00     0.000 HD 
BRANCH  39  41
HETATM   41  C   UNL     1      -8.369  13.321  66.729  1.00  0.00     0.096 C  
HETATM   42  C   UNL     1     -10.816  13.805  67.160  1.00  0.00    -0.288 C  
HETATM   43  C   UNL     1      -9.837  13.270  66.430  1.00  0.00    -0.281 C  
HETATM   44  C   UNL     1     -10.521  14.649  68.370  1.00  0.00    -0.243 C  
HETATM   45  H   UNL     1      -7.380  13.762  69.845  1.00  0.00     0.000 HD 
HETATM   46  O   UNL     1      -7.611  13.258  69.073  1.00  0.00    -0.024 OA 
HETATM   47  C   UNL     1      -9.054  15.130  68.516  1.00  0.00    -0.191 C  
HETATM   48  O   UNL     1     -10.927  13.914  69.521  1.00  0.00    -0.400 OA 
HETATM   49  H   UNL     1      -7.984  16.687  67.942  1.00  0.00     0.000 HD 
HETATM   50  O   UNL     1      -8.883  16.393  67.853  1.00  0.00    -0.182 OA 
HETATM   51  C   UNL     1      -7.990  14.151  68.001  1.00  0.00    -0.149 C  
HETATM   52  H   UNL     1     -10.741  14.447  70.285  1.00  0.00     0.000 HD 
BRANCH  42  53
HETATM   53  C   UNL     1     -12.284  13.602  66.854  1.00  0.00    -0.352 C  
HETATM   54  O   UNL     1     -12.490  12.667  65.799  1.00  0.00    -0.607 OA 
HETATM   55  H   UNL     1     -13.412  12.540  65.607  1.00  0.00     0.000 HD 
ENDBRANCH  42  53
ENDBRANCH  39  41
ENDBRANCH  31  39
ENDBRANCH  27  28
ENDBRANCH  23  27
ENDBRANCH  13  14
ENDBRANCH   4  13
ENDBRANCH   1   4
BRANCH   1  56
HETATM   56  C   UNL     1     -12.215   9.542  71.552  1.00  0.00    -0.386 C  
HETATM   57  O   UNL     1     -12.666   9.843  70.229  1.00  0.00    -0.524 OA 
HETATM   58  H   UNL     1     -12.686  10.787  70.117  1.00  0.00     0.000 HD 
ENDBRANCH   1  56
TORSDOF 12
ENDMDL
MODEL      120
REMARK 921   NORMALIZED FREE ENERGY PREDICTED BY IDOCK:   -5.11 KCAL/MOL
REMARK 922        TOTAL FREE ENERGY PREDICTED BY IDOCK:  -11.89 KCAL/MOL
REMARK 923 INTER-LIGAND FREE ENERGY PREDICTED BY IDOCK:   -9.49 KCAL/MOL
REMARK 924 INTRA-LIGAND FREE ENERGY PREDICTED BY IDOCK:   -2.40 KCAL/MOL
REMARK 927      BINDING AFFINITY PREDICTED BY RF-SCORE:    0.00 PKD
ROOT
HETATM    1  C   UNL     1     -11.518   6.343  71.948  1.00  0.00    -0.304 C  
HETATM    2  H   UNL     1     -12.457   5.726  70.368  1.00  0.00     0.000 HD 
HETATM    3  O   UNL     1     -12.174   6.573  70.694  1.00  0.00    -0.331 OA 
ENDROOT
BRANCH   1   4
HETATM    4  C   UNL     1     -10.364   5.301  71.844  1.00  0.00    -0.215 C  
BRANCH   4   5
HETATM    5  C   UNL     1      -9.854   4.827  73.241  1.00  0.00    -0.148 C  
HETATM    6  O   UNL     1      -8.420   4.814  73.301  1.00  0.00    -0.103 OA 
HETATM    7  H   UNL     1      -8.109   4.526  74.151  1.00  0.00     0.000 HD 
BRANCH   5   8
HETATM    8  C   UNL     1     -10.334   3.432  73.662  1.00  0.00    -0.152 C  
HETATM    9  C   UNL     1      -9.719   2.355  72.796  1.00  0.00    -0.110 C  
HETATM   10  O   UNL     1     -11.761   3.393  73.496  1.00  0.00    -0.111 OA 
HETATM   11  O   UNL     1      -8.659   1.800  73.078  1.00  0.00    -0.060 OA 
HETATM   12  H   UNL     1     -12.058   2.529  73.757  1.00  0.00     0.000 HD 
ENDBRANCH   5   8
ENDBRANCH   4   5
BRANCH   4  13
HETATM   13  O   UNL     1      -9.244   5.784  71.063  1.00  0.00    -0.147 OA 
BRANCH  13  14
HETATM   14  C   UNL     1      -8.747   4.858  70.082  1.00  0.00    -0.094 C  
HETATM   15  H   UNL     1      -5.309   6.694  69.209  1.00  0.00     0.000 HD 
HETATM   16  O   UNL     1      -6.389   5.189  70.805  1.00  0.00    -0.022 OA 
HETATM   17  C   UNL     1      -7.302   5.216  69.696  1.00  0.00    -0.061 C  
HETATM   18  O   UNL     1      -9.519   4.819  68.891  1.00  0.00    -0.125 OA 
HETATM   19  O   UNL     1      -5.947   6.811  68.514  1.00  0.00    -0.023 OA 
HETATM   20  C   UNL     1      -9.629   6.080  68.224  1.00  0.00    -0.119 C  
HETATM   21  H   UNL     1      -5.496   5.410  70.566  1.00  0.00     0.000 HD 
HETATM   22  C   UNL     1      -7.262   6.603  69.070  1.00  0.00    -0.091 C  
HETATM   23  C   UNL     1      -8.294   6.793  67.947  1.00  0.00    -0.120 C  
BRANCH  20  24
HETATM   24  C   UNL     1     -10.445   5.847  66.932  1.00  0.00    -0.286 C  
HETATM   25  O   UNL     1     -11.647   6.616  66.858  1.00  0.00    -0.726 OA 
HETATM   26  H   UNL     1     -12.148   6.472  66.064  1.00  0.00     0.000 HD 
ENDBRANCH  20  24
BRANCH  23  27
HETATM   27  O   UNL     1      -8.617   8.202  67.775  1.00  0.00    -0.130 OA 
BRANCH  27  28
HETATM   28  C   UNL     1      -8.780   8.904  69.013  1.00  0.00    -0.136 C  
HETATM   29  O   UNL     1      -7.834   9.958  69.118  1.00  0.00    -0.089 OA 
HETATM   30  C   UNL     1      -7.976  10.922  68.072  1.00  0.00    -0.109 C  
HETATM   31  C   UNL     1      -9.344  11.637  68.211  1.00  0.00    -0.191 C  
HETATM   32  C   UNL     1      -6.756  11.833  68.180  1.00  0.00    -0.064 C  
HETATM   33  C   UNL     1     -10.477  10.577  68.157  1.00  0.00    -0.186 C  
HETATM   34  H   UNL     1     -12.433  10.516  68.484  1.00  0.00     0.000 HD 
HETATM   35  C   UNL     1     -10.215   9.438  69.146  1.00  0.00    -0.202 C  
HETATM   36  O   UNL     1     -11.740  11.165  68.517  1.00  0.00    -0.353 OA 
HETATM   37  O   UNL     1     -11.190   8.396  68.968  1.00  0.00    -0.412 OA 
HETATM   38  H   UNL     1     -12.077   8.725  69.051  1.00  0.00     0.000 HD 
BRANCH  31  39
HETATM   39  N   UNL     1      -9.460  12.703  67.185  1.00  0.00    -0.207 NA 
HETATM   40  H   UNL     1      -8.688  12.940  66.562  1.00  0.00     0.000 HD 
BRANCH  39  41
HETATM   41  C   UNL     1     -10.774  13.408  67.119  1.00  0.00    -0.264 C  
HETATM   42  C   UNL     1     -10.839  15.896  66.652  1.00  0.00    -0.213 C  
HETATM   43  C   UNL     1     -10.593  14.858  67.453  1.00  0.00    -0.263 C  
HETATM   44  C   UNL     1     -11.453  15.708  65.292  1.00  0.00    -0.034 C  
HETATM   45  H   UNL     1     -10.705  12.470  63.958  1.00  0.00     0.000 HD 
HETATM   46  O   UNL     1     -10.341  12.636  64.819  1.00  0.00    -0.299 OA 
HETATM   47  C   UNL     1     -12.082  14.317  65.022  1.00  0.00    -0.425 C  
HETATM   48  O   UNL     1     -10.456  16.007  64.319  1.00  0.00    -0.492 OA 
HETATM   49  H   UNL     1     -13.849  13.464  65.250  1.00  0.00     0.000 HD 
HETATM   50  O   UNL     1     -13.464  14.317  65.416  1.00  0.00    -0.581 OA 
HETATM   51  C   UNL     1     -11.373  13.135  65.700  1.00  0.00    -0.303 C  
HETATM   52  H   UNL     1     -10.844  15.888  63.461  1.00  0.00     0.000 HD 
BRANCH  42  53
HETATM   53  C   UNL     1     -10.511  17.325  67.024  1.00  0.00    -0.287 C  
HETATM   54  O   UNL     1      -9.292  17.427  67.753  1.00  0.00    -0.249 OA 
HETATM   55  H   UNL     1      -9.086  18.325  67.986  1.00  0.00     0.000 HD 
ENDBRANCH  42  53
ENDBRANCH  39  41
ENDBRANCH  31  39
ENDBRANCH  27  28
ENDBRANCH  23  27
ENDBRANCH  13  14
ENDBRANCH   4  13
ENDBRANCH   1   4
BRANCH   1  56
HETATM   56  C   UNL     1     -11.062   7.706  72.473  1.00  0.00    -0.336 C  
HETATM   57  O   UNL     1     -11.952   8.713  71.983  1.00  0.00    -0.323 OA 
HETATM   58  H   UNL     1     -11.669   9.559  72.309  1.00  0.00     0.000 HD 
ENDBRANCH   1  56
TORSDOF 12
ENDMDL
MODEL      121
REMARK 921   NORMALIZED FREE ENERGY PREDICTED BY IDOCK:   -5.11 KCAL/MOL
REMARK 922        TOTAL FREE ENERGY PREDICTED BY IDOCK:  -11.89 KCAL/MOL
REMARK 923 INTER-LIGAND FREE ENERGY PREDICTED BY IDOCK:   -9.86 KCAL/MOL
REMARK 924 INTRA-LIGAND FREE ENERGY PREDICTED BY IDOCK:   -2.02 KCAL/MOL
REMARK 927      BINDING AFFINITY PREDICTED BY RF-SCORE:    0.00 PKD
ROOT
HETATM    1  C   UNL     1     -13.269  14.403  71.143  1.00  0.00    -0.350 C  
HETATM    2  H   UNL     1     -13.966  15.710  69.893  1.00  0.00     0.000 HD 
HETATM    3  O   UNL     1     -14.013  15.589  70.835  1.00  0.00    -0.489 OA 
ENDROOT
BRANCH   1   4
HETATM    4  C   UNL     1     -11.811  14.446  70.594  1.00  0.00    -0.295 C  
BRANCH   4   5
HETATM    5  C   UNL     1     -11.604  15.565  69.525  1.00  0.00    -0.350 C  
HETATM    6  O   UNL     1     -12.399  15.326  68.354  1.00  0.00    -0.541 OA 
HETATM    7  H   UNL     1     -12.273  16.007  67.703  1.00  0.00     0.000 HD 
BRANCH   5   8
HETATM    8  C   UNL     1     -10.155  15.746  69.056  1.00  0.00    -0.225 C  
HETATM    9  C   UNL     1      -9.986  15.317  67.616  1.00  0.00    -0.222 C  
HETATM   10  O   UNL     1      -9.321  14.916  69.880  1.00  0.00    -0.446 OA 
HETATM   11  O   UNL     1     -10.124  16.091  66.671  1.00  0.00    -0.260 OA 
HETATM   12  H   UNL     1      -8.424  15.029  69.590  1.00  0.00     0.000 HD 
ENDBRANCH   5   8
ENDBRANCH   4   5
BRANCH   4  13
HETATM   13  O   UNL     1     -11.381  13.175  70.048  1.00  0.00    -0.089 OA 
BRANCH  13  14
HETATM   14  C   UNL     1     -12.402  12.440  69.352  1.00  0.00     0.095 C  
HETATM   15  H   UNL     1     -11.771   8.846  70.974  1.00  0.00     0.000 HD 
HETATM   16  O   UNL     1     -12.869  11.002  71.328  1.00  0.00    -0.388 OA 
HETATM   17  C   UNL     1     -12.528  11.022  69.932  1.00  0.00    -0.219 C  
HETATM   18  O   UNL     1     -12.168  12.321  67.956  1.00  0.00    -0.383 OA 
HETATM   19  O   UNL     1     -11.440   8.884  70.084  1.00  0.00    -0.177 OA 
HETATM   20  C   UNL     1     -10.928  11.688  67.624  1.00  0.00    -0.239 C  
HETATM   21  H   UNL     1     -12.946  10.126  71.686  1.00  0.00     0.000 HD 
HETATM   22  C   UNL     1     -11.219  10.268  69.744  1.00  0.00    -0.282 C  
HETATM   23  C   UNL     1     -10.684  10.329  68.304  1.00  0.00    -0.237 C  
BRANCH  20  24
HETATM   24  C   UNL     1     -10.862  11.590  66.083  1.00  0.00    -0.278 C  
HETATM   25  O   UNL     1     -11.960  12.212  65.414  1.00  0.00    -0.410 OA 
HETATM   26  H   UNL     1     -11.919  12.152  64.467  1.00  0.00     0.000 HD 
ENDBRANCH  20  24
BRANCH  23  27
HETATM   27  O   UNL     1      -9.244  10.118  68.278  1.00  0.00    -0.127 OA 
BRANCH  27  28
HETATM   28  C   UNL     1      -8.815   9.252  67.220  1.00  0.00    -0.124 C  
HETATM   29  O   UNL     1      -7.412   9.041  67.284  1.00  0.00    -0.084 OA 
HETATM   30  C   UNL     1      -7.010   8.429  68.512  1.00  0.00    -0.069 C  
HETATM   31  C   UNL     1      -7.603   6.999  68.594  1.00  0.00    -0.108 C  
HETATM   32  C   UNL     1      -5.485   8.499  68.529  1.00  0.00    -0.037 C  
HETATM   33  C   UNL     1      -9.150   7.086  68.488  1.00  0.00    -0.131 C  
HETATM   34  H   UNL     1     -10.668   5.830  68.259  1.00  0.00     0.000 HD 
HETATM   35  C   UNL     1      -9.574   7.917  67.275  1.00  0.00    -0.159 C  
HETATM   36  O   UNL     1      -9.722   5.777  68.323  1.00  0.00    -0.120 OA 
HETATM   37  O   UNL     1     -10.999   8.114  67.286  1.00  0.00    -0.490 OA 
HETATM   38  H   UNL     1     -11.469   7.289  67.319  1.00  0.00     0.000 HD 
BRANCH  31  39
HETATM   39  N   UNL     1      -7.116   6.323  69.821  1.00  0.00    -0.070 NA 
HETATM   40  H   UNL     1      -6.690   5.396  69.795  1.00  0.00     0.000 HD 
BRANCH  39  41
HETATM   41  C   UNL     1      -7.285   7.078  71.097  1.00  0.00    -0.075 C  
HETATM   42  C   UNL     1      -9.328   6.669  72.535  1.00  0.00    -0.144 C  
HETATM   43  C   UNL     1      -8.739   7.170  71.448  1.00  0.00    -0.124 C  
HETATM   44  C   UNL     1      -8.529   6.013  73.629  1.00  0.00    -0.118 C  
HETATM   45  H   UNL     1      -5.479   4.625  72.364  1.00  0.00     0.000 HD 
HETATM   46  O   UNL     1      -6.019   5.054  71.710  1.00  0.00    -0.018 OA 
HETATM   47  C   UNL     1      -6.998   6.254  73.582  1.00  0.00    -0.083 C  
HETATM   48  O   UNL     1      -8.821   4.619  73.604  1.00  0.00    -0.106 OA 
HETATM   49  H   UNL     1      -5.723   7.580  74.301  1.00  0.00     0.000 HD 
HETATM   50  O   UNL     1      -6.662   7.433  74.330  1.00  0.00    -0.086 OA 
HETATM   51  C   UNL     1      -6.396   6.371  72.174  1.00  0.00    -0.050 C  
HETATM   52  H   UNL     1      -8.316   4.205  74.294  1.00  0.00     0.000 HD 
BRANCH  42  53
HETATM   53  C   UNL     1     -10.825   6.697  72.754  1.00  0.00    -0.251 C  
HETATM   54  O   UNL     1     -11.545   6.249  71.610  1.00  0.00    -0.297 OA 
HETATM   55  H   UNL     1     -12.485   6.267  71.747  1.00  0.00     0.000 HD 
ENDBRANCH  42  53
ENDBRANCH  39  41
ENDBRANCH  31  39
ENDBRANCH  27  28
ENDBRANCH  23  27
ENDBRANCH  13  14
ENDBRANCH   4  13
ENDBRANCH   1   4
BRANCH   1  56
HETATM   56  C   UNL     1     -13.343  14.207  72.659  1.00  0.00    -0.541 C  
HETATM   57  O   UNL     1     -13.866  12.905  72.933  1.00  0.00    -0.667 OA 
HETATM   58  H   UNL     1     -13.912  12.783  73.874  1.00  0.00     0.000 HD 
ENDBRANCH   1  56
TORSDOF 12
ENDMDL
MODEL      122
REMARK 921   NORMALIZED FREE ENERGY PREDICTED BY IDOCK:   -5.07 KCAL/MOL
REMARK 922        TOTAL FREE ENERGY PREDICTED BY IDOCK:  -11.82 KCAL/MOL
REMARK 923 INTER-LIGAND FREE ENERGY PREDICTED BY IDOCK:   -8.99 KCAL/MOL
REMARK 924 INTRA-LIGAND FREE ENERGY PREDICTED BY IDOCK:   -2.83 KCAL/MOL
REMARK 927      BINDING AFFINITY PREDICTED BY RF-SCORE:    0.00 PKD
ROOT
HETATM    1  C   UNL     1     -11.748   8.234  72.449  1.00  0.00    -0.397 C  
HETATM    2  H   UNL     1     -13.383   7.224  72.704  1.00  0.00     0.000 HD 
HETATM    3  O   UNL     1     -13.129   7.968  72.170  1.00  0.00    -0.283 OA 
ENDROOT
BRANCH   1   4
HETATM    4  C   UNL     1     -10.840   6.985  72.244  1.00  0.00    -0.230 C  
BRANCH   4   5
HETATM    5  C   UNL     1     -10.368   6.357  73.593  1.00  0.00    -0.286 C  
HETATM    6  O   UNL     1      -8.936   6.289  73.670  1.00  0.00    -0.124 OA 
HETATM    7  H   UNL     1      -8.650   5.907  74.491  1.00  0.00     0.000 HD 
BRANCH   5   8
HETATM    8  C   UNL     1     -10.901   4.944  73.865  1.00  0.00    -0.289 C  
HETATM    9  C   UNL     1     -10.006   3.892  73.248  1.00  0.00    -0.131 C  
HETATM   10  O   UNL     1     -12.202   4.844  73.266  1.00  0.00    -0.375 OA 
HETATM   11  O   UNL     1      -9.065   3.382  73.853  1.00  0.00    -0.089 OA 
HETATM   12  H   UNL     1     -12.532   3.970  73.435  1.00  0.00     0.000 HD 
ENDBRANCH   5   8
ENDBRANCH   4   5
BRANCH   4  13
HETATM   13  O   UNL     1      -9.685   7.264  71.415  1.00  0.00    -0.165 OA 
BRANCH  13  14
HETATM   14  C   UNL     1      -9.388   6.258  70.433  1.00  0.00    -0.161 C  
HETATM   15  H   UNL     1      -5.587   7.237  69.696  1.00  0.00     0.000 HD 
HETATM   16  O   UNL     1      -7.044   6.013  71.232  1.00  0.00    -0.070 OA 
HETATM   17  C   UNL     1      -7.887   6.267  70.097  1.00  0.00    -0.106 C  
HETATM   18  O   UNL     1     -10.107   6.415  69.219  1.00  0.00    -0.161 OA 
HETATM   19  O   UNL     1      -6.156   7.509  68.985  1.00  0.00    -0.032 OA 
HETATM   20  C   UNL     1      -9.894   7.674  68.573  1.00  0.00    -0.167 C  
HETATM   21  H   UNL     1      -6.117   6.020  71.024  1.00  0.00     0.000 HD 
HETATM   22  C   UNL     1      -7.500   7.613  69.498  1.00  0.00    -0.092 C  
HETATM   23  C   UNL     1      -8.420   8.053  68.349  1.00  0.00    -0.127 C  
BRANCH  20  24
HETATM   24  C   UNL     1     -10.699   7.654  67.253  1.00  0.00    -0.274 C  
HETATM   25  O   UNL     1     -10.435   6.516  66.430  1.00  0.00    -0.452 OA 
HETATM   26  H   UNL     1     -10.930   6.504  65.619  1.00  0.00     0.000 HD 
ENDBRANCH  20  24
BRANCH  23  27
HETATM   27  O   UNL     1      -8.396   9.500  68.192  1.00  0.00    -0.117 OA 
BRANCH  27  28
HETATM   28  C   UNL     1      -8.364   9.925  66.824  1.00  0.00    -0.125 C  
HETATM   29  O   UNL     1      -9.440  10.810  66.550  1.00  0.00    -0.164 OA 
HETATM   30  C   UNL     1      -9.388  11.992  67.353  1.00  0.00    -0.178 C  
HETATM   31  C   UNL     1      -8.128  12.814  66.982  1.00  0.00    -0.066 C  
HETATM   32  C   UNL     1     -10.718  12.707  67.124  1.00  0.00    -0.264 C  
HETATM   33  C   UNL     1      -6.868  11.933  67.196  1.00  0.00    -0.144 C  
HETATM   34  H   UNL     1      -4.932  12.031  66.774  1.00  0.00     0.000 HD 
HETATM   35  C   UNL     1      -7.014  10.581  66.494  1.00  0.00    -0.115 C  
HETATM   36  O   UNL     1      -5.703  12.570  66.643  1.00  0.00    -0.171 OA 
HETATM   37  O   UNL     1      -5.908   9.726  66.835  1.00  0.00    -0.050 OA 
HETATM   38  H   UNL     1      -5.074  10.130  66.630  1.00  0.00     0.000 HD 
BRANCH  31  39
HETATM   39  N   UNL     1      -8.116  14.087  67.744  1.00  0.00    -0.152 NA 
HETATM   40  H   UNL     1      -7.971  14.110  68.754  1.00  0.00     0.000 HD 
BRANCH  39  41
HETATM   41  C   UNL     1      -8.327  15.331  66.947  1.00  0.00    -0.243 C  
HETATM   42  C   UNL     1      -9.384  17.356  68.040  1.00  0.00    -0.276 C  
HETATM   43  C   UNL     1      -9.457  16.126  67.529  1.00  0.00    -0.223 C  
HETATM   44  C   UNL     1      -8.108  18.153  67.986  1.00  0.00    -0.258 C  
HETATM   45  H   UNL     1      -5.237  16.015  67.877  1.00  0.00     0.000 HD 
HETATM   46  O   UNL     1      -6.069  15.558  67.908  1.00  0.00    -0.124 OA 
HETATM   47  C   UNL     1      -7.016  17.613  67.027  1.00  0.00    -0.178 C  
HETATM   48  O   UNL     1      -7.606  18.258  69.315  1.00  0.00    -0.120 OA 
HETATM   49  H   UNL     1      -6.513  17.854  65.133  1.00  0.00     0.000 HD 
HETATM   50  O   UNL     1      -7.183  18.185  65.720  1.00  0.00    -0.457 OA 
HETATM   51  C   UNL     1      -6.957  16.084  66.896  1.00  0.00    -0.104 C  
HETATM   52  H   UNL     1      -6.800  18.761  69.281  1.00  0.00     0.000 HD 
BRANCH  42  53
HETATM   53  C   UNL     1     -10.548  18.040  68.722  1.00  0.00    -0.028 C  
HETATM   54  O   UNL     1     -10.178  19.290  69.294  1.00  0.00    -0.577 OA 
HETATM   55  H   UNL     1     -10.909  19.720  69.723  1.00  0.00     0.000 HD 
ENDBRANCH  42  53
ENDBRANCH  39  41
ENDBRANCH  31  39
ENDBRANCH  27  28
ENDBRANCH  23  27
ENDBRANCH  13  14
ENDBRANCH   4  13
ENDBRANCH   1   4
BRANCH   1  56
HETATM   56  C   UNL     1     -11.339   9.433  71.589  1.00  0.00    -0.382 C  
HETATM   57  O   UNL     1     -12.314   9.617  70.559  1.00  0.00    -0.461 OA 
HETATM   58  H   UNL     1     -12.060  10.361  70.025  1.00  0.00     0.000 HD 
ENDBRANCH   1  56
TORSDOF 12
ENDMDL
MODEL      123
REMARK 921   NORMALIZED FREE ENERGY PREDICTED BY IDOCK:   -5.03 KCAL/MOL
REMARK 922        TOTAL FREE ENERGY PREDICTED BY IDOCK:  -11.75 KCAL/MOL
REMARK 923 INTER-LIGAND FREE ENERGY PREDICTED BY IDOCK:   -9.15 KCAL/MOL
REMARK 924 INTRA-LIGAND FREE ENERGY PREDICTED BY IDOCK:   -2.60 KCAL/MOL
REMARK 927      BINDING AFFINITY PREDICTED BY RF-SCORE:    0.00 PKD
ROOT
HETATM    1  C   UNL     1     -12.194  13.335  68.153  1.00  0.00    -0.061 C  
HETATM    2  H   UNL     1     -12.238  15.256  68.408  1.00  0.00     0.000 HD 
HETATM    3  O   UNL     1     -11.996  14.512  68.947  1.00  0.00    -0.315 OA 
ENDROOT
BRANCH   1   4
HETATM    4  C   UNL     1     -11.435  13.390  66.793  1.00  0.00    -0.343 C  
BRANCH   4   5
HETATM    5  C   UNL     1     -12.394  13.587  65.577  1.00  0.00    -0.481 C  
HETATM    6  O   UNL     1     -12.982  12.344  65.164  1.00  0.00    -0.607 OA 
HETATM    7  H   UNL     1     -13.566  12.464  64.424  1.00  0.00     0.000 HD 
BRANCH   5   8
HETATM    8  C   UNL     1     -11.741  14.210  64.336  1.00  0.00    -0.392 C  
HETATM    9  C   UNL     1     -11.917  15.712  64.319  1.00  0.00    -0.115 C  
HETATM   10  O   UNL     1     -12.389  13.660  63.179  1.00  0.00    -1.045 OA 
HETATM   11  O   UNL     1     -11.104  16.483  64.824  1.00  0.00    -0.624 OA 
HETATM   12  H   UNL     1     -11.985  14.045  62.411  1.00  0.00     0.000 HD 
ENDBRANCH   5   8
ENDBRANCH   4   5
BRANCH   4  13
HETATM   13  O   UNL     1     -10.608  12.223  66.567  1.00  0.00    -0.227 OA 
BRANCH  13  14
HETATM   14  C   UNL     1      -9.674  12.345  65.481  1.00  0.00    -0.136 C  
HETATM   15  H   UNL     1      -9.684   8.546  64.248  1.00  0.00     0.000 HD 
HETATM   16  O   UNL     1     -10.889  10.669  64.102  1.00  0.00    -0.336 OA 
HETATM   17  C   UNL     1      -9.624  11.038  64.672  1.00  0.00    -0.254 C  
HETATM   18  O   UNL     1      -8.351  12.650  65.898  1.00  0.00     0.662 OA 
HETATM   19  O   UNL     1      -8.886   8.751  64.722  1.00  0.00    -0.154 OA 
HETATM   20  C   UNL     1      -7.787  11.692  66.800  1.00  0.00    -0.130 C  
HETATM   21  H   UNL     1     -10.858   9.861  63.602  1.00  0.00     0.000 HD 
HETATM   22  C   UNL     1      -9.141   9.898  65.559  1.00  0.00    -0.189 C  
HETATM   23  C   UNL     1      -7.852  10.229  66.326  1.00  0.00    -0.118 C  
BRANCH  20  24
HETATM   24  C   UNL     1      -6.340  12.144  67.103  1.00  0.00    -0.139 C  
HETATM   25  O   UNL     1      -5.604  11.227  67.915  1.00  0.00    -0.043 OA 
HETATM   26  H   UNL     1      -4.715  11.505  68.101  1.00  0.00     0.000 HD 
ENDBRANCH  20  24
BRANCH  23  27
HETATM   27  O   UNL     1      -7.739   9.412  67.525  1.00  0.00    -0.091 OA 
BRANCH  27  28
HETATM   28  C   UNL     1      -8.995   9.172  68.171  1.00  0.00    -0.129 C  
HETATM   29  O   UNL     1      -9.283   7.782  68.202  1.00  0.00    -0.139 OA 
HETATM   30  C   UNL     1      -8.297   7.039  68.923  1.00  0.00    -0.125 C  
HETATM   31  C   UNL     1      -8.324   7.456  70.415  1.00  0.00    -0.129 C  
HETATM   32  C   UNL     1      -8.611   5.568  68.657  1.00  0.00    -0.103 C  
HETATM   33  C   UNL     1      -8.065   8.984  70.518  1.00  0.00    -0.154 C  
HETATM   34  H   UNL     1      -8.155  10.387  71.917  1.00  0.00     0.000 HD 
HETATM   35  C   UNL     1      -8.996   9.766  69.588  1.00  0.00    -0.215 C  
HETATM   36  O   UNL     1      -8.314   9.453  71.855  1.00  0.00    -0.136 OA 
HETATM   37  O   UNL     1      -8.633  11.158  69.583  1.00  0.00    -0.281 OA 
HETATM   38  H   UNL     1      -8.633  11.525  70.459  1.00  0.00     0.000 HD 
BRANCH  31  39
HETATM   39  N   UNL     1      -7.369   6.625  71.187  1.00  0.00    -0.078 NA 
HETATM   40  H   UNL     1      -6.413   6.464  70.869  1.00  0.00     0.000 HD 
BRANCH  39  41
HETATM   41  C   UNL     1      -7.888   6.037  72.457  1.00  0.00    -0.104 C  
HETATM   42  C   UNL     1     -10.287   5.236  72.578  1.00  0.00    -0.249 C  
HETATM   43  C   UNL     1      -9.376   6.208  72.529  1.00  0.00    -0.140 C  
HETATM   44  C   UNL     1      -9.885   3.789  72.676  1.00  0.00    -0.151 C  
HETATM   45  H   UNL     1      -6.652   3.233  71.238  1.00  0.00     0.000 HD 
HETATM   46  O   UNL     1      -6.950   4.134  71.204  1.00  0.00    -0.034 OA 
HETATM   47  C   UNL     1      -8.404   3.524  73.051  1.00  0.00    -0.082 C  
HETATM   48  O   UNL     1     -10.211   3.163  71.438  1.00  0.00     0.001 OA 
HETATM   49  H   UNL     1      -7.358   3.280  74.708  1.00  0.00     0.000 HD 
HETATM   50  O   UNL     1      -8.265   3.442  74.479  1.00  0.00    -0.072 OA 
HETATM   51  C   UNL     1      -7.398   4.552  72.513  1.00  0.00    -0.082 C  
HETATM   52  H   UNL     1      -9.957   2.250  71.500  1.00  0.00     0.000 HD 
BRANCH  42  53
HETATM   53  C   UNL     1     -11.777   5.493  72.523  1.00  0.00    -0.158 C  
HETATM   54  O   UNL     1     -12.092   6.689  71.820  1.00  0.00    -0.331 OA 
HETATM   55  H   UNL     1     -13.028   6.851  71.785  1.00  0.00     0.000 HD 
ENDBRANCH  42  53
ENDBRANCH  39  41
ENDBRANCH  31  39
ENDBRANCH  27  28
ENDBRANCH  23  27
ENDBRANCH  13  14
ENDBRANCH   4  13
ENDBRANCH   1   4
BRANCH   1  56
HETATM   56  C   UNL     1     -11.802  12.137  69.021  1.00  0.00    -0.306 C  
HETATM   57  O   UNL     1     -12.264  10.939  68.392  1.00  0.00    -0.813 OA 
HETATM   58  H   UNL     1     -12.020  10.194  68.930  1.00  0.00     0.000 HD 
ENDBRANCH   1  56
TORSDOF 12
ENDMDL
MODEL      124
REMARK 921   NORMALIZED FREE ENERGY PREDICTED BY IDOCK:   -5.03 KCAL/MOL
REMARK 922        TOTAL FREE ENERGY PREDICTED BY IDOCK:  -11.74 KCAL/MOL
REMARK 923 INTER-LIGAND FREE ENERGY PREDICTED BY IDOCK:   -8.87 KCAL/MOL
REMARK 924 INTRA-LIGAND FREE ENERGY PREDICTED BY IDOCK:   -2.88 KCAL/MOL
REMARK 927      BINDING AFFINITY PREDICTED BY RF-SCORE:    0.00 PKD
ROOT
HETATM    1  C   UNL     1      -9.905   5.895  72.779  1.00  0.00    -0.166 C  
HETATM    2  H   UNL     1      -8.852   5.539  74.367  1.00  0.00     0.000 HD 
HETATM    3  O   UNL     1      -9.729   5.315  74.078  1.00  0.00    -0.144 OA 
ENDROOT
BRANCH   1   4
HETATM    4  C   UNL     1      -8.792   5.472  71.773  1.00  0.00    -0.136 C  
BRANCH   4   5
HETATM    5  C   UNL     1      -7.366   5.504  72.407  1.00  0.00    -0.095 C  
HETATM    6  O   UNL     1      -7.185   4.436  73.350  1.00  0.00    -0.071 OA 
HETATM    7  H   UNL     1      -6.317   4.456  73.735  1.00  0.00     0.000 HD 
BRANCH   5   8
HETATM    8  C   UNL     1      -7.013   6.809  73.132  1.00  0.00    -0.075 C  
HETATM    9  C   UNL     1      -5.676   7.347  72.674  1.00  0.00    -0.040 C  
HETATM   10  O   UNL     1      -6.933   6.520  74.537  1.00  0.00    -0.091 OA 
HETATM   11  O   UNL     1      -5.561   8.132  71.736  1.00  0.00    -0.034 OA 
HETATM   12  H   UNL     1      -6.715   7.329  74.986  1.00  0.00     0.000 HD 
ENDBRANCH   5   8
ENDBRANCH   4   5
BRANCH   4  13
HETATM   13  O   UNL     1      -8.799   6.270  70.564  1.00  0.00    -0.141 OA 
BRANCH  13  14
HETATM   14  C   UNL     1      -8.498   5.545  69.360  1.00  0.00    -0.105 C  
HETATM   15  H   UNL     1      -5.548   7.859  67.984  1.00  0.00     0.000 HD 
HETATM   16  O   UNL     1      -6.067   6.043  69.537  1.00  0.00    -0.026 OA 
HETATM   17  C   UNL     1      -7.231   6.113  68.698  1.00  0.00    -0.084 C  
HETATM   18  O   UNL     1      -9.543   5.577  68.399  1.00  0.00    -0.114 OA 
HETATM   19  O   UNL     1      -6.349   7.995  67.491  1.00  0.00    -0.053 OA 
HETATM   20  C   UNL     1      -9.916   6.895  67.985  1.00  0.00    -0.154 C  
HETATM   21  H   UNL     1      -5.284   6.394  69.128  1.00  0.00     0.000 HD 
HETATM   22  C   UNL     1      -7.459   7.567  68.308  1.00  0.00    -0.109 C  
HETATM   23  C   UNL     1      -8.754   7.786  67.510  1.00  0.00    -0.125 C  
BRANCH  20  24
HETATM   24  C   UNL     1     -11.014   6.744  66.907  1.00  0.00    -0.300 C  
HETATM   25  O   UNL     1     -10.926   5.532  66.156  1.00  0.00    -0.698 OA 
HETATM   26  H   UNL     1     -11.601   5.440  65.493  1.00  0.00     0.000 HD 
ENDBRANCH  20  24
BRANCH  23  27
HETATM   27  O   UNL     1      -9.218   9.158  67.645  1.00  0.00    -0.129 OA 
BRANCH  27  28
HETATM   28  C   UNL     1      -8.946   9.728  68.930  1.00  0.00    -0.144 C  
HETATM   29  O   UNL     1      -7.845  10.621  68.859  1.00  0.00    -0.110 OA 
HETATM   30  C   UNL     1      -8.085  11.710  67.964  1.00  0.00    -0.139 C  
HETATM   31  C   UNL     1      -9.237  12.588  68.517  1.00  0.00    -0.070 C  
HETATM   32  C   UNL     1      -6.745  12.425  67.812  1.00  0.00    -0.115 C  
HETATM   33  C   UNL     1     -10.506  11.708  68.688  1.00  0.00    -0.213 C  
HETATM   34  H   UNL     1     -12.299  11.882  69.519  1.00  0.00     0.000 HD 
HETATM   35  C   UNL     1     -10.194  10.438  69.481  1.00  0.00    -0.231 C  
HETATM   36  O   UNL     1     -11.523  12.420  69.414  1.00  0.00    -0.272 OA 
HETATM   37  O   UNL     1     -11.340   9.568  69.492  1.00  0.00    -0.419 OA 
HETATM   38  H   UNL     1     -12.111  10.006  69.833  1.00  0.00     0.000 HD 
BRANCH  31  39
HETATM   39  N   UNL     1      -9.432  13.771  67.643  1.00  0.00    -0.210 NA 
HETATM   40  H   UNL     1      -9.723  13.681  66.669  1.00  0.00     0.000 HD 
BRANCH  39  41
HETATM   41  C   UNL     1      -9.176  15.100  68.272  1.00  0.00    -0.188 C  
HETATM   42  C   UNL     1      -8.275  17.001  66.864  1.00  0.00    -0.245 C  
HETATM   43  C   UNL     1      -8.125  15.838  67.499  1.00  0.00    -0.179 C  
HETATM   44  C   UNL     1      -9.558  17.782  66.951  1.00  0.00    -0.288 C  
HETATM   45  H   UNL     1     -12.355  15.634  67.574  1.00  0.00     0.000 HD 
HETATM   46  O   UNL     1     -11.519  15.187  67.513  1.00  0.00    -0.337 OA 
HETATM   47  C   UNL     1     -10.542  17.341  68.064  1.00  0.00    -0.394 C  
HETATM   48  O   UNL     1     -10.186  17.729  65.673  1.00  0.00    -0.590 OA 
HETATM   49  H   UNL     1     -10.870  17.789  69.959  1.00  0.00     0.000 HD 
HETATM   50  O   UNL     1     -10.266  18.060  69.277  1.00  0.00    -0.297 OA 
HETATM   51  C   UNL     1     -10.553  15.837  68.371  1.00  0.00    -0.264 C  
HETATM   52  H   UNL     1     -10.996  18.223  65.728  1.00  0.00     0.000 HD 
BRANCH  42  53
HETATM   53  C   UNL     1      -7.197  17.618  66.001  1.00  0.00    -0.281 C  
HETATM   54  O   UNL     1      -7.524  18.943  65.594  1.00  0.00    -0.479 OA 
HETATM   55  H   UNL     1      -6.847  19.331  65.051  1.00  0.00     0.000 HD 
ENDBRANCH  42  53
ENDBRANCH  39  41
ENDBRANCH  31  39
ENDBRANCH  27  28
ENDBRANCH  23  27
ENDBRANCH  13  14
ENDBRANCH   4  13
ENDBRANCH   1   4
BRANCH   1  56
HETATM   56  C   UNL     1     -11.317   5.534  72.313  1.00  0.00    -0.194 C  
HETATM   57  O   UNL     1     -11.928   4.693  73.295  1.00  0.00    -0.318 OA 
HETATM   58  H   UNL     1     -12.805   4.469  73.006  1.00  0.00     0.000 HD 
ENDBRANCH   1  56
TORSDOF 12
ENDMDL
MODEL      125
REMARK 921   NORMALIZED FREE ENERGY PREDICTED BY IDOCK:   -5.01 KCAL/MOL
REMARK 922        TOTAL FREE ENERGY PREDICTED BY IDOCK:  -11.71 KCAL/MOL
REMARK 923 INTER-LIGAND FREE ENERGY PREDICTED BY IDOCK:   -9.86 KCAL/MOL
REMARK 924 INTRA-LIGAND FREE ENERGY PREDICTED BY IDOCK:   -1.85 KCAL/MOL
REMARK 927      BINDING AFFINITY PREDICTED BY RF-SCORE:    0.00 PKD
ROOT
HETATM    1  C   UNL     1      -9.800   4.715  67.384  1.00  0.00    -0.165 C  
HETATM    2  H   UNL     1      -9.079   2.921  67.527  1.00  0.00     0.000 HD 
HETATM    3  O   UNL     1      -9.180   3.550  66.822  1.00  0.00    -0.157 OA 
ENDROOT
BRANCH   1   4
HETATM    4  C   UNL     1      -9.024   5.278  68.612  1.00  0.00    -0.107 C  
BRANCH   4   5
HETATM    5  C   UNL     1      -8.547   4.157  69.587  1.00  0.00    -0.072 C  
HETATM    6  O   UNL     1      -7.437   3.425  69.045  1.00  0.00    -0.049 OA 
HETATM    7  H   UNL     1      -7.146   2.742  69.639  1.00  0.00     0.000 HD 
BRANCH   5   8
HETATM    8  C   UNL     1      -9.623   3.129  69.962  1.00  0.00    -0.092 C  
HETATM    9  C   UNL     1      -9.622   2.851  71.448  1.00  0.00    -0.153 C  
HETATM   10  O   UNL     1      -9.321   1.908  69.269  1.00  0.00    -0.121 OA 
HETATM   11  O   UNL     1     -10.310   3.487  72.244  1.00  0.00    -0.147 OA 
HETATM   12  H   UNL     1      -9.987   1.272  69.500  1.00  0.00     0.000 HD 
ENDBRANCH   5   8
ENDBRANCH   4   5
BRANCH   4  13
HETATM   13  O   UNL     1      -9.786   6.264  69.350  1.00  0.00    -0.148 OA 
BRANCH  13  14
HETATM   14  C   UNL     1      -9.327   6.504  70.690  1.00  0.00    -0.162 C  
HETATM   15  H   UNL     1     -12.485   8.529  72.058  1.00  0.00     0.000 HD 
HETATM   16  O   UNL     1     -11.618   6.282  71.634  1.00  0.00    -0.297 OA 
HETATM   17  C   UNL     1     -10.453   7.117  71.539  1.00  0.00    -0.203 C  
HETATM   18  O   UNL     1      -8.205   7.372  70.762  1.00  0.00    -0.109 OA 
HETATM   19  O   UNL     1     -11.751   9.109  71.893  1.00  0.00    -0.357 OA 
HETATM   20  C   UNL     1      -8.427   8.662  70.182  1.00  0.00    -0.135 C  
HETATM   21  H   UNL     1     -12.314   6.662  72.158  1.00  0.00     0.000 HD 
HETATM   22  C   UNL     1     -10.867   8.461  70.955  1.00  0.00    -0.231 C  
HETATM   23  C   UNL     1      -9.680   9.399  70.686  1.00  0.00    -0.273 C  
BRANCH  20  24
HETATM   24  C   UNL     1      -7.138   9.488  70.396  1.00  0.00    -0.120 C  
HETATM   25  O   UNL     1      -7.292  10.883  70.127  1.00  0.00    -0.429 OA 
HETATM   26  H   UNL     1      -6.500  11.391  70.258  1.00  0.00     0.000 HD 
ENDBRANCH  20  24
BRANCH  23  27
HETATM   27  O   UNL     1     -10.013  10.375  69.659  1.00  0.00    -0.229 OA 
BRANCH  27  28
HETATM   28  C   UNL     1     -11.351  10.245  69.163  1.00  0.00    -0.186 C  
HETATM   29  O   UNL     1     -12.260  10.965  69.982  1.00  0.00    -0.315 OA 
HETATM   30  C   UNL     1     -11.966  12.363  70.021  1.00  0.00    -0.299 C  
HETATM   31  C   UNL     1     -12.174  12.975  68.612  1.00  0.00    -0.002 C  
HETATM   32  C   UNL     1     -12.859  12.943  71.116  1.00  0.00    -0.326 C  
HETATM   33  C   UNL     1     -11.258  12.235  67.600  1.00  0.00    -0.290 C  
HETATM   34  H   UNL     1     -11.027  12.154  65.631  1.00  0.00     0.000 HD 
HETATM   35  C   UNL     1     -11.433  10.718  67.703  1.00  0.00    -0.151 C  
HETATM   36  O   UNL     1     -11.588  12.606  66.250  1.00  0.00    -0.343 OA 
HETATM   37  O   UNL     1     -10.467  10.051  66.871  1.00  0.00    -0.236 OA 
HETATM   38  H   UNL     1     -10.517  10.343  65.969  1.00  0.00     0.000 HD 
BRANCH  31  39
HETATM   39  N   UNL     1     -11.960  14.442  68.664  1.00  0.00    -0.479 NA 
HETATM   40  H   UNL     1     -12.711  15.089  68.907  1.00  0.00     0.000 HD 
BRANCH  39  41
HETATM   41  C   UNL     1     -10.582  14.915  68.342  1.00  0.00    -0.244 C  
HETATM   42  C   UNL     1     -10.255  17.193  67.285  1.00  0.00    -0.316 C  
HETATM   43  C   UNL     1     -10.633  15.915  67.226  1.00  0.00    -0.314 C  
HETATM   44  C   UNL     1      -9.607  17.763  68.518  1.00  0.00    -0.322 C  
HETATM   45  H   UNL     1     -10.614  15.988  71.461  1.00  0.00     0.000 HD 
HETATM   46  O   UNL     1     -10.995  15.663  70.653  1.00  0.00    -0.321 OA 
HETATM   47  C   UNL     1      -9.107  16.727  69.557  1.00  0.00     0.300 C  
HETATM   48  O   UNL     1     -10.530  18.670  69.114  1.00  0.00    -0.442 OA 
HETATM   49  H   UNL     1      -7.443  15.722  69.907  1.00  0.00     0.000 HD 
HETATM   50  O   UNL     1      -7.749  16.357  69.269  1.00  0.00    -0.241 OA 
HETATM   51  C   UNL     1      -9.955  15.452  69.672  1.00  0.00    -0.264 C  
HETATM   52  H   UNL     1     -10.121  19.029  69.892  1.00  0.00     0.000 HD 
BRANCH  42  53
HETATM   53  C   UNL     1     -10.456  18.170  66.148  1.00  0.00    -0.364 C  
HETATM   54  O   UNL     1     -10.646  17.512  64.899  1.00  0.00    -0.491 OA 
HETATM   55  H   UNL     1     -10.772  18.126  64.184  1.00  0.00     0.000 HD 
ENDBRANCH  42  53
ENDBRANCH  39  41
ENDBRANCH  31  39
ENDBRANCH  27  28
ENDBRANCH  23  27
ENDBRANCH  13  14
ENDBRANCH   4  13
ENDBRANCH   1   4
BRANCH   1  56
HETATM   56  C   UNL     1      -9.962   5.728  66.248  1.00  0.00    -0.085 C  
HETATM   57  O   UNL     1     -10.029   5.025  65.005  1.00  0.00    -0.372 OA 
HETATM   58  H   UNL     1     -10.130   5.654  64.300  1.00  0.00     0.000 HD 
ENDBRANCH   1  56
TORSDOF 12
ENDMDL
MODEL      126
REMARK 921   NORMALIZED FREE ENERGY PREDICTED BY IDOCK:   -5.00 KCAL/MOL
REMARK 922        TOTAL FREE ENERGY PREDICTED BY IDOCK:  -11.70 KCAL/MOL
REMARK 923 INTER-LIGAND FREE ENERGY PREDICTED BY IDOCK:   -8.74 KCAL/MOL
REMARK 924 INTRA-LIGAND FREE ENERGY PREDICTED BY IDOCK:   -2.96 KCAL/MOL
REMARK 927      BINDING AFFINITY PREDICTED BY RF-SCORE:    0.00 PKD
ROOT
HETATM    1  C   UNL     1     -12.062  13.069  68.903  1.00  0.00    -0.168 C  
HETATM    2  H   UNL     1     -11.625  14.769  69.725  1.00  0.00     0.000 HD 
HETATM    3  O   UNL     1     -11.585  13.860  69.999  1.00  0.00    -0.262 OA 
ENDROOT
BRANCH   1   4
HETATM    4  C   UNL     1     -11.296  13.352  67.576  1.00  0.00    -0.298 C  
BRANCH   4   5
HETATM    5  C   UNL     1     -12.164  14.125  66.534  1.00  0.00    -0.433 C  
HETATM    6  O   UNL     1     -12.474  13.306  65.396  1.00  0.00    -0.454 OA 
HETATM    7  H   UNL     1     -13.002  13.777  64.762  1.00  0.00     0.000 HD 
BRANCH   5   8
HETATM    8  C   UNL     1     -11.529  15.416  65.999  1.00  0.00    -0.002 C  
HETATM    9  C   UNL     1     -11.496  15.425  64.487  1.00  0.00    -0.311 C  
HETATM   10  O   UNL     1     -10.179  15.473  66.486  1.00  0.00    -0.265 OA 
HETATM   11  O   UNL     1     -12.407  15.889  63.805  1.00  0.00    -0.791 OA 
HETATM   12  H   UNL     1      -9.787  16.272  66.155  1.00  0.00     0.000 HD 
ENDBRANCH   5   8
ENDBRANCH   4   5
BRANCH   4  13
HETATM   13  O   UNL     1     -10.773  12.147  66.965  1.00  0.00    -0.226 OA 
BRANCH  13  14
HETATM   14  C   UNL     1      -9.544  12.322  66.240  1.00  0.00    -0.242 C  
HETATM   15  H   UNL     1      -9.620   8.948  64.104  1.00  0.00     0.000 HD 
HETATM   16  O   UNL     1     -10.467  11.240  64.198  1.00  0.00    -0.317 OA 
HETATM   17  C   UNL     1      -9.402  11.234  65.162  1.00  0.00    -0.189 C  
HETATM   18  O   UNL     1      -8.386  12.276  67.061  1.00  0.00    -0.177 OA 
HETATM   19  O   UNL     1      -8.988   8.893  64.811  1.00  0.00    -0.157 OA 
HETATM   20  C   UNL     1      -8.241  11.059  67.799  1.00  0.00    -0.117 C  
HETATM   21  H   UNL     1     -10.379  10.568  63.533  1.00  0.00     0.000 HD 
HETATM   22  C   UNL     1      -9.350   9.860  65.818  1.00  0.00    -0.204 C  
HETATM   23  C   UNL     1      -8.328   9.771  66.961  1.00  0.00    -0.117 C  
BRANCH  20  24
HETATM   24  C   UNL     1      -6.913  11.155  68.586  1.00  0.00    -0.081 C  
HETATM   25  O   UNL     1      -7.072  11.069  70.003  1.00  0.00    -0.334 OA 
HETATM   26  H   UNL     1      -6.256  11.128  70.486  1.00  0.00     0.000 HD 
ENDBRANCH  20  24
BRANCH  23  27
HETATM   27  O   UNL     1      -8.683   8.709  67.891  1.00  0.00    -0.135 OA 
BRANCH  27  28
HETATM   28  C   UNL     1     -10.083   8.662  68.194  1.00  0.00    -0.197 C  
HETATM   29  O   UNL     1     -10.711   7.600  67.492  1.00  0.00    -0.253 OA 
HETATM   30  C   UNL     1     -10.169   6.324  67.838  1.00  0.00    -0.169 C  
HETATM   31  C   UNL     1     -10.478   6.018  69.326  1.00  0.00    -0.264 C  
HETATM   32  C   UNL     1     -10.764   5.336  66.838  1.00  0.00    -0.208 C  
HETATM   33  C   UNL     1      -9.876   7.144  70.210  1.00  0.00    -0.176 C  
HETATM   34  H   UNL     1      -9.970   7.716  72.107  1.00  0.00     0.000 HD 
HETATM   35  C   UNL     1     -10.303   8.526  69.709  1.00  0.00    -0.212 C  
HETATM   36  O   UNL     1     -10.338   7.026  71.567  1.00  0.00    -0.203 OA 
HETATM   37  O   UNL     1      -9.611   9.552  70.443  1.00  0.00    -0.244 OA 
HETATM   38  H   UNL     1      -9.747   9.468  71.379  1.00  0.00     0.000 HD 
BRANCH  31  39
HETATM   39  N   UNL     1      -9.999   4.656  69.669  1.00  0.00    -0.224 NA 
HETATM   40  H   UNL     1     -10.631   3.932  70.012  1.00  0.00     0.000 HD 
BRANCH  39  41
HETATM   41  C   UNL     1      -8.540   4.408  69.482  1.00  0.00    -0.076 C  
HETATM   42  C   UNL     1      -7.110   3.776  71.474  1.00  0.00    -0.032 C  
HETATM   43  C   UNL     1      -7.809   4.664  70.765  1.00  0.00    -0.072 C  
HETATM   44  C   UNL     1      -6.888   2.374  70.974  1.00  0.00    -0.032 C  
HETATM   45  H   UNL     1      -9.523   1.338  68.781  1.00  0.00     0.000 HD 
HETATM   46  O   UNL     1      -9.616   2.220  69.121  1.00  0.00    -0.109 OA 
HETATM   47  C   UNL     1      -7.216   2.131  69.478  1.00  0.00    -0.043 C  
HETATM   48  O   UNL     1      -7.641   1.494  71.804  1.00  0.00    -0.038 OA 
HETATM   49  H   UNL     1      -6.252   2.229  67.757  1.00  0.00     0.000 HD 
HETATM   50  O   UNL     1      -6.051   2.378  68.674  1.00  0.00    -0.024 OA 
HETATM   51  C   UNL     1      -8.386   2.954  68.922  1.00  0.00    -0.064 C  
HETATM   52  H   UNL     1      -7.501   0.608  71.489  1.00  0.00     0.000 HD 
BRANCH  42  53
HETATM   53  C   UNL     1      -6.505   4.086  72.825  1.00  0.00    -0.028 C  
HETATM   54  O   UNL     1      -7.309   3.607  73.899  1.00  0.00    -0.054 OA 
HETATM   55  H   UNL     1      -6.929   3.802  74.748  1.00  0.00     0.000 HD 
ENDBRANCH  42  53
ENDBRANCH  39  41
ENDBRANCH  31  39
ENDBRANCH  27  28
ENDBRANCH  23  27
ENDBRANCH  13  14
ENDBRANCH   4  13
ENDBRANCH   1   4
BRANCH   1  56
HETATM   56  C   UNL     1     -11.997  11.605  69.344  1.00  0.00    -0.316 C  
HETATM   57  O   UNL     1     -11.890  11.554  70.769  1.00  0.00    -0.417 OA 
HETATM   58  H   UNL     1     -11.850  10.645  71.042  1.00  0.00     0.000 HD 
ENDBRANCH   1  56
TORSDOF 12
ENDMDL
MODEL      127
REMARK 921   NORMALIZED FREE ENERGY PREDICTED BY IDOCK:   -4.94 KCAL/MOL
REMARK 922        TOTAL FREE ENERGY PREDICTED BY IDOCK:  -11.60 KCAL/MOL
REMARK 923 INTER-LIGAND FREE ENERGY PREDICTED BY IDOCK:   -9.96 KCAL/MOL
REMARK 924 INTRA-LIGAND FREE ENERGY PREDICTED BY IDOCK:   -1.65 KCAL/MOL
REMARK 927      BINDING AFFINITY PREDICTED BY RF-SCORE:    0.00 PKD
ROOT
HETATM    1  C   UNL     1      -6.688  15.285  67.596  1.00  0.00    -0.173 C  
HETATM    2  H   UNL     1      -6.219  14.079  66.153  1.00  0.00     0.000 HD 
HETATM    3  O   UNL     1      -6.178  14.040  67.102  1.00  0.00    -0.200 OA 
ENDROOT
BRANCH   1   4
HETATM    4  C   UNL     1      -8.110  15.613  67.050  1.00  0.00    -0.241 C  
BRANCH   4   5
HETATM    5  C   UNL     1      -8.788  16.796  67.811  1.00  0.00    -0.208 C  
HETATM    6  O   UNL     1      -9.611  16.326  68.889  1.00  0.00    -0.223 OA 
HETATM    7  H   UNL     1     -10.023  17.045  69.352  1.00  0.00     0.000 HD 
BRANCH   5   8
HETATM    8  C   UNL     1      -9.665  17.704  66.939  1.00  0.00    -0.292 C  
HETATM    9  C   UNL     1      -9.019  19.056  66.731  1.00  0.00    -0.313 C  
HETATM   10  O   UNL     1     -10.913  17.894  67.624  1.00  0.00    -0.310 OA 
HETATM   11  O   UNL     1      -8.269  19.297  65.787  1.00  0.00    -0.445 OA 
HETATM   12  H   UNL     1     -11.456  18.456  67.084  1.00  0.00     0.000 HD 
ENDBRANCH   5   8
ENDBRANCH   4   5
BRANCH   4  13
HETATM   13  O   UNL     1      -8.993  14.466  67.064  1.00  0.00    -0.218 OA 
BRANCH  13  14
HETATM   14  C   UNL     1     -10.177  14.604  66.261  1.00  0.00    -0.292 C  
HETATM   15  H   UNL     1     -12.702  12.515  68.544  1.00  0.00     0.000 HD 
HETATM   16  O   UNL     1     -11.655  14.707  68.260  1.00  0.00    -0.296 OA 
HETATM   17  C   UNL     1     -11.398  14.046  67.011  1.00  0.00    -0.330 C  
HETATM   18  O   UNL     1     -10.096  13.942  65.007  1.00  0.00    -0.356 OA 
HETATM   19  O   UNL     1     -12.451  12.023  67.771  1.00  0.00    -0.109 OA 
HETATM   20  C   UNL     1      -9.845  12.537  65.103  1.00  0.00    -0.113 C  
HETATM   21  H   UNL     1     -12.409  14.361  68.723  1.00  0.00     0.000 HD 
HETATM   22  C   UNL     1     -11.205  12.560  67.280  1.00  0.00    -0.295 C  
HETATM   23  C   UNL     1     -10.798  11.763  66.031  1.00  0.00    -0.296 C  
BRANCH  20  24
HETATM   24  C   UNL     1      -9.844  11.972  63.664  1.00  0.00    -0.284 C  
HETATM   25  O   UNL     1     -10.857  10.993  63.425  1.00  0.00    -0.649 OA 
HETATM   26  H   UNL     1     -10.857  10.646  62.540  1.00  0.00     0.000 HD 
ENDBRANCH  20  24
BRANCH  23  27
HETATM   27  O   UNL     1     -10.096  10.542  66.401  1.00  0.00    -0.213 OA 
BRANCH  27  28
HETATM   28  C   UNL     1      -8.704  10.562  66.066  1.00  0.00    -0.164 C  
HETATM   29  O   UNL     1      -7.929  10.994  67.174  1.00  0.00    -0.124 OA 
HETATM   30  C   UNL     1      -8.071  10.133  68.306  1.00  0.00    -0.102 C  
HETATM   31  C   UNL     1      -7.488   8.737  67.969  1.00  0.00    -0.093 C  
HETATM   32  C   UNL     1      -7.389  10.855  69.465  1.00  0.00    -0.095 C  
HETATM   33  C   UNL     1      -8.229   8.165  66.729  1.00  0.00    -0.107 C  
HETATM   34  H   UNL     1      -8.019   6.637  65.483  1.00  0.00     0.000 HD 
HETATM   35  C   UNL     1      -8.246   9.178  65.581  1.00  0.00    -0.120 C  
HETATM   36  O   UNL     1      -7.566   6.986  66.241  1.00  0.00    -0.088 OA 
HETATM   37  O   UNL     1      -9.067   8.690  64.505  1.00  0.00    -0.405 OA 
HETATM   38  H   UNL     1      -8.784   7.835  64.206  1.00  0.00     0.000 HD 
BRANCH  31  39
HETATM   39  N   UNL     1      -7.548   7.864  69.167  1.00  0.00    -0.096 NA 
HETATM   40  H   UNL     1      -7.030   6.987  69.224  1.00  0.00     0.000 HD 
BRANCH  39  41
HETATM   41  C   UNL     1      -8.412   8.345  70.285  1.00  0.00    -0.126 C  
HETATM   42  C   UNL     1     -10.505   7.059  70.895  1.00  0.00    -0.233 C  
HETATM   43  C   UNL     1      -9.818   7.867  70.087  1.00  0.00    -0.184 C  
HETATM   44  C   UNL     1      -9.940   6.601  72.213  1.00  0.00    -0.166 C  
HETATM   45  H   UNL     1      -6.359   6.561  72.152  1.00  0.00     0.000 HD 
HETATM   46  O   UNL     1      -6.765   6.847  71.342  1.00  0.00    -0.058 OA 
HETATM   47  C   UNL     1      -8.695   7.376  72.717  1.00  0.00    -0.126 C  
HETATM   48  O   UNL     1      -9.657   5.209  72.104  1.00  0.00    -0.148 OA 
HETATM   49  H   UNL     1      -8.341   8.969  73.829  1.00  0.00     0.000 HD 
HETATM   50  O   UNL     1      -9.105   8.495  73.520  1.00  0.00    -0.183 OA 
HETATM   51  C   UNL     1      -7.744   7.874  71.620  1.00  0.00    -0.092 C  
HETATM   52  H   UNL     1      -9.300   4.921  72.936  1.00  0.00     0.000 HD 
BRANCH  42  53
HETATM   53  C   UNL     1     -11.880   6.523  70.559  1.00  0.00    -0.328 C  
HETATM   54  O   UNL     1     -12.916   7.422  70.940  1.00  0.00    -0.583 OA 
HETATM   55  H   UNL     1     -13.780   7.085  70.729  1.00  0.00     0.000 HD 
ENDBRANCH  42  53
ENDBRANCH  39  41
ENDBRANCH  31  39
ENDBRANCH  27  28
ENDBRANCH  23  27
ENDBRANCH  13  14
ENDBRANCH   4  13
ENDBRANCH   1   4
BRANCH   1  56
HETATM   56  C   UNL     1      -6.623  15.222  69.124  1.00  0.00    -0.130 C  
HETATM   57  O   UNL     1      -7.500  14.191  69.584  1.00  0.00    -0.347 OA 
HETATM   58  H   UNL     1      -7.460  14.152  70.532  1.00  0.00     0.000 HD 
ENDBRANCH   1  56
TORSDOF 12
ENDMDL
MODEL      128
REMARK 921   NORMALIZED FREE ENERGY PREDICTED BY IDOCK:   -4.93 KCAL/MOL
REMARK 922        TOTAL FREE ENERGY PREDICTED BY IDOCK:  -11.57 KCAL/MOL
REMARK 923 INTER-LIGAND FREE ENERGY PREDICTED BY IDOCK:  -10.94 KCAL/MOL
REMARK 924 INTRA-LIGAND FREE ENERGY PREDICTED BY IDOCK:   -0.63 KCAL/MOL
REMARK 927      BINDING AFFINITY PREDICTED BY RF-SCORE:    0.00 PKD
ROOT
HETATM    1  C   UNL     1     -11.504   6.960  69.471  1.00  0.00    -0.110 C  
HETATM    2  H   UNL     1     -12.599   7.103  71.063  1.00  0.00     0.000 HD 
HETATM    3  O   UNL     1     -12.142   6.395  70.623  1.00  0.00    -0.299 OA 
ENDROOT
BRANCH   1   4
HETATM    4  C   UNL     1     -10.586   8.169  69.821  1.00  0.00    -0.231 C  
BRANCH   4   5
HETATM    5  C   UNL     1     -11.185   9.072  70.944  1.00  0.00    -0.287 C  
HETATM    6  O   UNL     1     -10.889  10.459  70.718  1.00  0.00    -0.393 OA 
HETATM    7  H   UNL     1     -11.254  11.009  71.401  1.00  0.00     0.000 HD 
BRANCH   5   8
HETATM    8  C   UNL     1     -10.706   8.737  72.363  1.00  0.00    -0.149 C  
HETATM    9  C   UNL     1      -9.317   8.138  72.347  1.00  0.00    -0.240 C  
HETATM   10  O   UNL     1     -11.614   7.770  72.913  1.00  0.00    -0.551 OA 
HETATM   11  O   UNL     1      -8.298   8.820  72.435  1.00  0.00    -0.387 OA 
HETATM   12  H   UNL     1     -11.318   7.562  73.792  1.00  0.00     0.000 HD 
ENDBRANCH   5   8
ENDBRANCH   4   5
BRANCH   4  13
HETATM   13  O   UNL     1     -10.271   8.984  68.666  1.00  0.00    -0.194 OA 
BRANCH  13  14
HETATM   14  C   UNL     1      -9.104   8.573  67.935  1.00  0.00    -0.140 C  
HETATM   15  H   UNL     1      -6.530  11.293  69.324  1.00  0.00     0.000 HD 
HETATM   16  O   UNL     1      -7.585   9.143  69.821  1.00  0.00    -0.068 OA 
HETATM   17  C   UNL     1      -7.867   9.343  68.427  1.00  0.00    -0.090 C  
HETATM   18  O   UNL     1      -9.210   8.769  66.532  1.00  0.00    -0.154 OA 
HETATM   19  O   UNL     1      -6.798  11.495  68.435  1.00  0.00    -0.063 OA 
HETATM   20  C   UNL     1      -9.459  10.126  66.150  1.00  0.00    -0.188 C  
HETATM   21  H   UNL     1      -6.821   9.619  70.125  1.00  0.00     0.000 HD 
HETATM   22  C   UNL     1      -8.054  10.834  68.180  1.00  0.00    -0.117 C  
HETATM   23  C   UNL     1      -8.486  11.162  66.742  1.00  0.00    -0.153 C  
BRANCH  20  24
HETATM   24  C   UNL     1      -9.489  10.169  64.605  1.00  0.00    -0.297 C  
HETATM   25  O   UNL     1      -8.456  10.970  64.027  1.00  0.00    -0.377 OA 
HETATM   26  H   UNL     1      -8.475  10.996  63.077  1.00  0.00     0.000 HD 
ENDBRANCH  20  24
BRANCH  23  27
HETATM   27  O   UNL     1      -9.179  12.441  66.689  1.00  0.00    -0.214 OA 
BRANCH  27  28
HETATM   28  C   UNL     1     -10.570  12.322  66.371  1.00  0.00    -0.242 C  
HETATM   29  O   UNL     1     -11.361  12.395  67.548  1.00  0.00    -0.274 OA 
HETATM   30  C   UNL     1     -11.197  13.637  68.236  1.00  0.00    -0.273 C  
HETATM   31  C   UNL     1     -11.739  14.791  67.355  1.00  0.00    -0.350 C  
HETATM   32  C   UNL     1     -11.902  13.463  69.579  1.00  0.00    -0.391 C  
HETATM   33  C   UNL     1     -10.979  14.793  66.000  1.00  0.00    -0.328 C  
HETATM   34  H   UNL     1     -11.141  15.691  64.239  1.00  0.00     0.000 HD 
HETATM   35  C   UNL     1     -10.988  13.403  65.361  1.00  0.00    -0.286 C  
HETATM   36  O   UNL     1     -11.606  15.690  65.068  1.00  0.00    -0.209 OA 
HETATM   37  O   UNL     1     -10.149  13.392  64.192  1.00  0.00    -0.734 OA 
HETATM   38  H   UNL     1     -10.407  14.059  63.568  1.00  0.00     0.000 HD 
BRANCH  31  39
HETATM   39  N   UNL     1     -11.657  16.072  68.099  1.00  0.00    -0.256 NA 
HETATM   40  H   UNL     1     -12.463  16.688  68.203  1.00  0.00     0.000 HD 
BRANCH  39  41
HETATM   41  C   UNL     1     -10.326  16.406  68.685  1.00  0.00    -0.273 C  
HETATM   42  C   UNL     1      -8.214  15.766  67.444  1.00  0.00    -0.196 C  
HETATM   43  C   UNL     1      -9.288  15.455  68.171  1.00  0.00    -0.197 C  
HETATM   44  C   UNL     1      -7.863  17.197  67.136  1.00  0.00    -0.184 C  
HETATM   45  H   UNL     1     -10.773  19.284  67.135  1.00  0.00     0.000 HD 
HETATM   46  O   UNL     1     -10.943  18.369  67.328  1.00  0.00    -0.337 OA 
HETATM   47  C   UNL     1      -8.605  18.269  67.976  1.00  0.00    -0.269 C  
HETATM   48  O   UNL     1      -8.080  17.407  65.744  1.00  0.00    -0.543 OA 
HETATM   49  H   UNL     1      -8.314  19.218  69.683  1.00  0.00     0.000 HD 
HETATM   50  O   UNL     1      -7.859  18.561  69.169  1.00  0.00    -0.180 OA 
HETATM   51  C   UNL     1     -10.046  17.913  68.366  1.00  0.00    -0.383 C  
HETATM   52  H   UNL     1      -7.859  18.311  65.550  1.00  0.00     0.000 HD 
BRANCH  42  53
HETATM   53  C   UNL     1      -7.281  14.729  66.859  1.00  0.00     0.569 C  
HETATM   54  O   UNL     1      -6.147  14.495  67.688  1.00  0.00    -0.267 OA 
HETATM   55  H   UNL     1      -5.560  13.844  67.320  1.00  0.00     0.000 HD 
ENDBRANCH  42  53
ENDBRANCH  39  41
ENDBRANCH  31  39
ENDBRANCH  27  28
ENDBRANCH  23  27
ENDBRANCH  13  14
ENDBRANCH   4  13
ENDBRANCH   1   4
BRANCH   1  56
HETATM   56  C   UNL     1     -10.766   5.821  68.763  1.00  0.00    -0.247 C  
HETATM   57  O   UNL     1     -11.120   5.830  67.377  1.00  0.00    -0.390 OA 
HETATM   58  H   UNL     1     -10.662   5.123  66.937  1.00  0.00     0.000 HD 
ENDBRANCH   1  56
TORSDOF 12
ENDMDL
MODEL      129
REMARK 921   NORMALIZED FREE ENERGY PREDICTED BY IDOCK:   -4.91 KCAL/MOL
REMARK 922        TOTAL FREE ENERGY PREDICTED BY IDOCK:  -11.55 KCAL/MOL
REMARK 923 INTER-LIGAND FREE ENERGY PREDICTED BY IDOCK:  -10.19 KCAL/MOL
REMARK 924 INTRA-LIGAND FREE ENERGY PREDICTED BY IDOCK:   -1.36 KCAL/MOL
REMARK 927      BINDING AFFINITY PREDICTED BY RF-SCORE:    0.00 PKD
ROOT
HETATM    1  C   UNL     1      -7.574  17.997  68.827  1.00  0.00    -0.270 C  
HETATM    2  H   UNL     1      -8.324  19.783  68.911  1.00  0.00     0.000 HD 
HETATM    3  O   UNL     1      -7.512  19.380  69.199  1.00  0.00    -0.358 OA 
ENDROOT
BRANCH   1   4
HETATM    4  C   UNL     1      -7.863  17.793  67.310  1.00  0.00    -0.211 C  
BRANCH   4   5
HETATM    5  C   UNL     1      -8.722  18.946  66.701  1.00  0.00    -0.312 C  
HETATM    6  O   UNL     1      -9.673  18.447  65.748  1.00  0.00    -0.483 OA 
HETATM    7  H   UNL     1     -10.195  19.149  65.378  1.00  0.00     0.000 HD 
BRANCH   5   8
HETATM    8  C   UNL     1      -7.916  20.046  65.999  1.00  0.00    -0.268 C  
HETATM    9  C   UNL     1      -6.571  19.532  65.537  1.00  0.00    -0.269 C  
HETATM   10  O   UNL     1      -7.699  21.103  66.947  1.00  0.00    -0.626 OA 
HETATM   11  O   UNL     1      -6.393  19.040  64.424  1.00  0.00    -0.468 OA 
HETATM   12  H   UNL     1      -7.201  21.784  66.512  1.00  0.00     0.000 HD 
ENDBRANCH   5   8
ENDBRANCH   4   5
BRANCH   4  13
HETATM   13  O   UNL     1      -8.498  16.522  67.028  1.00  0.00    -0.175 OA 
BRANCH  13  14
HETATM   14  C   UNL     1      -9.805  16.358  67.603  1.00  0.00    -0.243 C  
HETATM   15  H   UNL     1      -9.235  12.838  69.402  1.00  0.00     0.000 HD 
HETATM   16  O   UNL     1      -8.892  15.248  69.634  1.00  0.00    -0.379 OA 
HETATM   17  C   UNL     1      -9.824  15.143  68.546  1.00  0.00    -0.220 C  
HETATM   18  O   UNL     1     -10.833  16.179  66.641  1.00  0.00    -0.268 OA 
HETATM   19  O   UNL     1      -9.763  12.741  68.618  1.00  0.00    -0.162 OA 
HETATM   20  C   UNL     1     -10.636  15.054  65.778  1.00  0.00    -0.339 C  
HETATM   21  H   UNL     1      -8.904  14.497  70.216  1.00  0.00     0.000 HD 
HETATM   22  C   UNL     1      -9.511  13.875  67.762  1.00  0.00    -0.214 C  
HETATM   23  C   UNL     1     -10.365  13.719  66.494  1.00  0.00    -0.286 C  
BRANCH  20  24
HETATM   24  C   UNL     1     -11.863  14.975  64.840  1.00  0.00    -0.298 C  
HETATM   25  O   UNL     1     -11.676  15.628  63.584  1.00  0.00    -0.803 OA 
HETATM   26  H   UNL     1     -12.430  15.579  63.008  1.00  0.00     0.000 HD 
ENDBRANCH  20  24
BRANCH  23  27
HETATM   27  O   UNL     1      -9.695  12.869  65.521  1.00  0.00    -0.188 OA 
BRANCH  27  28
HETATM   28  C   UNL     1     -10.561  11.899  64.920  1.00  0.00    -0.287 C  
HETATM   29  O   UNL     1      -9.866  11.150  63.934  1.00  0.00    -0.252 OA 
HETATM   30  C   UNL     1      -8.755  10.434  64.479  1.00  0.00    -0.194 C  
HETATM   31  C   UNL     1      -9.269   9.357  65.467  1.00  0.00    -0.232 C  
HETATM   32  C   UNL     1      -7.982   9.894  63.279  1.00  0.00    -0.151 C  
HETATM   33  C   UNL     1     -10.096  10.049  66.585  1.00  0.00    -0.227 C  
HETATM   34  H   UNL     1     -11.290   9.497  68.069  1.00  0.00     0.000 HD 
HETATM   35  C   UNL     1     -11.161  10.974  65.991  1.00  0.00     0.017 C  
HETATM   36  O   UNL     1     -10.785   9.073  67.386  1.00  0.00    -0.271 OA 
HETATM   37  O   UNL     1     -11.806  11.720  67.039  1.00  0.00    -0.599 OA 
HETATM   38  H   UNL     1     -12.177  11.149  67.701  1.00  0.00     0.000 HD 
BRANCH  31  39
HETATM   39  N   UNL     1      -8.130   8.548  65.967  1.00  0.00    -0.106 NA 
HETATM   40  H   UNL     1      -7.198   8.945  66.087  1.00  0.00     0.000 HD 
BRANCH  39  41
HETATM   41  C   UNL     1      -8.429   7.121  66.284  1.00  0.00    -0.138 C  
HETATM   42  C   UNL     1      -7.440   5.285  64.848  1.00  0.00    -0.069 C  
HETATM   43  C   UNL     1      -8.300   6.284  65.047  1.00  0.00    -0.099 C  
HETATM   44  C   UNL     1      -6.531   4.802  65.946  1.00  0.00    -0.040 C  
HETATM   45  H   UNL     1      -5.836   7.407  68.304  1.00  0.00     0.000 HD 
HETATM   46  O   UNL     1      -6.411   7.662  67.591  1.00  0.00    -0.047 OA 
HETATM   47  C   UNL     1      -6.882   5.290  67.375  1.00  0.00    -0.060 C  
HETATM   48  O   UNL     1      -5.199   5.172  65.601  1.00  0.00    -0.011 OA 
HETATM   49  H   UNL     1      -8.000   4.663  68.878  1.00  0.00     0.000 HD 
HETATM   50  O   UNL     1      -7.785   4.364  68.002  1.00  0.00    -0.079 OA 
HETATM   51  C   UNL     1      -7.482   6.701  67.458  1.00  0.00    -0.097 C  
HETATM   52  H   UNL     1      -4.625   4.868  66.294  1.00  0.00     0.000 HD 
BRANCH  42  53
HETATM   53  C   UNL     1      -7.291   4.571  63.522  1.00  0.00    -0.054 C  
HETATM   54  O   UNL     1      -6.075   3.834  63.441  1.00  0.00    -0.014 OA 
HETATM   55  H   UNL     1      -5.981   3.386  62.608  1.00  0.00     0.000 HD 
ENDBRANCH  42  53
ENDBRANCH  39  41
ENDBRANCH  31  39
ENDBRANCH  27  28
ENDBRANCH  23  27
ENDBRANCH  13  14
ENDBRANCH   4  13
ENDBRANCH   1   4
BRANCH   1  56
HETATM   56  C   UNL     1      -6.268  17.349  69.291  1.00  0.00    -0.238 C  
HETATM   57  O   UNL     1      -6.128  16.078  68.649  1.00  0.00    -0.105 OA 
HETATM   58  H   UNL     1      -5.316  15.675  68.937  1.00  0.00     0.000 HD 
ENDBRANCH   1  56
TORSDOF 12
ENDMDL
MODEL      130
REMARK 921   NORMALIZED FREE ENERGY PREDICTED BY IDOCK:   -4.90 KCAL/MOL
REMARK 922        TOTAL FREE ENERGY PREDICTED BY IDOCK:  -11.54 KCAL/MOL
REMARK 923 INTER-LIGAND FREE ENERGY PREDICTED BY IDOCK:   -9.93 KCAL/MOL
REMARK 924 INTRA-LIGAND FREE ENERGY PREDICTED BY IDOCK:   -1.60 KCAL/MOL
REMARK 927      BINDING AFFINITY PREDICTED BY RF-SCORE:    0.00 PKD
ROOT
HETATM    1  C   UNL     1     -10.640  12.804  64.459  1.00  0.00    -0.360 C  
HETATM    2  H   UNL     1      -9.764  14.143  65.554  1.00  0.00     0.000 HD 
HETATM    3  O   UNL     1     -10.343  14.164  64.801  1.00  0.00    -0.426 OA 
ENDROOT
BRANCH   1   4
HETATM    4  C   UNL     1     -11.211  11.991  65.659  1.00  0.00    -0.327 C  
BRANCH   4   5
HETATM    5  C   UNL     1     -11.787  12.906  66.785  1.00  0.00    -0.385 C  
HETATM    6  O   UNL     1     -12.283  14.145  66.255  1.00  0.00    -0.437 OA 
HETATM    7  H   UNL     1     -12.633  14.701  66.940  1.00  0.00     0.000 HD 
BRANCH   5   8
HETATM    8  C   UNL     1     -10.791  13.260  67.898  1.00  0.00    -0.243 C  
HETATM    9  C   UNL     1     -11.431  14.144  68.945  1.00  0.00    -0.293 C  
HETATM   10  O   UNL     1      -9.702  13.979  67.297  1.00  0.00    -0.227 OA 
HETATM   11  O   UNL     1     -11.996  13.694  69.940  1.00  0.00    -0.311 OA 
HETATM   12  H   UNL     1      -9.086  14.198  67.986  1.00  0.00     0.000 HD 
ENDBRANCH   5   8
ENDBRANCH   4   5
BRANCH   4  13
HETATM   13  O   UNL     1     -10.240  11.080  66.230  1.00  0.00    -0.230 OA 
BRANCH  13  14
HETATM   14  C   UNL     1      -8.877  11.334  65.850  1.00  0.00    -0.169 C  
HETATM   15  H   UNL     1      -8.219   8.023  63.716  1.00  0.00     0.000 HD 
HETATM   16  O   UNL     1      -9.183  10.269  63.623  1.00  0.00    -0.235 OA 
HETATM   17  C   UNL     1      -8.404  10.286  64.829  1.00  0.00    -0.172 C  
HETATM   18  O   UNL     1      -7.969  11.320  66.942  1.00  0.00    -0.142 OA 
HETATM   19  O   UNL     1      -7.788   7.978  64.561  1.00  0.00    -0.123 OA 
HETATM   20  C   UNL     1      -7.954  10.090  67.673  1.00  0.00    -0.105 C  
HETATM   21  H   UNL     1      -8.891   9.621  62.992  1.00  0.00     0.000 HD 
HETATM   22  C   UNL     1      -8.450   8.898  65.454  1.00  0.00    -0.160 C  
HETATM   23  C   UNL     1      -7.753   8.824  66.822  1.00  0.00    -0.094 C  
BRANCH  20  24
HETATM   24  C   UNL     1      -6.881  10.227  68.779  1.00  0.00    -0.058 C  
HETATM   25  O   UNL     1      -6.862   9.141  69.706  1.00  0.00    -0.047 OA 
HETATM   26  H   UNL     1      -6.203   9.225  70.385  1.00  0.00     0.000 HD 
ENDBRANCH  20  24
BRANCH  23  27
HETATM   27  O   UNL     1      -8.278   7.720  67.612  1.00  0.00    -0.122 OA 
BRANCH  27  28
HETATM   28  C   UNL     1      -9.397   7.066  67.001  1.00  0.00    -0.146 C  
HETATM   29  O   UNL     1      -9.110   5.694  66.773  1.00  0.00    -0.117 OA 
HETATM   30  C   UNL     1      -8.827   4.989  67.985  1.00  0.00    -0.103 C  
HETATM   31  C   UNL     1     -10.096   4.959  68.873  1.00  0.00    -0.115 C  
HETATM   32  C   UNL     1      -8.305   3.620  67.555  1.00  0.00    -0.098 C  
HETATM   33  C   UNL     1     -10.547   6.417  69.162  1.00  0.00    -0.255 C  
HETATM   34  H   UNL     1     -12.120   7.326  69.957  1.00  0.00     0.000 HD 
HETATM   35  C   UNL     1     -10.656   7.227  67.868  1.00  0.00    -0.202 C  
HETATM   36  O   UNL     1     -11.845   6.434  69.781  1.00  0.00    -0.357 OA 
HETATM   37  O   UNL     1     -10.921   8.608  68.171  1.00  0.00    -0.462 OA 
HETATM   38  H   UNL     1     -11.698   8.709  68.707  1.00  0.00     0.000 HD 
BRANCH  31  39
HETATM   39  N   UNL     1      -9.838   4.151  70.091  1.00  0.00    -0.209 NA 
HETATM   40  H   UNL     1     -10.359   3.297  70.292  1.00  0.00     0.000 HD 
BRANCH  39  41
HETATM   41  C   UNL     1      -8.773   4.661  71.002  1.00  0.00    -0.115 C  
HETATM   42  C   UNL     1      -9.391   5.480  73.317  1.00  0.00    -0.131 C  
HETATM   43  C   UNL     1      -9.363   5.621  71.991  1.00  0.00    -0.165 C  
HETATM   44  C   UNL     1      -8.703   4.328  73.998  1.00  0.00    -0.096 C  
HETATM   45  H   UNL     1      -8.471   1.484  71.834  1.00  0.00     0.000 HD 
HETATM   46  O   UNL     1      -8.896   2.241  71.447  1.00  0.00    -0.065 OA 
HETATM   47  C   UNL     1      -7.702   3.529  73.125  1.00  0.00    -0.066 C  
HETATM   48  O   UNL     1      -9.712   3.469  74.522  1.00  0.00    -0.107 OA 
HETATM   49  H   UNL     1      -5.776   3.613  72.697  1.00  0.00     0.000 HD 
HETATM   50  O   UNL     1      -6.389   4.103  73.232  1.00  0.00    -0.032 OA 
HETATM   51  C   UNL     1      -8.074   3.414  71.639  1.00  0.00    -0.061 C  
HETATM   52  H   UNL     1      -9.278   2.741  74.952  1.00  0.00     0.000 HD 
BRANCH  42  53
HETATM   53  C   UNL     1     -10.118   6.437  74.237  1.00  0.00    -0.347 C  
HETATM   54  O   UNL     1     -11.071   7.234  73.542  1.00  0.00    -0.569 OA 
HETATM   55  H   UNL     1     -11.527   7.835  74.120  1.00  0.00     0.000 HD 
ENDBRANCH  42  53
ENDBRANCH  39  41
ENDBRANCH  31  39
ENDBRANCH  27  28
ENDBRANCH  23  27
ENDBRANCH  13  14
ENDBRANCH   4  13
ENDBRANCH   1   4
BRANCH   1  56
HETATM   56  C   UNL     1     -11.574  12.839  63.247  1.00  0.00    -0.314 C  
HETATM   57  O   UNL     1     -12.355  14.036  63.298  1.00  0.00    -1.133 OA 
HETATM   58  H   UNL     1     -12.935  14.058  62.546  1.00  0.00     0.000 HD 
ENDBRANCH   1  56
TORSDOF 12
ENDMDL
MODEL      131
REMARK 921   NORMALIZED FREE ENERGY PREDICTED BY IDOCK:   -4.89 KCAL/MOL
REMARK 922        TOTAL FREE ENERGY PREDICTED BY IDOCK:  -11.51 KCAL/MOL
REMARK 923 INTER-LIGAND FREE ENERGY PREDICTED BY IDOCK:   -9.80 KCAL/MOL
REMARK 924 INTRA-LIGAND FREE ENERGY PREDICTED BY IDOCK:   -1.70 KCAL/MOL
REMARK 927      BINDING AFFINITY PREDICTED BY RF-SCORE:    0.00 PKD
ROOT
HETATM    1  C   UNL     1     -11.767  12.762  66.547  1.00  0.00    -0.400 C  
HETATM    2  H   UNL     1     -12.495  13.946  65.197  1.00  0.00     0.000 HD 
HETATM    3  O   UNL     1     -12.580  13.870  66.140  1.00  0.00    -0.452 OA 
ENDROOT
BRANCH   1   4
HETATM    4  C   UNL     1     -10.290  12.888  66.066  1.00  0.00    -0.283 C  
BRANCH   4   5
HETATM    5  C   UNL     1     -10.181  13.375  64.587  1.00  0.00    -0.315 C  
HETATM    6  O   UNL     1     -11.095  14.448  64.317  1.00  0.00    -0.606 OA 
HETATM    7  H   UNL     1     -11.028  14.745  63.417  1.00  0.00     0.000 HD 
BRANCH   5   8
HETATM    8  C   UNL     1     -10.437  12.291  63.532  1.00  0.00    -0.424 C  
HETATM    9  C   UNL     1     -11.758  11.595  63.769  1.00  0.00    -0.303 C  
HETATM   10  O   UNL     1      -9.383  11.320  63.638  1.00  0.00    -0.317 OA 
HETATM   11  O   UNL     1     -12.812  11.979  63.266  1.00  0.00    -0.732 OA 
HETATM   12  H   UNL     1      -9.542  10.649  62.985  1.00  0.00     0.000 HD 
ENDBRANCH   5   8
ENDBRANCH   4   5
BRANCH   4  13
HETATM   13  O   UNL     1      -9.545  11.656  66.222  1.00  0.00    -0.209 OA 
BRANCH  13  14
HETATM   14  C   UNL     1      -8.430  11.735  67.126  1.00  0.00    -0.170 C  
HETATM   15  H   UNL     1      -5.934   9.266  65.222  1.00  0.00     0.000 HD 
HETATM   16  O   UNL     1      -6.776  11.562  65.276  1.00  0.00     0.190 OA 
HETATM   17  C   UNL     1      -7.209  11.014  66.531  1.00  0.00    -0.143 C  
HETATM   18  O   UNL     1      -8.690  11.170  68.403  1.00  0.00    -0.144 OA 
HETATM   19  O   UNL     1      -6.302   8.854  65.995  1.00  0.00    -0.055 OA 
HETATM   20  C   UNL     1      -9.072   9.792  68.365  1.00  0.00    -0.123 C  
HETATM   21  H   UNL     1      -6.021  11.116  64.908  1.00  0.00     0.000 HD 
HETATM   22  C   UNL     1      -7.526   9.538  66.331  1.00  0.00    -0.097 C  
HETATM   23  C   UNL     1      -8.123   8.870  67.580  1.00  0.00    -0.109 C  
BRANCH  20  24
HETATM   24  C   UNL     1      -9.259   9.328  69.828  1.00  0.00    -0.181 C  
HETATM   25  O   UNL     1     -10.176  10.128  70.578  1.00  0.00    -0.402 OA 
HETATM   26  H   UNL     1     -10.291   9.842  71.476  1.00  0.00     0.000 HD 
ENDBRANCH  20  24
BRANCH  23  27
HETATM   27  O   UNL     1      -8.907   7.700  67.216  1.00  0.00    -0.119 OA 
BRANCH  27  28
HETATM   28  C   UNL     1      -8.108   6.578  66.821  1.00  0.00    -0.109 C  
HETATM   29  O   UNL     1      -7.062   6.356  67.756  1.00  0.00    -0.079 OA 
HETATM   30  C   UNL     1      -7.557   6.072  69.067  1.00  0.00    -0.091 C  
HETATM   31  C   UNL     1      -8.329   4.728  69.048  1.00  0.00    -0.081 C  
HETATM   32  C   UNL     1      -6.338   6.105  69.985  1.00  0.00    -0.035 C  
HETATM   33  C   UNL     1      -9.487   4.824  68.018  1.00  0.00    -0.140 C  
HETATM   34  H   UNL     1     -10.787   3.591  67.167  1.00  0.00     0.000 HD 
HETATM   35  C   UNL     1      -8.980   5.323  66.663  1.00  0.00    -0.117 C  
HETATM   36  O   UNL     1     -10.079   3.532  67.797  1.00  0.00     0.174 OA 
HETATM   37  O   UNL     1     -10.089   5.553  65.775  1.00  0.00    -0.386 OA 
HETATM   38  H   UNL     1     -10.628   4.777  65.677  1.00  0.00     0.000 HD 
BRANCH  31  39
HETATM   39  N   UNL     1      -8.766   4.381  70.423  1.00  0.00    -0.083 NA 
HETATM   40  H   UNL     1      -8.930   3.415  70.710  1.00  0.00     0.000 HD 
BRANCH  39  41
HETATM   41  C   UNL     1      -8.953   5.526  71.360  1.00  0.00    -0.139 C  
HETATM   42  C   UNL     1     -11.292   6.257  71.996  1.00  0.00    -0.348 C  
HETATM   43  C   UNL     1     -10.287   6.168  71.124  1.00  0.00    -0.257 C  
HETATM   44  C   UNL     1     -11.142   5.786  73.417  1.00  0.00    -0.151 C  
HETATM   45  H   UNL     1      -8.681   3.198  73.681  1.00  0.00     0.000 HD 
HETATM   46  O   UNL     1      -8.811   3.532  72.801  1.00  0.00    -0.088 OA 
HETATM   47  C   UNL     1      -9.690   5.517  73.888  1.00  0.00    -0.159 C  
HETATM   48  O   UNL     1     -11.948   4.621  73.576  1.00  0.00    -0.315 OA 
HETATM   49  H   UNL     1      -8.234   6.549  74.735  1.00  0.00     0.000 HD 
HETATM   50  O   UNL     1      -9.124   6.714  74.446  1.00  0.00    -0.167 OA 
HETATM   51  C   UNL     1      -8.740   4.976  72.810  1.00  0.00    -0.119 C  
HETATM   52  H   UNL     1     -11.852   4.324  74.473  1.00  0.00     0.000 HD 
BRANCH  42  53
HETATM   53  C   UNL     1     -12.653   6.812  71.637  1.00  0.00    -0.333 C  
HETATM   54  O   UNL     1     -12.564   8.052  70.943  1.00  0.00    -0.507 OA 
HETATM   55  H   UNL     1     -13.419   8.400  70.718  1.00  0.00     0.000 HD 
ENDBRANCH  42  53
ENDBRANCH  39  41
ENDBRANCH  31  39
ENDBRANCH  27  28
ENDBRANCH  23  27
ENDBRANCH  13  14
ENDBRANCH   4  13
ENDBRANCH   1   4
BRANCH   1  56
HETATM   56  C   UNL     1     -11.903  12.639  68.067  1.00  0.00    -0.323 C  
HETATM   57  O   UNL     1     -11.986  11.254  68.414  1.00  0.00    -0.555 OA 
HETATM   58  H   UNL     1     -12.070  11.178  69.358  1.00  0.00     0.000 HD 
ENDBRANCH   1  56
TORSDOF 12
ENDMDL
MODEL      132
REMARK 921   NORMALIZED FREE ENERGY PREDICTED BY IDOCK:   -4.84 KCAL/MOL
REMARK 922        TOTAL FREE ENERGY PREDICTED BY IDOCK:  -11.43 KCAL/MOL
REMARK 923 INTER-LIGAND FREE ENERGY PREDICTED BY IDOCK:   -9.57 KCAL/MOL
REMARK 924 INTRA-LIGAND FREE ENERGY PREDICTED BY IDOCK:   -1.86 KCAL/MOL
REMARK 927      BINDING AFFINITY PREDICTED BY RF-SCORE:    0.00 PKD
ROOT
HETATM    1  C   UNL     1      -6.368  15.020  69.224  1.00  0.00    -0.116 C  
HETATM    2  H   UNL     1      -4.848  14.743  68.053  1.00  0.00     0.000 HD 
HETATM    3  O   UNL     1      -5.607  14.228  68.303  1.00  0.00    -0.100 OA 
ENDROOT
BRANCH   1   4
HETATM    4  C   UNL     1      -6.732  16.424  68.655  1.00  0.00    -0.145 C  
BRANCH   4   5
HETATM    5  C   UNL     1      -5.677  17.514  69.025  1.00  0.00    -0.185 C  
HETATM    6  O   UNL     1      -5.687  17.800  70.432  1.00  0.00    -0.241 OA 
HETATM    7  H   UNL     1      -5.045  18.463  70.658  1.00  0.00     0.000 HD 
BRANCH   5   8
HETATM    8  C   UNL     1      -5.851  18.852  68.294  1.00  0.00    -0.209 C  
HETATM    9  C   UNL     1      -6.695  19.813  69.102  1.00  0.00    -0.346 C  
HETATM   10  O   UNL     1      -6.522  18.587  67.052  1.00  0.00    -0.180 OA 
HETATM   11  O   UNL     1      -6.213  20.604  69.909  1.00  0.00    -0.348 OA 
HETATM   12  H   UNL     1      -6.629  19.415  66.600  1.00  0.00     0.000 HD 
ENDBRANCH   5   8
ENDBRANCH   4   5
BRANCH   4  13
HETATM   13  O   UNL     1      -8.047  16.870  69.067  1.00  0.00    -0.237 OA 
BRANCH  13  14
HETATM   14  C   UNL     1      -8.892  17.329  67.998  1.00  0.00    -0.238 C  
HETATM   15  H   UNL     1     -12.404  17.164  69.891  1.00  0.00     0.000 HD 
HETATM   16  O   UNL     1     -10.405  18.533  69.563  1.00  0.00    -0.347 OA 
HETATM   17  C   UNL     1     -10.323  17.559  68.511  1.00  0.00    -0.380 C  
HETATM   18  O   UNL     1      -8.961  16.431  66.900  1.00  0.00    -0.196 OA 
HETATM   19  O   UNL     1     -12.313  16.447  69.274  1.00  0.00     0.104 OA 
HETATM   20  C   UNL     1      -9.432  15.124  67.244  1.00  0.00    -0.210 C  
HETATM   21  H   UNL     1     -11.289  18.675  69.880  1.00  0.00     0.000 HD 
HETATM   22  C   UNL     1     -10.907  16.248  69.019  1.00  0.00    -0.315 C  
HETATM   23  C   UNL     1     -10.760  15.089  68.020  1.00  0.00    -0.262 C  
BRANCH  20  24
HETATM   24  C   UNL     1      -9.498  14.302  65.936  1.00  0.00    -0.125 C  
HETATM   25  O   UNL     1     -10.453  14.791  64.992  1.00  0.00    -0.397 OA 
HETATM   26  H   UNL     1     -10.493  14.285  64.188  1.00  0.00     0.000 HD 
ENDBRANCH  20  24
BRANCH  23  27
HETATM   27  O   UNL     1     -10.791  13.806  68.707  1.00  0.00    -0.250 OA 
BRANCH  27  28
HETATM   28  C   UNL     1     -12.035  13.111  68.558  1.00  0.00    -0.289 C  
HETATM   29  O   UNL     1     -11.864  11.944  67.768  1.00  0.00    -0.518 OA 
HETATM   30  C   UNL     1     -10.940  11.022  68.353  1.00  0.00    -0.230 C  
HETATM   31  C   UNL     1     -11.521  10.485  69.686  1.00  0.00    -0.282 C  
HETATM   32  C   UNL     1     -10.681   9.961  67.286  1.00  0.00    -0.304 C  
HETATM   33  C   UNL     1     -11.800  11.682  70.635  1.00  0.00    -0.138 C  
HETATM   34  H   UNL     1     -12.725  11.987  72.363  1.00  0.00     0.000 HD 
HETATM   35  C   UNL     1     -12.627  12.762  69.933  1.00  0.00     0.215 C  
HETATM   36  O   UNL     1     -12.554  11.254  71.783  1.00  0.00    -0.296 OA 
HETATM   37  O   UNL     1     -12.739  13.923  70.775  1.00  0.00    -0.329 OA 
HETATM   38  H   UNL     1     -13.105  13.708  71.624  1.00  0.00     0.000 HD 
BRANCH  31  39
HETATM   39  N   UNL     1     -10.612   9.459  70.253  1.00  0.00    -0.230 NA 
HETATM   40  H   UNL     1      -9.610   9.625  70.360  1.00  0.00     0.000 HD 
BRANCH  39  41
HETATM   41  C   UNL     1     -11.248   8.172  70.659  1.00  0.00    -0.260 C  
HETATM   42  C   UNL     1     -10.491   6.007  69.586  1.00  0.00    -0.325 C  
HETATM   43  C   UNL     1     -11.136   7.173  69.547  1.00  0.00    -0.170 C  
HETATM   44  C   UNL     1      -9.861   5.502  70.856  1.00  0.00    -0.183 C  
HETATM   45  H   UNL     1      -8.949   8.203  73.024  1.00  0.00     0.000 HD 
HETATM   46  O   UNL     1      -9.354   8.471  72.208  1.00  0.00    -0.259 OA 
HETATM   47  C   UNL     1     -10.289   6.230  72.157  1.00  0.00    -0.191 C  
HETATM   48  O   UNL     1      -8.447   5.555  70.690  1.00  0.00    -0.117 OA 
HETATM   49  H   UNL     1     -11.705   6.035  73.519  1.00  0.00     0.000 HD 
HETATM   50  O   UNL     1     -11.444   5.589  72.722  1.00  0.00    -0.303 OA 
HETATM   51  C   UNL     1     -10.579   7.730  72.003  1.00  0.00    -0.228 C  
HETATM   52  H   UNL     1      -8.049   5.236  71.493  1.00  0.00     0.000 HD 
BRANCH  42  53
HETATM   53  C   UNL     1     -10.320   5.113  68.378  1.00  0.00    -0.070 C  
HETATM   54  O   UNL     1     -10.828   5.710  67.189  1.00  0.00    -0.353 OA 
HETATM   55  H   UNL     1     -10.722   5.147  66.430  1.00  0.00     0.000 HD 
ENDBRANCH  42  53
ENDBRANCH  39  41
ENDBRANCH  31  39
ENDBRANCH  27  28
ENDBRANCH  23  27
ENDBRANCH  13  14
ENDBRANCH   4  13
ENDBRANCH   1   4
BRANCH   1  56
HETATM   56  C   UNL     1      -7.589  14.191  69.627  1.00  0.00     0.319 C  
HETATM   57  O   UNL     1      -7.242  12.804  69.587  1.00  0.00    -0.308 OA 
HETATM   58  H   UNL     1      -8.000  12.289  69.838  1.00  0.00     0.000 HD 
ENDBRANCH   1  56
TORSDOF 12
ENDMDL
MODEL      133
REMARK 921   NORMALIZED FREE ENERGY PREDICTED BY IDOCK:   -4.84 KCAL/MOL
REMARK 922        TOTAL FREE ENERGY PREDICTED BY IDOCK:  -11.42 KCAL/MOL
REMARK 923 INTER-LIGAND FREE ENERGY PREDICTED BY IDOCK:   -8.58 KCAL/MOL
REMARK 924 INTRA-LIGAND FREE ENERGY PREDICTED BY IDOCK:   -2.84 KCAL/MOL
REMARK 927      BINDING AFFINITY PREDICTED BY RF-SCORE:    0.00 PKD
ROOT
HETATM    1  C   UNL     1      -9.596   4.470  72.751  1.00  0.00    -0.134 C  
HETATM    2  H   UNL     1     -11.365   4.776  72.019  1.00  0.00     0.000 HD 
HETATM    3  O   UNL     1     -11.019   4.301  72.766  1.00  0.00    -0.148 OA 
ENDROOT
BRANCH   1   4
HETATM    4  C   UNL     1      -9.167   5.967  72.717  1.00  0.00    -0.142 C  
BRANCH   4   5
HETATM    5  C   UNL     1     -10.296   6.927  73.206  1.00  0.00    -0.287 C  
HETATM    6  O   UNL     1     -10.879   6.470  74.436  1.00  0.00    -0.277 OA 
HETATM    7  H   UNL     1     -11.566   7.054  74.734  1.00  0.00     0.000 HD 
BRANCH   5   8
HETATM    8  C   UNL     1     -11.447   7.127  72.211  1.00  0.00    -0.271 C  
HETATM    9  C   UNL     1     -11.843   8.584  72.115  1.00  0.00    -0.379 C  
HETATM   10  O   UNL     1     -12.575   6.378  72.691  1.00  0.00    -0.448 OA 
HETATM   11  O   UNL     1     -11.340   9.358  71.303  1.00  0.00    -0.306 OA 
HETATM   12  H   UNL     1     -13.287   6.502  72.074  1.00  0.00     0.000 HD 
ENDBRANCH   5   8
ENDBRANCH   4   5
BRANCH   4  13
HETATM   13  O   UNL     1      -8.713   6.389  71.407  1.00  0.00    -0.130 OA 
BRANCH  13  14
HETATM   14  C   UNL     1      -8.378   5.317  70.509  1.00  0.00    -0.112 C  
HETATM   15  H   UNL     1      -4.764   6.583  69.379  1.00  0.00     0.000 HD 
HETATM   16  O   UNL     1      -5.973   5.393  71.140  1.00  0.00    -0.023 OA 
HETATM   17  C   UNL     1      -6.914   5.439  70.055  1.00  0.00    -0.060 C  
HETATM   18  O   UNL     1      -9.193   5.272  69.347  1.00  0.00    -0.108 OA 
HETATM   19  O   UNL     1      -5.406   6.721  68.692  1.00  0.00    -0.015 OA 
HETATM   20  C   UNL     1      -9.160   6.470  68.564  1.00  0.00    -0.127 C  
HETATM   21  H   UNL     1      -5.068   5.468  70.859  1.00  0.00     0.000 HD 
HETATM   22  C   UNL     1      -6.715   6.745  69.297  1.00  0.00    -0.053 C  
HETATM   23  C   UNL     1      -7.753   6.967  68.187  1.00  0.00    -0.113 C  
BRANCH  20  24
HETATM   24  C   UNL     1     -10.047   6.229  67.321  1.00  0.00    -0.163 C  
HETATM   25  O   UNL     1     -11.446   6.382  67.568  1.00  0.00    -0.686 OA 
HETATM   26  H   UNL     1     -11.991   6.234  66.804  1.00  0.00     0.000 HD 
ENDBRANCH  20  24
BRANCH  23  27
HETATM   27  O   UNL     1      -7.895   8.384  67.887  1.00  0.00    -0.104 OA 
BRANCH  27  28
HETATM   28  C   UNL     1      -7.254   8.774  66.666  1.00  0.00    -0.081 C  
HETATM   29  O   UNL     1      -8.218   9.042  65.659  1.00  0.00    -0.109 OA 
HETATM   30  C   UNL     1      -9.102  10.105  66.021  1.00  0.00    -0.154 C  
HETATM   31  C   UNL     1      -8.302  11.428  66.129  1.00  0.00    -0.071 C  
HETATM   32  C   UNL     1     -10.208  10.102  64.968  1.00  0.00    -0.203 C  
HETATM   33  C   UNL     1      -7.172  11.252  67.180  1.00  0.00    -0.126 C  
HETATM   34  H   UNL     1      -5.574  12.260  67.784  1.00  0.00     0.000 HD 
HETATM   35  C   UNL     1      -6.348   9.994  66.898  1.00  0.00    -0.065 C  
HETATM   36  O   UNL     1      -6.265  12.368  67.141  1.00  0.00    -0.154 OA 
HETATM   37  O   UNL     1      -5.412   9.767  67.967  1.00  0.00    -0.040 OA 
HETATM   38  H   UNL     1      -4.852  10.520  68.110  1.00  0.00     0.000 HD 
BRANCH  31  39
HETATM   39  N   UNL     1      -9.227  12.553  66.415  1.00  0.00    -0.347 NA 
HETATM   40  H   UNL     1      -9.570  13.171  65.678  1.00  0.00     0.000 HD 
BRANCH  39  41
HETATM   41  C   UNL     1      -9.625  12.727  67.842  1.00  0.00    -0.211 C  
HETATM   42  C   UNL     1      -9.930  15.058  68.782  1.00  0.00    -0.228 C  
HETATM   43  C   UNL     1      -9.161  14.061  68.343  1.00  0.00    -0.191 C  
HETATM   44  C   UNL     1     -11.420  14.896  68.922  1.00  0.00    -0.299 C  
HETATM   45  H   UNL     1     -12.685  12.440  66.643  1.00  0.00     0.000 HD 
HETATM   46  O   UNL     1     -11.746  12.577  66.595  1.00  0.00    -0.370 OA 
HETATM   47  C   UNL     1     -11.949  13.440  68.856  1.00  0.00    -0.324 C  
HETATM   48  O   UNL     1     -12.040  15.703  67.925  1.00  0.00    -0.270 OA 
HETATM   49  H   UNL     1     -12.297  11.973  70.132  1.00  0.00     0.000 HD 
HETATM   50  O   UNL     1     -11.973  12.866  70.173  1.00  0.00    -0.341 OA 
HETATM   51  C   UNL     1     -11.172  12.503  67.920  1.00  0.00    -0.264 C  
HETATM   52  H   UNL     1     -12.980  15.600  68.014  1.00  0.00     0.000 HD 
BRANCH  42  53
HETATM   53  C   UNL     1      -9.389  16.421  69.154  1.00  0.00    -0.224 C  
HETATM   54  O   UNL     1      -9.762  17.424  68.216  1.00  0.00    -0.274 OA 
HETATM   55  H   UNL     1      -9.422  18.280  68.450  1.00  0.00     0.000 HD 
ENDBRANCH  42  53
ENDBRANCH  39  41
ENDBRANCH  31  39
ENDBRANCH  27  28
ENDBRANCH  23  27
ENDBRANCH  13  14
ENDBRANCH   4  13
ENDBRANCH   1   4
BRANCH   1  56
HETATM   56  C   UNL     1      -9.040   3.705  73.954  1.00  0.00    -0.090 C  
HETATM   57  O   UNL     1      -7.689   3.325  73.678  1.00  0.00    -0.062 OA 
HETATM   58  H   UNL     1      -7.344   2.850  74.425  1.00  0.00     0.000 HD 
ENDBRANCH   1  56
TORSDOF 12
ENDMDL
MODEL      134
REMARK 921   NORMALIZED FREE ENERGY PREDICTED BY IDOCK:   -4.81 KCAL/MOL
REMARK 922        TOTAL FREE ENERGY PREDICTED BY IDOCK:  -11.37 KCAL/MOL
REMARK 923 INTER-LIGAND FREE ENERGY PREDICTED BY IDOCK:   -7.43 KCAL/MOL
REMARK 924 INTRA-LIGAND FREE ENERGY PREDICTED BY IDOCK:   -3.94 KCAL/MOL
REMARK 927      BINDING AFFINITY PREDICTED BY RF-SCORE:    0.00 PKD
ROOT
HETATM    1  C   UNL     1     -11.868  13.300  68.101  1.00  0.00    -0.353 C  
HETATM    2  H   UNL     1     -12.344  13.855  66.305  1.00  0.00     0.000 HD 
HETATM    3  O   UNL     1     -12.040  14.300  67.088  1.00  0.00    -0.423 OA 
ENDROOT
BRANCH   1   4
HETATM    4  C   UNL     1     -10.935  12.137  67.647  1.00  0.00    -0.243 C  
BRANCH   4   5
HETATM    5  C   UNL     1     -11.566  10.731  67.894  1.00  0.00    -0.128 C  
HETATM    6  O   UNL     1     -12.363  10.713  69.088  1.00  0.00    -0.725 OA 
HETATM    7  H   UNL     1     -12.747   9.857  69.238  1.00  0.00     0.000 HD 
BRANCH   5   8
HETATM    8  C   UNL     1     -10.555   9.583  68.011  1.00  0.00    -0.230 C  
HETATM    9  C   UNL     1     -10.485   8.780  66.731  1.00  0.00    -0.213 C  
HETATM   10  O   UNL     1     -10.996   8.718  69.069  1.00  0.00    -0.426 OA 
HETATM   11  O   UNL     1      -9.700   9.044  65.822  1.00  0.00    -0.265 OA 
HETATM   12  H   UNL     1     -10.369   8.008  69.142  1.00  0.00     0.000 HD 
ENDBRANCH   5   8
ENDBRANCH   4   5
BRANCH   4  13
HETATM   13  O   UNL     1      -9.629  12.192  68.271  1.00  0.00    -0.206 OA 
BRANCH  13  14
HETATM   14  C   UNL     1      -8.669  13.018  67.590  1.00  0.00    -0.189 C  
HETATM   15  H   UNL     1      -7.004  10.223  65.275  1.00  0.00     0.000 HD 
HETATM   16  O   UNL     1      -8.911  11.741  65.469  1.00  0.00    -0.406 OA 
HETATM   17  C   UNL     1      -7.991  12.226  66.460  1.00  0.00     0.211 C  
HETATM   18  O   UNL     1      -7.650  13.525  68.439  1.00  0.00    -0.119 OA 
HETATM   19  O   UNL     1      -6.430  10.458  65.995  1.00  0.00    -0.101 OA 
HETATM   20  C   UNL     1      -6.895  12.514  69.114  1.00  0.00    -0.062 C  
HETATM   21  H   UNL     1      -8.491  11.252  64.770  1.00  0.00     0.000 HD 
HETATM   22  C   UNL     1      -7.236  11.038  67.041  1.00  0.00    -0.123 C  
HETATM   23  C   UNL     1      -6.309  11.418  68.206  1.00  0.00    -0.046 C  
BRANCH  20  24
HETATM   24  C   UNL     1      -5.804  13.232  69.942  1.00  0.00    -0.130 C  
HETATM   25  O   UNL     1      -6.219  13.593  71.260  1.00  0.00    -0.543 OA 
HETATM   26  H   UNL     1      -5.549  14.034  71.768  1.00  0.00     0.000 HD 
ENDBRANCH  20  24
BRANCH  23  27
HETATM   27  O   UNL     1      -6.062  10.271  69.067  1.00  0.00    -0.037 OA 
BRANCH  27  28
HETATM   28  C   UNL     1      -7.151   9.979  69.952  1.00  0.00    -0.130 C  
HETATM   29  O   UNL     1      -7.964   8.944  69.419  1.00  0.00    -0.095 OA 
HETATM   30  C   UNL     1      -7.240   7.725  69.234  1.00  0.00    -0.081 C  
HETATM   31  C   UNL     1      -6.796   7.174  70.613  1.00  0.00    -0.053 C  
HETATM   32  C   UNL     1      -8.168   6.809  68.440  1.00  0.00    -0.119 C  
HETATM   33  C   UNL     1      -5.926   8.243  71.329  1.00  0.00    -0.035 C  
HETATM   34  H   UNL     1      -5.158   8.526  73.135  1.00  0.00     0.000 HD 
HETATM   35  C   UNL     1      -6.627   9.603  71.347  1.00  0.00     0.160 C  
HETATM   36  O   UNL     1      -5.690   7.872  72.698  1.00  0.00    -0.039 OA 
HETATM   37  O   UNL     1      -5.741  10.608  71.872  1.00  0.00    -0.305 OA 
HETATM   38  H   UNL     1      -5.417  10.376  72.734  1.00  0.00     0.000 HD 
BRANCH  31  39
HETATM   39  N   UNL     1      -6.125   5.862  70.437  1.00  0.00    -0.029 NA 
HETATM   40  H   UNL     1      -5.280   5.759  69.875  1.00  0.00     0.000 HD 
BRANCH  39  41
HETATM   41  C   UNL     1      -6.758   4.704  71.132  1.00  0.00    -0.031 C  
HETATM   42  C   UNL     1      -9.279   4.471  71.136  1.00  0.00    -0.198 C  
HETATM   43  C   UNL     1      -8.155   5.057  71.547  1.00  0.00    -0.113 C  
HETATM   44  C   UNL     1      -9.251   3.260  70.243  1.00  0.00    -0.157 C  
HETATM   45  H   UNL     1      -6.280   3.180  68.246  1.00  0.00     0.000 HD 
HETATM   46  O   UNL     1      -6.343   3.926  68.831  1.00  0.00    -0.031 OA 
HETATM   47  C   UNL     1      -7.879   2.550  70.113  1.00  0.00    -0.042 C  
HETATM   48  O   UNL     1      -9.739   3.653  68.964  1.00  0.00    -0.147 OA 
HETATM   49  H   UNL     1      -6.906   1.109  71.049  1.00  0.00     0.000 HD 
HETATM   50  O   UNL     1      -7.747   1.544  71.130  1.00  0.00    -0.032 OA 
HETATM   51  C   UNL     1      -6.655   3.475  70.168  1.00  0.00    -0.033 C  
HETATM   52  H   UNL     1      -9.721   2.888  68.400  1.00  0.00     0.000 HD 
BRANCH  42  53
HETATM   53  C   UNL     1     -10.658   4.970  71.508  1.00  0.00    -0.105 C  
HETATM   54  O   UNL     1     -11.238   5.767  70.481  1.00  0.00    -0.270 OA 
HETATM   55  H   UNL     1     -12.104   6.081  70.714  1.00  0.00     0.000 HD 
ENDBRANCH  42  53
ENDBRANCH  39  41
ENDBRANCH  31  39
ENDBRANCH  27  28
ENDBRANCH  23  27
ENDBRANCH  13  14
ENDBRANCH   4  13
ENDBRANCH   1   4
BRANCH   1  56
HETATM   56  C   UNL     1     -11.378  14.017  69.361  1.00  0.00    -0.268 C  
HETATM   57  O   UNL     1     -11.556  13.151  70.485  1.00  0.00    -0.521 OA 
HETATM   58  H   UNL     1     -11.251  13.596  71.268  1.00  0.00     0.000 HD 
ENDBRANCH   1  56
TORSDOF 12
ENDMDL
MODEL      135
REMARK 921   NORMALIZED FREE ENERGY PREDICTED BY IDOCK:   -4.78 KCAL/MOL
REMARK 922        TOTAL FREE ENERGY PREDICTED BY IDOCK:  -11.33 KCAL/MOL
REMARK 923 INTER-LIGAND FREE ENERGY PREDICTED BY IDOCK:   -9.10 KCAL/MOL
REMARK 924 INTRA-LIGAND FREE ENERGY PREDICTED BY IDOCK:   -2.22 KCAL/MOL
REMARK 927      BINDING AFFINITY PREDICTED BY RF-SCORE:    0.00 PKD
ROOT
HETATM    1  C   UNL     1      -9.233   6.462  73.643  1.00  0.00    -0.131 C  
HETATM    2  H   UNL     1     -11.115   6.578  74.093  1.00  0.00     0.000 HD 
HETATM    3  O   UNL     1     -10.406   7.204  74.001  1.00  0.00    -0.349 OA 
ENDROOT
BRANCH   1   4
HETATM    4  C   UNL     1      -9.444   5.574  72.380  1.00  0.00    -0.143 C  
BRANCH   4   5
HETATM    5  C   UNL     1      -8.275   4.563  72.155  1.00  0.00    -0.105 C  
HETATM    6  O   UNL     1      -7.930   4.459  70.766  1.00  0.00    -0.062 OA 
HETATM    7  H   UNL     1      -7.218   3.844  70.629  1.00  0.00     0.000 HD 
BRANCH   5   8
HETATM    8  C   UNL     1      -8.550   3.140  72.657  1.00  0.00    -0.084 C  
HETATM    9  C   UNL     1      -7.266   2.429  73.025  1.00  0.00    -0.036 C  
HETATM   10  O   UNL     1      -9.184   2.415  71.591  1.00  0.00    -0.084 OA 
HETATM   11  O   UNL     1      -6.787   2.466  74.156  1.00  0.00    -0.025 OA 
HETATM   12  H   UNL     1      -9.354   1.534  71.902  1.00  0.00     0.000 HD 
ENDBRANCH   5   8
ENDBRANCH   4   5
BRANCH   4  13
HETATM   13  O   UNL     1      -9.643   6.353  71.175  1.00  0.00    -0.173 OA 
BRANCH  13  14
HETATM   14  C   UNL     1     -10.991   6.365  70.679  1.00  0.00    -0.298 C  
HETATM   15  H   UNL     1     -10.209   5.867  66.795  1.00  0.00     0.000 HD 
HETATM   16  O   UNL     1     -10.475   4.684  68.918  1.00  0.00     0.048 OA 
HETATM   17  C   UNL     1     -11.014   5.988  69.188  1.00  0.00    -0.359 C  
HETATM   18  O   UNL     1     -11.641   7.620  70.821  1.00  0.00    -0.287 OA 
HETATM   19  O   UNL     1     -10.459   6.764  66.982  1.00  0.00    -0.235 OA 
HETATM   20  C   UNL     1     -10.970   8.702  70.169  1.00  0.00    -0.226 C  
HETATM   21  H   UNL     1     -10.489   4.452  67.997  1.00  0.00     0.000 HD 
HETATM   22  C   UNL     1     -10.227   7.013  68.384  1.00  0.00    -0.179 C  
HETATM   23  C   UNL     1     -10.631   8.464  68.687  1.00  0.00    -0.113 C  
BRANCH  20  24
HETATM   24  C   UNL     1     -11.833   9.968  70.375  1.00  0.00    -0.262 C  
HETATM   25  O   UNL     1     -12.560  10.369  69.213  1.00  0.00    -0.686 OA 
HETATM   26  H   UNL     1     -13.091  11.147  69.340  1.00  0.00     0.000 HD 
ENDBRANCH  20  24
BRANCH  23  27
HETATM   27  O   UNL     1      -9.545   9.381  68.370  1.00  0.00    -0.144 OA 
BRANCH  27  28
HETATM   28  C   UNL     1      -9.576   9.854  67.019  1.00  0.00    -0.175 C  
HETATM   29  O   UNL     1     -10.571  10.855  66.862  1.00  0.00    -0.238 OA 
HETATM   30  C   UNL     1     -10.333  11.993  67.695  1.00  0.00    -0.198 C  
HETATM   31  C   UNL     1      -9.027  12.696  67.248  1.00  0.00    -0.194 C  
HETATM   32  C   UNL     1     -11.594  12.848  67.597  1.00  0.00    -0.406 C  
HETATM   33  C   UNL     1      -7.853  11.683  67.330  1.00  0.00    -0.157 C  
HETATM   34  H   UNL     1      -5.956  11.600  66.755  1.00  0.00     0.000 HD 
HETATM   35  C   UNL     1      -8.195  10.382  66.600  1.00  0.00    -0.128 C  
HETATM   36  O   UNL     1      -6.674  12.220  66.705  1.00  0.00     0.055 OA 
HETATM   37  O   UNL     1      -7.161   9.406  66.822  1.00  0.00    -0.082 OA 
HETATM   38  H   UNL     1      -6.308   9.731  66.563  1.00  0.00     0.000 HD 
BRANCH  31  39
HETATM   39  N   UNL     1      -8.822  13.930  68.047  1.00  0.00    -0.175 NA 
HETATM   40  H   UNL     1      -9.052  13.975  69.040  1.00  0.00     0.000 HD 
BRANCH  39  41
HETATM   41  C   UNL     1      -8.258  15.100  67.312  1.00  0.00    -0.208 C  
HETATM   42  C   UNL     1      -9.822  16.764  66.217  1.00  0.00    -0.327 C  
HETATM   43  C   UNL     1      -9.232  15.569  66.273  1.00  0.00    -0.364 C  
HETATM   44  C   UNL     1      -9.471  17.858  67.189  1.00  0.00    -0.263 C  
HETATM   45  H   UNL     1      -8.283  16.518  70.290  1.00  0.00     0.000 HD 
HETATM   46  O   UNL     1      -8.516  15.864  69.641  1.00  0.00    -0.170 OA 
HETATM   47  C   UNL     1      -8.178  17.637  68.015  1.00  0.00    -0.242 C  
HETATM   48  O   UNL     1     -10.591  18.051  68.048  1.00  0.00    -0.387 OA 
HETATM   49  H   UNL     1      -6.255  18.046  67.822  1.00  0.00     0.000 HD 
HETATM   50  O   UNL     1      -7.048  18.182  67.315  1.00  0.00    -0.191 OA 
HETATM   51  C   UNL     1      -7.876  16.176  68.382  1.00  0.00    -0.160 C  
HETATM   52  H   UNL     1     -10.369  18.742  68.661  1.00  0.00     0.000 HD 
BRANCH  42  53
HETATM   53  C   UNL     1     -10.889  17.114  65.204  1.00  0.00     0.001 C  
HETATM   54  O   UNL     1     -11.144  16.045  64.298  1.00  0.00    -0.932 OA 
HETATM   55  H   UNL     1     -11.815  16.266  63.661  1.00  0.00     0.000 HD 
ENDBRANCH  42  53
ENDBRANCH  39  41
ENDBRANCH  31  39
ENDBRANCH  27  28
ENDBRANCH  23  27
ENDBRANCH  13  14
ENDBRANCH   4  13
ENDBRANCH   1   4
BRANCH   1  56
HETATM   56  C   UNL     1      -8.091   7.471  73.494  1.00  0.00    -0.133 C  
HETATM   57  O   UNL     1      -7.109   7.210  74.500  1.00  0.00    -0.099 OA 
HETATM   58  H   UNL     1      -6.400   7.836  74.408  1.00  0.00     0.000 HD 
ENDBRANCH   1  56
TORSDOF 12
ENDMDL
MODEL      136
REMARK 921   NORMALIZED FREE ENERGY PREDICTED BY IDOCK:   -4.77 KCAL/MOL
REMARK 922        TOTAL FREE ENERGY PREDICTED BY IDOCK:  -11.31 KCAL/MOL
REMARK 923 INTER-LIGAND FREE ENERGY PREDICTED BY IDOCK:   -8.20 KCAL/MOL
REMARK 924 INTRA-LIGAND FREE ENERGY PREDICTED BY IDOCK:   -3.11 KCAL/MOL
REMARK 927      BINDING AFFINITY PREDICTED BY RF-SCORE:    0.00 PKD
ROOT
HETATM    1  C   UNL     1     -11.917  14.515  66.327  1.00  0.00    -0.322 C  
HETATM    2  H   UNL     1     -13.724  13.891  66.009  1.00  0.00     0.000 HD 
HETATM    3  O   UNL     1     -12.969  14.069  65.461  1.00  0.00    -0.681 OA 
ENDROOT
BRANCH   1   4
HETATM    4  C   UNL     1     -11.621  13.512  67.482  1.00  0.00    -0.350 C  
BRANCH   4   5
HETATM    5  C   UNL     1     -11.595  14.201  68.883  1.00  0.00    -0.310 C  
HETATM    6  O   UNL     1     -12.599  13.660  69.754  1.00  0.00    -0.201 OA 
HETATM    7  H   UNL     1     -12.583  14.078  70.607  1.00  0.00     0.000 HD 
BRANCH   5   8
HETATM    8  C   UNL     1     -11.796  15.722  68.856  1.00  0.00    -0.341 C  
HETATM    9  C   UNL     1     -10.528  16.450  69.243  1.00  0.00    -0.303 C  
HETATM   10  O   UNL     1     -12.818  16.044  69.812  1.00  0.00    -0.562 OA 
HETATM   11  O   UNL     1      -9.685  16.800  68.420  1.00  0.00    -0.231 OA 
HETATM   12  H   UNL     1     -12.943  16.986  69.795  1.00  0.00     0.000 HD 
ENDBRANCH   5   8
ENDBRANCH   4   5
BRANCH   4  13
HETATM   13  O   UNL     1     -10.388  12.780  67.284  1.00  0.00    -0.230 OA 
BRANCH  13  14
HETATM   14  C   UNL     1      -9.574  12.638  68.461  1.00  0.00    -0.109 C  
HETATM   15  H   UNL     1      -6.011  13.399  66.824  1.00  0.00     0.000 HD 
HETATM   16  O   UNL     1      -8.023  14.445  67.739  1.00  0.00    -0.131 OA 
HETATM   17  C   UNL     1      -8.130  13.077  68.166  1.00  0.00    -0.155 C  
HETATM   18  O   UNL     1      -9.531  11.312  68.968  1.00  0.00    -0.135 OA 
HETATM   19  O   UNL     1      -6.116  12.471  67.001  1.00  0.00    -0.259 OA 
HETATM   20  C   UNL     1      -9.047  10.344  68.033  1.00  0.00    -0.136 C  
HETATM   21  H   UNL     1      -7.131  14.716  67.557  1.00  0.00     0.000 HD 
HETATM   22  C   UNL     1      -7.528  12.186  67.088  1.00  0.00    -0.129 C  
HETATM   23  C   UNL     1      -7.698  10.686  67.375  1.00  0.00    -0.106 C  
BRANCH  20  24
HETATM   24  C   UNL     1      -9.012   8.980  68.761  1.00  0.00    -0.137 C  
HETATM   25  O   UNL     1      -8.998   7.854  67.882  1.00  0.00    -0.130 OA 
HETATM   26  H   UNL     1      -8.977   7.016  68.329  1.00  0.00     0.000 HD 
ENDBRANCH  20  24
BRANCH  23  27
HETATM   27  O   UNL     1      -7.644   9.914  66.143  1.00  0.00    -0.099 OA 
BRANCH  27  28
HETATM   28  C   UNL     1      -6.325   9.814  65.590  1.00  0.00    -0.074 C  
HETATM   29  O   UNL     1      -5.536   8.904  66.341  1.00  0.00    -0.043 OA 
HETATM   30  C   UNL     1      -6.085   7.584  66.346  1.00  0.00    -0.041 C  
HETATM   31  C   UNL     1      -6.050   7.005  64.908  1.00  0.00    -0.037 C  
HETATM   32  C   UNL     1      -5.276   6.802  67.377  1.00  0.00    -0.008 C  
HETATM   33  C   UNL     1      -6.850   7.945  63.965  1.00  0.00    -0.062 C  
HETATM   34  H   UNL     1      -7.136   8.151  62.013  1.00  0.00     0.000 HD 
HETATM   35  C   UNL     1      -6.389   9.397  64.113  1.00  0.00    -0.093 C  
HETATM   36  O   UNL     1      -6.647   7.576  62.590  1.00  0.00    -0.068 OA 
HETATM   37  O   UNL     1      -7.245  10.266  63.350  1.00  0.00    -0.165 OA 
HETATM   38  H   UNL     1      -7.285  10.009  62.437  1.00  0.00     0.000 HD 
BRANCH  31  39
HETATM   39  N   UNL     1      -6.533   5.602  64.919  1.00  0.00    -0.040 NA 
HETATM   40  H   UNL     1      -5.985   4.839  64.521  1.00  0.00     0.000 HD 
BRANCH  39  41
HETATM   41  C   UNL     1      -7.867   5.373  65.548  1.00  0.00    -0.098 C  
HETATM   42  C   UNL     1      -9.514   3.794  64.450  1.00  0.00    -0.161 C  
HETATM   43  C   UNL     1      -8.858   4.954  64.504  1.00  0.00    -0.129 C  
HETATM   44  C   UNL     1      -9.394   2.774  65.550  1.00  0.00    -0.063 C  
HETATM   45  H   UNL     1      -6.257   3.054  67.254  1.00  0.00     0.000 HD 
HETATM   46  O   UNL     1      -6.382   3.681  66.551  1.00  0.00    -0.034 OA 
HETATM   47  C   UNL     1      -8.756   3.277  66.870  1.00  0.00    -0.125 C  
HETATM   48  O   UNL     1      -8.671   1.661  65.032  1.00  0.00    -0.099 OA 
HETATM   49  H   UNL     1      -9.382   4.099  68.553  1.00  0.00     0.000 HD 
HETATM   50  O   UNL     1      -9.774   3.791  67.744  1.00  0.00    -0.170 OA 
HETATM   51  C   UNL     1      -7.660   4.340  66.705  1.00  0.00    -0.085 C  
HETATM   52  H   UNL     1      -8.595   1.016  65.726  1.00  0.00     0.000 HD 
BRANCH  42  53
HETATM   53  C   UNL     1     -10.406   3.399  63.294  1.00  0.00    -0.212 C  
HETATM   54  O   UNL     1     -11.295   2.341  63.635  1.00  0.00    -0.610 OA 
HETATM   55  H   UNL     1     -11.855   2.093  62.908  1.00  0.00     0.000 HD 
ENDBRANCH  42  53
ENDBRANCH  39  41
ENDBRANCH  31  39
ENDBRANCH  27  28
ENDBRANCH  23  27
ENDBRANCH  13  14
ENDBRANCH   4  13
ENDBRANCH   1   4
BRANCH   1  56
HETATM   56  C   UNL     1     -10.700  14.802  65.444  1.00  0.00    -0.371 C  
HETATM   57  O   UNL     1     -10.299  16.161  65.636  1.00  0.00    -0.356 OA 
HETATM   58  H   UNL     1      -9.543  16.340  65.088  1.00  0.00     0.000 HD 
ENDBRANCH   1  56
TORSDOF 12
ENDMDL
MODEL      137
REMARK 921   NORMALIZED FREE ENERGY PREDICTED BY IDOCK:   -4.72 KCAL/MOL
REMARK 922        TOTAL FREE ENERGY PREDICTED BY IDOCK:  -11.23 KCAL/MOL
REMARK 923 INTER-LIGAND FREE ENERGY PREDICTED BY IDOCK:  -10.34 KCAL/MOL
REMARK 924 INTRA-LIGAND FREE ENERGY PREDICTED BY IDOCK:   -0.89 KCAL/MOL
REMARK 927      BINDING AFFINITY PREDICTED BY RF-SCORE:    0.00 PKD
ROOT
HETATM    1  C   UNL     1     -11.183  15.390  68.978  1.00  0.00    -0.291 C  
HETATM    2  H   UNL     1     -12.394  15.522  67.470  1.00  0.00     0.000 HD 
HETATM    3  O   UNL     1     -12.184  16.075  68.213  1.00  0.00     0.126 OA 
ENDROOT
BRANCH   1   4
HETATM    4  C   UNL     1      -9.939  14.995  68.127  1.00  0.00    -0.220 C  
BRANCH   4   5
HETATM    5  C   UNL     1      -9.883  15.746  66.760  1.00  0.00    -0.245 C  
HETATM    6  O   UNL     1      -9.232  14.957  65.753  1.00  0.00    -0.498 OA 
HETATM    7  H   UNL     1      -9.198  15.413  64.920  1.00  0.00     0.000 HD 
BRANCH   5   8
HETATM    8  C   UNL     1      -9.169  17.103  66.799  1.00  0.00    -0.254 C  
HETATM    9  C   UNL     1     -10.093  18.222  66.373  1.00  0.00    -0.396 C  
HETATM   10  O   UNL     1      -8.068  17.044  65.878  1.00  0.00    -0.494 OA 
HETATM   11  O   UNL     1     -10.789  18.849  67.169  1.00  0.00    -0.444 OA 
HETATM   12  H   UNL     1      -7.626  17.884  65.903  1.00  0.00     0.000 HD 
ENDBRANCH   5   8
ENDBRANCH   4   5
BRANCH   4  13
HETATM   13  O   UNL     1      -9.851  13.568  67.896  1.00  0.00    -0.221 OA 
BRANCH  13  14
HETATM   14  C   UNL     1     -10.982  12.994  67.221  1.00  0.00    -0.264 C  
HETATM   15  H   UNL     1     -11.902  10.165  69.884  1.00  0.00     0.000 HD 
HETATM   16  O   UNL     1     -12.167  12.538  69.360  1.00  0.00    -0.200 OA 
HETATM   17  C   UNL     1     -11.685  11.973  68.131  1.00  0.00    -0.333 C  
HETATM   18  O   UNL     1     -10.649  12.338  66.006  1.00  0.00    -0.243 OA 
HETATM   19  O   UNL     1     -11.481   9.791  69.118  1.00  0.00    -0.066 OA 
HETATM   20  C   UNL     1      -9.698  11.280  66.155  1.00  0.00    -0.220 C  
HETATM   21  H   UNL     1     -12.601  11.907  69.922  1.00  0.00     0.000 HD 
HETATM   22  C   UNL     1     -10.730  10.834  68.464  1.00  0.00    -0.210 C  
HETATM   23  C   UNL     1     -10.049  10.231  67.226  1.00  0.00    -0.203 C  
BRANCH  20  24
HETATM   24  C   UNL     1      -9.495  10.645  64.760  1.00  0.00    -0.256 C  
HETATM   25  O   UNL     1      -9.153  11.584  63.740  1.00  0.00    -0.433 OA 
HETATM   26  H   UNL     1      -9.028  11.194  62.883  1.00  0.00     0.000 HD 
ENDBRANCH  20  24
BRANCH  23  27
HETATM   27  O   UNL     1      -8.793   9.589  67.587  1.00  0.00    -0.119 OA 
BRANCH  27  28
HETATM   28  C   UNL     1      -8.562   8.359  66.891  1.00  0.00    -0.125 C  
HETATM   29  O   UNL     1      -7.352   7.757  67.327  1.00  0.00    -0.087 OA 
HETATM   30  C   UNL     1      -7.372   7.447  68.723  1.00  0.00    -0.095 C  
HETATM   31  C   UNL     1      -8.444   6.362  68.996  1.00  0.00    -0.124 C  
HETATM   32  C   UNL     1      -5.942   7.047  69.078  1.00  0.00    -0.022 C  
HETATM   33  C   UNL     1      -9.825   6.883  68.515  1.00  0.00    -0.144 C  
HETATM   34  H   UNL     1     -11.646   6.146  68.237  1.00  0.00     0.000 HD 
HETATM   35  C   UNL     1      -9.750   7.402  67.077  1.00  0.00    -0.191 C  
HETATM   36  O   UNL     1     -10.801   5.826  68.531  1.00  0.00    -0.247 OA 
HETATM   37  O   UNL     1     -10.995   8.020  66.709  1.00  0.00    -0.352 OA 
HETATM   38  H   UNL     1     -11.730   7.429  66.824  1.00  0.00     0.000 HD 
BRANCH  31  39
HETATM   39  N   UNL     1      -8.407   5.968  70.426  1.00  0.00    -0.122 NA 
HETATM   40  H   UNL     1      -8.335   4.992  70.716  1.00  0.00     0.000 HD 
BRANCH  39  41
HETATM   41  C   UNL     1      -8.484   7.083  71.415  1.00  0.00    -0.114 C  
HETATM   42  C   UNL     1     -10.696   7.627  72.521  1.00  0.00    -0.350 C  
HETATM   43  C   UNL     1      -9.880   7.626  71.466  1.00  0.00    -0.192 C  
HETATM   44  C   UNL     1     -10.232   7.148  73.870  1.00  0.00    -0.315 C  
HETATM   45  H   UNL     1      -7.591   4.748  73.567  1.00  0.00     0.000 HD 
HETATM   46  O   UNL     1      -7.917   5.084  72.740  1.00  0.00    -0.099 OA 
HETATM   47  C   UNL     1      -8.700   6.982  74.037  1.00  0.00    -0.170 C  
HETATM   48  O   UNL     1     -10.906   5.924  74.151  1.00  0.00    -0.359 OA 
HETATM   49  H   UNL     1      -7.181   8.108  74.609  1.00  0.00     0.000 HD 
HETATM   50  O   UNL     1      -8.121   8.210  74.507  1.00  0.00    -0.243 OA 
HETATM   51  C   UNL     1      -7.949   6.529  72.777  1.00  0.00    -0.102 C  
HETATM   52  H   UNL     1     -10.613   5.622  75.003  1.00  0.00     0.000 HD 
BRANCH  42  53
HETATM   53  C   UNL     1     -12.137   8.083  72.455  1.00  0.00    -0.321 C  
HETATM   54  O   UNL     1     -13.032   7.005  72.203  1.00  0.00    -0.528 OA 
HETATM   55  H   UNL     1     -13.937   7.292  72.161  1.00  0.00     0.000 HD 
ENDBRANCH  42  53
ENDBRANCH  39  41
ENDBRANCH  31  39
ENDBRANCH  27  28
ENDBRANCH  23  27
ENDBRANCH  13  14
ENDBRANCH   4  13
ENDBRANCH   1   4
BRANCH   1  56
HETATM   56  C   UNL     1     -10.844  16.282  70.175  1.00  0.00    -0.298 C  
HETATM   57  O   UNL     1     -10.633  17.619  69.712  1.00  0.00    -0.253 OA 
HETATM   58  H   UNL     1     -10.422  18.173  70.455  1.00  0.00     0.000 HD 
ENDBRANCH   1  56
TORSDOF 12
ENDMDL
MODEL      138
REMARK 921   NORMALIZED FREE ENERGY PREDICTED BY IDOCK:   -4.71 KCAL/MOL
REMARK 922        TOTAL FREE ENERGY PREDICTED BY IDOCK:  -11.21 KCAL/MOL
REMARK 923 INTER-LIGAND FREE ENERGY PREDICTED BY IDOCK:   -9.93 KCAL/MOL
REMARK 924 INTRA-LIGAND FREE ENERGY PREDICTED BY IDOCK:   -1.28 KCAL/MOL
REMARK 927      BINDING AFFINITY PREDICTED BY RF-SCORE:    0.00 PKD
ROOT
HETATM    1  C   UNL     1      -9.298   5.651  67.071  1.00  0.00    -0.118 C  
HETATM    2  H   UNL     1      -7.961   7.032  66.819  1.00  0.00     0.000 HD 
HETATM    3  O   UNL     1      -8.807   6.837  66.433  1.00  0.00    -0.135 OA 
ENDROOT
BRANCH   1   4
HETATM    4  C   UNL     1      -9.340   5.775  68.624  1.00  0.00    -0.122 C  
BRANCH   4   5
HETATM    5  C   UNL     1      -9.970   4.522  69.310  1.00  0.00    -0.122 C  
HETATM    6  O   UNL     1     -10.595   4.863  70.556  1.00  0.00    -0.169 OA 
HETATM    7  H   UNL     1     -10.978   4.101  70.974  1.00  0.00     0.000 HD 
BRANCH   5   8
HETATM    8  C   UNL     1      -8.983   3.384  69.599  1.00  0.00    -0.113 C  
HETATM    9  C   UNL     1      -9.268   2.737  70.936  1.00  0.00    -0.136 C  
HETATM   10  O   UNL     1      -7.663   3.948  69.637  1.00  0.00    -0.052 OA 
HETATM   11  O   UNL     1     -10.024   1.776  71.062  1.00  0.00    -0.085 OA 
HETATM   12  H   UNL     1      -7.052   3.243  69.815  1.00  0.00     0.000 HD 
ENDBRANCH   5   8
ENDBRANCH   4   5
BRANCH   4  13
HETATM   13  O   UNL     1     -10.033   6.966  69.071  1.00  0.00    -0.153 OA 
BRANCH  13  14
HETATM   14  C   UNL     1      -9.817   7.309  70.450  1.00  0.00    -0.183 C  
HETATM   15  H   UNL     1     -12.966   9.709  70.975  1.00  0.00     0.000 HD 
HETATM   16  O   UNL     1     -12.257   7.369  70.932  1.00  0.00    -0.430 OA 
HETATM   17  C   UNL     1     -11.020   8.095  70.998  1.00  0.00    -0.244 C  
HETATM   18  O   UNL     1      -8.651   8.090  70.667  1.00  0.00    -0.125 OA 
HETATM   19  O   UNL     1     -12.161  10.209  70.909  1.00  0.00    -0.302 OA 
HETATM   20  C   UNL     1      -8.631   9.325  69.944  1.00  0.00    -0.170 C  
HETATM   21  H   UNL     1     -13.000   7.855  71.271  1.00  0.00     0.000 HD 
HETATM   22  C   UNL     1     -11.182   9.398  70.227  1.00  0.00    -0.246 C  
HETATM   23  C   UNL     1      -9.879  10.207  70.120  1.00  0.00    -0.053 C  
BRANCH  20  24
HETATM   24  C   UNL     1      -7.332  10.066  70.337  1.00  0.00    -0.080 C  
HETATM   25  O   UNL     1      -6.136   9.373  69.972  1.00  0.00    -0.036 OA 
HETATM   26  H   UNL     1      -5.338   9.829  70.214  1.00  0.00     0.000 HD 
ENDBRANCH  20  24
BRANCH  23  27
HETATM   27  O   UNL     1      -9.913  11.092  68.965  1.00  0.00    -0.205 OA 
BRANCH  27  28
HETATM   28  C   UNL     1     -10.932  10.752  68.017  1.00  0.00    -0.283 C  
HETATM   29  O   UNL     1     -11.916  11.773  67.952  1.00  0.00    -0.575 OA 
HETATM   30  C   UNL     1     -11.369  13.029  67.541  1.00  0.00    -0.305 C  
HETATM   31  C   UNL     1     -10.855  12.917  66.083  1.00  0.00    -0.279 C  
HETATM   32  C   UNL     1     -12.478  14.055  67.759  1.00  0.00     0.179 C  
HETATM   33  C   UNL     1      -9.792  11.787  66.007  1.00  0.00    -0.232 C  
HETATM   34  H   UNL     1      -8.813  10.799  64.592  1.00  0.00     0.000 HD 
HETATM   35  C   UNL     1     -10.317  10.492  66.633  1.00  0.00    -0.237 C  
HETATM   36  O   UNL     1      -9.464  11.490  64.638  1.00  0.00    -0.197 OA 
HETATM   37  O   UNL     1      -9.266   9.512  66.692  1.00  0.00    -0.143 OA 
HETATM   38  H   UNL     1      -8.885   9.351  65.837  1.00  0.00     0.000 HD 
BRANCH  31  39
HETATM   39  N   UNL     1     -10.370  14.239  65.617  1.00  0.00    -0.319 NA 
HETATM   40  H   UNL     1     -10.121  14.411  64.643  1.00  0.00     0.000 HD 
BRANCH  39  41
HETATM   41  C   UNL     1     -10.268  15.303  66.659  1.00  0.00    -0.271 C  
HETATM   42  C   UNL     1      -7.999  16.243  67.272  1.00  0.00    -0.195 C  
HETATM   43  C   UNL     1      -8.910  15.270  67.293  1.00  0.00    -0.212 C  
HETATM   44  C   UNL     1      -8.298  17.586  66.664  1.00  0.00    -0.261 C  
HETATM   45  H   UNL     1     -10.801  17.334  64.114  1.00  0.00     0.000 HD 
HETATM   46  O   UNL     1     -10.578  16.510  64.532  1.00  0.00    -0.559 OA 
HETATM   47  C   UNL     1      -9.794  17.878  66.379  1.00  0.00    -0.337 C  
HETATM   48  O   UNL     1      -7.526  17.704  65.472  1.00  0.00    -0.432 OA 
HETATM   49  H   UNL     1     -11.317  18.676  67.351  1.00  0.00     0.000 HD 
HETATM   50  O   UNL     1     -10.401  18.496  67.525  1.00  0.00    -0.367 OA 
HETATM   51  C   UNL     1     -10.634  16.660  65.969  1.00  0.00    -0.233 C  
HETATM   52  H   UNL     1      -7.715  18.552  65.088  1.00  0.00     0.000 HD 
BRANCH  42  53
HETATM   53  C   UNL     1      -6.602  16.081  67.831  1.00  0.00    -0.144 C  
HETATM   54  O   UNL     1      -5.610  16.065  66.810  1.00  0.00    -0.268 OA 
HETATM   55  H   UNL     1      -4.733  15.963  67.161  1.00  0.00     0.000 HD 
ENDBRANCH  42  53
ENDBRANCH  39  41
ENDBRANCH  31  39
ENDBRANCH  27  28
ENDBRANCH  23  27
ENDBRANCH  13  14
ENDBRANCH   4  13
ENDBRANCH   1   4
BRANCH   1  56
HETATM   56  C   UNL     1     -10.661   5.338  66.448  1.00  0.00    -0.276 C  
HETATM   57  O   UNL     1     -11.551   6.426  66.711  1.00  0.00    -0.700 OA 
HETATM   58  H   UNL     1     -12.397   6.231  66.324  1.00  0.00     0.000 HD 
ENDBRANCH   1  56
TORSDOF 12
ENDMDL
MODEL      139
REMARK 921   NORMALIZED FREE ENERGY PREDICTED BY IDOCK:   -4.69 KCAL/MOL
REMARK 922        TOTAL FREE ENERGY PREDICTED BY IDOCK:  -11.18 KCAL/MOL
REMARK 923 INTER-LIGAND FREE ENERGY PREDICTED BY IDOCK:   -9.42 KCAL/MOL
REMARK 924 INTRA-LIGAND FREE ENERGY PREDICTED BY IDOCK:   -1.76 KCAL/MOL
REMARK 927      BINDING AFFINITY PREDICTED BY RF-SCORE:    0.00 PKD
ROOT
HETATM    1  C   UNL     1      -9.525   3.095  71.408  1.00  0.00    -0.149 C  
HETATM    2  H   UNL     1      -9.370   1.794  72.837  1.00  0.00     0.000 HD 
HETATM    3  O   UNL     1      -9.101   1.827  71.926  1.00  0.00    -0.073 OA 
ENDROOT
BRANCH   1   4
HETATM    4  C   UNL     1      -9.005   4.297  72.252  1.00  0.00    -0.116 C  
BRANCH   4   5
HETATM    5  C   UNL     1      -9.934   4.626  73.463  1.00  0.00    -0.148 C  
HETATM    6  O   UNL     1     -11.054   3.730  73.526  1.00  0.00    -0.227 OA 
HETATM    7  H   UNL     1     -11.619   3.930  74.263  1.00  0.00     0.000 HD 
BRANCH   5   8
HETATM    8  C   UNL     1     -10.498   6.052  73.472  1.00  0.00    -0.262 C  
HETATM    9  C   UNL     1     -11.085   6.419  72.126  1.00  0.00    -0.263 C  
HETATM   10  O   UNL     1      -9.414   6.950  73.756  1.00  0.00    -0.168 OA 
HETATM   11  O   UNL     1     -12.264   6.223  71.840  1.00  0.00    -0.329 OA 
HETATM   12  H   UNL     1      -9.763   7.833  73.762  1.00  0.00     0.000 HD 
ENDBRANCH   5   8
ENDBRANCH   4   5
BRANCH   4  13
HETATM   13  O   UNL     1      -8.808   5.493  71.460  1.00  0.00    -0.134 OA 
BRANCH  13  14
HETATM   14  C   UNL     1      -7.461   5.701  71.004  1.00  0.00    -0.090 C  
HETATM   15  H   UNL     1      -6.998   9.483  72.200  1.00  0.00     0.000 HD 
HETATM   16  O   UNL     1      -6.912   7.156  72.946  1.00  0.00    -0.068 OA 
HETATM   17  C   UNL     1      -6.928   7.051  71.514  1.00  0.00    -0.065 C  
HETATM   18  O   UNL     1      -7.327   5.686  69.590  1.00  0.00    -0.063 OA 
HETATM   19  O   UNL     1      -7.119   9.433  71.259  1.00  0.00    -0.279 OA 
HETATM   20  C   UNL     1      -8.128   6.663  68.918  1.00  0.00    -0.116 C  
HETATM   21  H   UNL     1      -6.583   7.990  73.261  1.00  0.00     0.000 HD 
HETATM   22  C   UNL     1      -7.776   8.186  70.955  1.00  0.00    -0.085 C  
HETATM   23  C   UNL     1      -7.972   8.105  69.433  1.00  0.00    -0.114 C  
BRANCH  20  24
HETATM   24  C   UNL     1      -7.821   6.546  67.407  1.00  0.00    -0.112 C  
HETATM   25  O   UNL     1      -8.226   5.305  66.827  1.00  0.00    -0.108 OA 
HETATM   26  H   UNL     1      -8.038   5.234  65.899  1.00  0.00     0.000 HD 
ENDBRANCH  20  24
BRANCH  23  27
HETATM   27  O   UNL     1      -9.180   8.809  69.029  1.00  0.00    -0.141 OA 
BRANCH  27  28
HETATM   28  C   UNL     1      -9.332  10.086  69.660  1.00  0.00    -0.220 C  
HETATM   29  O   UNL     1      -8.786  11.114  68.848  1.00  0.00    -0.151 OA 
HETATM   30  C   UNL     1      -9.431  11.201  67.575  1.00  0.00    -0.168 C  
HETATM   31  C   UNL     1     -10.907  11.630  67.772  1.00  0.00    -0.217 C  
HETATM   32  C   UNL     1      -8.583  12.163  66.745  1.00  0.00    -0.163 C  
HETATM   33  C   UNL     1     -11.615  10.599  68.693  1.00  0.00    -0.227 C  
HETATM   34  H   UNL     1     -13.343  10.449  69.655  1.00  0.00     0.000 HD 
HETATM   35  C   UNL     1     -10.811  10.360  69.973  1.00  0.00    -0.289 C  
HETATM   36  O   UNL     1     -12.910  11.080  69.091  1.00  0.00    -0.137 OA 
HETATM   37  O   UNL     1     -11.402   9.292  70.734  1.00  0.00    -0.257 OA 
HETATM   38  H   UNL     1     -12.316   9.461  70.928  1.00  0.00     0.000 HD 
BRANCH  31  39
HETATM   39  N   UNL     1     -11.558  11.812  66.451  1.00  0.00    -0.485 NA 
HETATM   40  H   UNL     1     -11.614  11.057  65.768  1.00  0.00     0.000 HD 
BRANCH  39  41
HETATM   41  C   UNL     1     -12.126  13.166  66.181  1.00  0.00    -0.417 C  
HETATM   42  C   UNL     1     -10.991  15.215  67.141  1.00  0.00    -0.326 C  
HETATM   43  C   UNL     1     -11.730  14.113  67.273  1.00  0.00    -0.421 C  
HETATM   44  C   UNL     1     -10.541  15.700  65.789  1.00  0.00    -0.361 C  
HETATM   45  H   UNL     1     -10.277  12.997  63.455  1.00  0.00     0.000 HD 
HETATM   46  O   UNL     1     -10.562  12.742  64.324  1.00  0.00    -0.353 OA 
HETATM   47  C   UNL     1     -11.252  15.057  64.571  1.00  0.00    -0.265 C  
HETATM   48  O   UNL     1      -9.131  15.510  65.708  1.00  0.00    -0.368 OA 
HETATM   49  H   UNL     1     -12.854  15.426  63.477  1.00  0.00     0.000 HD 
HETATM   50  O   UNL     1     -12.419  15.820  64.224  1.00  0.00    -0.446 OA 
HETATM   51  C   UNL     1     -11.656  13.586  64.749  1.00  0.00    -0.349 C  
HETATM   52  H   UNL     1      -8.847  15.816  64.854  1.00  0.00     0.000 HD 
BRANCH  42  53
HETATM   53  C   UNL     1     -10.531  16.051  68.315  1.00  0.00    -0.269 C  
HETATM   54  O   UNL     1     -11.520  16.988  68.730  1.00  0.00    -0.111 OA 
HETATM   55  H   UNL     1     -11.231  17.513  69.468  1.00  0.00     0.000 HD 
ENDBRANCH  42  53
ENDBRANCH  39  41
ENDBRANCH  31  39
ENDBRANCH  27  28
ENDBRANCH  23  27
ENDBRANCH  13  14
ENDBRANCH   4  13
ENDBRANCH   1   4
BRANCH   1  56
HETATM   56  C   UNL     1      -9.090   3.148  69.941  1.00  0.00    -0.126 C  
HETATM   57  O   UNL     1      -9.904   4.099  69.251  1.00  0.00    -0.180 OA 
HETATM   58  H   UNL     1      -9.634   4.133  68.340  1.00  0.00     0.000 HD 
ENDBRANCH   1  56
TORSDOF 12
ENDMDL
MODEL      140
REMARK 921   NORMALIZED FREE ENERGY PREDICTED BY IDOCK:   -4.68 KCAL/MOL
REMARK 922        TOTAL FREE ENERGY PREDICTED BY IDOCK:  -11.15 KCAL/MOL
REMARK 923 INTER-LIGAND FREE ENERGY PREDICTED BY IDOCK:   -9.81 KCAL/MOL
REMARK 924 INTRA-LIGAND FREE ENERGY PREDICTED BY IDOCK:   -1.34 KCAL/MOL
REMARK 927      BINDING AFFINITY PREDICTED BY RF-SCORE:    0.00 PKD
ROOT
HETATM    1  C   UNL     1      -6.749   7.033  66.971  1.00  0.00    -0.059 C  
HETATM    2  H   UNL     1      -5.304   8.276  66.617  1.00  0.00     0.000 HD 
HETATM    3  O   UNL     1      -5.391   7.330  66.621  1.00  0.00    -0.022 OA 
ENDROOT
BRANCH   1   4
HETATM    4  C   UNL     1      -7.781   7.747  66.047  1.00  0.00    -0.093 C  
BRANCH   4   5
HETATM    5  C   UNL     1      -7.107   8.745  65.053  1.00  0.00    -0.080 C  
HETATM    6  O   UNL     1      -7.450  10.105  65.358  1.00  0.00    -0.133 OA 
HETATM    7  H   UNL     1      -7.040  10.712  64.753  1.00  0.00     0.000 HD 
BRANCH   5   8
HETATM    8  C   UNL     1      -7.454   8.514  63.576  1.00  0.00    -0.112 C  
HETATM    9  C   UNL     1      -8.638   9.355  63.153  1.00  0.00    -0.219 C  
HETATM   10  O   UNL     1      -7.799   7.128  63.420  1.00  0.00    -0.118 OA 
HETATM   11  O   UNL     1      -8.518  10.486  62.688  1.00  0.00    -0.164 OA 
HETATM   12  H   UNL     1      -8.014   6.986  62.506  1.00  0.00     0.000 HD 
ENDBRANCH   5   8
ENDBRANCH   4   5
BRANCH   4  13
HETATM   13  O   UNL     1      -8.814   8.437  66.792  1.00  0.00    -0.129 OA 
BRANCH  13  14
HETATM   14  C   UNL     1      -8.744   8.273  68.218  1.00  0.00    -0.136 C  
HETATM   15  H   UNL     1     -12.395   9.589  69.158  1.00  0.00     0.000 HD 
HETATM   16  O   UNL     1     -11.145   7.639  68.374  1.00  0.00    -0.434 OA 
HETATM   17  C   UNL     1     -10.121   8.526  68.853  1.00  0.00    -0.203 C  
HETATM   18  O   UNL     1      -7.809   9.137  68.846  1.00  0.00    -0.091 OA 
HETATM   19  O   UNL     1     -11.732  10.232  69.378  1.00  0.00    -0.194 OA 
HETATM   20  C   UNL     1      -8.056  10.529  68.620  1.00  0.00    -0.127 C  
HETATM   21  H   UNL     1     -11.996   7.796  68.766  1.00  0.00     0.000 HD 
HETATM   22  C   UNL     1     -10.559   9.960  68.583  1.00  0.00    -0.217 C  
HETATM   23  C   UNL     1      -9.486  11.000  68.938  1.00  0.00    -0.155 C  
BRANCH  20  24
HETATM   24  C   UNL     1      -6.990  11.319  69.414  1.00  0.00    -0.109 C  
HETATM   25  O   UNL     1      -7.182  12.734  69.391  1.00  0.00    -0.314 OA 
HETATM   26  H   UNL     1      -6.527  13.220  69.879  1.00  0.00     0.000 HD 
ENDBRANCH  20  24
BRANCH  23  27
HETATM   27  O   UNL     1      -9.683  12.227  68.180  1.00  0.00    -0.202 OA 
BRANCH  27  28
HETATM   28  C   UNL     1     -10.952  12.290  67.519  1.00  0.00    -0.254 C  
HETATM   29  O   UNL     1     -11.697  13.411  67.972  1.00  0.00    -0.315 OA 
HETATM   30  C   UNL     1     -11.031  14.648  67.710  1.00  0.00    -0.286 C  
HETATM   31  C   UNL     1     -10.929  14.865  66.179  1.00  0.00    -0.334 C  
HETATM   32  C   UNL     1     -11.823  15.713  68.463  1.00  0.00    -0.252 C  
HETATM   33  C   UNL     1     -10.166  13.669  65.547  1.00  0.00    -0.302 C  
HETATM   34  H   UNL     1      -9.787  12.980  63.726  1.00  0.00     0.000 HD 
HETATM   35  C   UNL     1     -10.765  12.334  65.995  1.00  0.00    -0.261 C  
HETATM   36  O   UNL     1     -10.254  13.711  64.112  1.00  0.00    -0.297 OA 
HETATM   37  O   UNL     1      -9.950  11.245  65.526  1.00  0.00    -0.223 OA 
HETATM   38  H   UNL     1      -9.834  11.272  64.584  1.00  0.00     0.000 HD 
BRANCH  31  39
HETATM   39  N   UNL     1     -10.322  16.190  65.898  1.00  0.00    -0.350 NA 
HETATM   40  H   UNL     1     -10.076  16.482  64.952  1.00  0.00     0.000 HD 
BRANCH  39  41
HETATM   41  C   UNL     1     -10.091  17.069  67.082  1.00  0.00    -0.292 C  
HETATM   42  C   UNL     1      -7.804  18.088  67.460  1.00  0.00    -0.217 C  
HETATM   43  C   UNL     1      -8.641  17.049  67.459  1.00  0.00    -0.212 C  
HETATM   44  C   UNL     1      -8.286  19.483  67.164  1.00  0.00    -0.290 C  
HETATM   45  H   UNL     1     -11.195  19.442  65.075  1.00  0.00     0.000 HD 
HETATM   46  O   UNL     1     -10.853  18.583  65.293  1.00  0.00    -0.606 OA 
HETATM   47  C   UNL     1      -9.823  19.686  67.196  1.00  0.00    -0.369 C  
HETATM   48  O   UNL     1      -7.753  19.867  65.900  1.00  0.00    -0.335 OA 
HETATM   49  H   UNL     1     -11.185  20.171  68.540  1.00  0.00     0.000 HD 
HETATM   50  O   UNL     1     -10.244  20.047  68.521  1.00  0.00    -0.442 OA 
HETATM   51  C   UNL     1     -10.653  18.484  66.722  1.00  0.00    -0.354 C  
HETATM   52  H   UNL     1      -8.058  20.747  65.713  1.00  0.00     0.000 HD 
BRANCH  42  53
HETATM   53  C   UNL     1      -6.322  17.959  67.734  1.00  0.00    -0.176 C  
HETATM   54  O   UNL     1      -5.581  19.062  67.224  1.00  0.00    -0.163 OA 
HETATM   55  H   UNL     1      -4.650  18.980  67.396  1.00  0.00     0.000 HD 
ENDBRANCH  42  53
ENDBRANCH  39  41
ENDBRANCH  31  39
ENDBRANCH  27  28
ENDBRANCH  23  27
ENDBRANCH  13  14
ENDBRANCH   4  13
ENDBRANCH   1   4
BRANCH   1  56
HETATM   56  C   UNL     1      -6.889   5.509  66.976  1.00  0.00    -0.064 C  
HETATM   57  O   UNL     1      -8.272   5.171  67.111  1.00  0.00    -0.107 OA 
HETATM   58  H   UNL     1      -8.359   4.225  67.114  1.00  0.00     0.000 HD 
ENDBRANCH   1  56
TORSDOF 12
ENDMDL
MODEL      141
REMARK 921   NORMALIZED FREE ENERGY PREDICTED BY IDOCK:   -4.67 KCAL/MOL
REMARK 922        TOTAL FREE ENERGY PREDICTED BY IDOCK:  -11.15 KCAL/MOL
REMARK 923 INTER-LIGAND FREE ENERGY PREDICTED BY IDOCK:   -9.09 KCAL/MOL
REMARK 924 INTRA-LIGAND FREE ENERGY PREDICTED BY IDOCK:   -2.06 KCAL/MOL
REMARK 927      BINDING AFFINITY PREDICTED BY RF-SCORE:    0.00 PKD
ROOT
HETATM    1  C   UNL     1     -10.710  15.481  70.290  1.00  0.00    -0.333 C  
HETATM    2  H   UNL     1     -11.929  16.107  71.661  1.00  0.00     0.000 HD 
HETATM    3  O   UNL     1     -11.371  16.526  71.016  1.00  0.00    -0.307 OA 
ENDROOT
BRANCH   1   4
HETATM    4  C   UNL     1     -11.705  14.451  69.675  1.00  0.00    -0.309 C  
BRANCH   4   5
HETATM    5  C   UNL     1     -13.014  14.306  70.513  1.00  0.00    -0.201 C  
HETATM    6  O   UNL     1     -13.730  15.548  70.589  1.00  0.00    -0.851 OA 
HETATM    7  H   UNL     1     -14.527  15.460  71.099  1.00  0.00     0.000 HD 
BRANCH   5   8
HETATM    8  C   UNL     1     -12.805  13.819  71.953  1.00  0.00    -0.309 C  
HETATM    9  C   UNL     1     -13.501  12.497  72.191  1.00  0.00    -0.422 C  
HETATM   10  O   UNL     1     -13.375  14.800  72.833  1.00  0.00    -0.459 OA 
HETATM   11  O   UNL     1     -12.950  11.414  72.011  1.00  0.00    -0.442 OA 
HETATM   12  H   UNL     1     -13.246  14.499  73.724  1.00  0.00     0.000 HD 
ENDBRANCH   5   8
ENDBRANCH   4   5
BRANCH   4  13
HETATM   13  O   UNL     1     -11.110  13.145  69.484  1.00  0.00    -0.142 OA 
BRANCH  13  14
HETATM   14  C   UNL     1     -11.099  12.678  68.125  1.00  0.00    -0.249 C  
HETATM   15  H   UNL     1     -11.301   8.753  68.832  1.00  0.00     0.000 HD 
HETATM   16  O   UNL     1     -12.637  10.792  68.643  1.00  0.00    -0.669 OA 
HETATM   17  C   UNL     1     -11.370  11.165  68.078  1.00  0.00    -0.312 C  
HETATM   18  O   UNL     1      -9.875  12.923  67.447  1.00  0.00    -0.202 OA 
HETATM   19  O   UNL     1     -10.426   9.009  68.564  1.00  0.00    -0.211 OA 
HETATM   20  C   UNL     1      -8.732  12.335  68.076  1.00  0.00    -0.181 C  
HETATM   21  H   UNL     1     -12.804   9.857  68.615  1.00  0.00     0.000 HD 
HETATM   22  C   UNL     1     -10.270  10.419  68.821  1.00  0.00    -0.187 C  
HETATM   23  C   UNL     1      -8.855  10.833  68.388  1.00  0.00    -0.146 C  
BRANCH  20  24
HETATM   24  C   UNL     1      -7.507  12.649  67.186  1.00  0.00    -0.050 C  
HETATM   25  O   UNL     1      -7.261  14.045  67.009  1.00  0.00    -0.355 OA 
HETATM   26  H   UNL     1      -6.508  14.237  66.462  1.00  0.00     0.000 HD 
ENDBRANCH  20  24
BRANCH  23  27
HETATM   27  O   UNL     1      -7.890  10.560  69.443  1.00  0.00    -0.145 OA 
BRANCH  27  28
HETATM   28  C   UNL     1      -6.663   9.999  68.960  1.00  0.00    -0.053 C  
HETATM   29  O   UNL     1      -5.737   9.833  70.024  1.00  0.00    -0.038 OA 
HETATM   30  C   UNL     1      -6.227   8.952  71.038  1.00  0.00    -0.052 C  
HETATM   31  C   UNL     1      -6.378   7.525  70.454  1.00  0.00    -0.038 C  
HETATM   32  C   UNL     1      -5.245   9.074  72.201  1.00  0.00    -0.056 C  
HETATM   33  C   UNL     1      -7.344   7.576  69.238  1.00  0.00    -0.089 C  
HETATM   34  H   UNL     1      -7.919   6.359  67.782  1.00  0.00     0.000 HD 
HETATM   35  C   UNL     1      -6.925   8.664  68.246  1.00  0.00    -0.073 C  
HETATM   36  O   UNL     1      -7.329   6.327  68.525  1.00  0.00    -0.082 OA 
HETATM   37  O   UNL     1      -7.917   8.797  67.213  1.00  0.00    -0.097 OA 
HETATM   38  H   UNL     1      -8.079   7.973  66.771  1.00  0.00     0.000 HD 
BRANCH  31  39
HETATM   39  N   UNL     1      -6.798   6.586  71.523  1.00  0.00    -0.065 NA 
HETATM   40  H   UNL     1      -6.127   5.999  72.020  1.00  0.00     0.000 HD 
BRANCH  39  41
HETATM   41  C   UNL     1      -8.258   6.550  71.828  1.00  0.00    -0.112 C  
HETATM   42  C   UNL     1      -9.388   4.333  72.294  1.00  0.00    -0.168 C  
HETATM   43  C   UNL     1      -8.824   5.211  71.464  1.00  0.00    -0.145 C  
HETATM   44  C   UNL     1      -9.616   4.660  73.745  1.00  0.00    -0.124 C  
HETATM   45  H   UNL     1      -7.251   7.077  74.925  1.00  0.00     0.000 HD 
HETATM   46  O   UNL     1      -7.150   6.839  74.011  1.00  0.00    -0.089 OA 
HETATM   47  C   UNL     1      -9.477   6.156  74.129  1.00  0.00    -0.166 C  
HETATM   48  O   UNL     1      -8.726   3.857  74.516  1.00  0.00    -0.093 OA 
HETATM   49  H   UNL     1     -10.661   7.733  74.232  1.00  0.00     0.000 HD 
HETATM   50  O   UNL     1     -10.746   6.816  73.997  1.00  0.00    -0.272 OA 
HETATM   51  C   UNL     1      -8.424   6.941  73.335  1.00  0.00    -0.120 C  
HETATM   52  H   UNL     1      -8.870   4.064  75.432  1.00  0.00     0.000 HD 
BRANCH  42  53
HETATM   53  C   UNL     1      -9.822   2.949  71.865  1.00  0.00    -0.164 C  
HETATM   54  O   UNL     1      -9.409   1.944  72.785  1.00  0.00    -0.075 OA 
HETATM   55  H   UNL     1      -9.681   1.074  72.516  1.00  0.00     0.000 HD 
ENDBRANCH  42  53
ENDBRANCH  39  41
ENDBRANCH  31  39
ENDBRANCH  27  28
ENDBRANCH  23  27
ENDBRANCH  13  14
ENDBRANCH   4  13
ENDBRANCH   1   4
BRANCH   1  56
HETATM   56  C   UNL     1      -9.811  16.155  69.251  1.00  0.00    -0.250 C  
HETATM   57  O   UNL     1      -8.743  15.265  68.915  1.00  0.00    -0.180 OA 
HETATM   58  H   UNL     1      -8.185  15.683  68.269  1.00  0.00     0.000 HD 
ENDBRANCH   1  56
TORSDOF 12
ENDMDL
MODEL      142
REMARK 921   NORMALIZED FREE ENERGY PREDICTED BY IDOCK:   -4.65 KCAL/MOL
REMARK 922        TOTAL FREE ENERGY PREDICTED BY IDOCK:  -11.11 KCAL/MOL
REMARK 923 INTER-LIGAND FREE ENERGY PREDICTED BY IDOCK:   -9.74 KCAL/MOL
REMARK 924 INTRA-LIGAND FREE ENERGY PREDICTED BY IDOCK:   -1.37 KCAL/MOL
REMARK 927      BINDING AFFINITY PREDICTED BY RF-SCORE:    0.00 PKD
ROOT
HETATM    1  C   UNL     1     -11.300  14.924  65.776  1.00  0.00    -0.314 C  
HETATM    2  H   UNL     1     -13.086  14.338  66.249  1.00  0.00     0.000 HD 
HETATM    3  O   UNL     1     -12.726  15.065  65.755  1.00  0.00     0.253 OA 
ENDROOT
BRANCH   1   4
HETATM    4  C   UNL     1     -10.824  13.531  65.264  1.00  0.00    -0.310 C  
BRANCH   4   5
HETATM    5  C   UNL     1     -11.826  12.887  64.255  1.00  0.00    -0.395 C  
HETATM    6  O   UNL     1     -13.146  12.795  64.811  1.00  0.00    -0.813 OA 
HETATM    7  H   UNL     1     -13.756  12.404  64.197  1.00  0.00     0.000 HD 
BRANCH   5   8
HETATM    8  C   UNL     1     -11.441  11.482  63.775  1.00  0.00    -0.286 C  
HETATM    9  C   UNL     1     -10.023  11.450  63.249  1.00  0.00    -0.401 C  
HETATM   10  O   UNL     1     -12.333  11.126  62.706  1.00  0.00    -0.687 OA 
HETATM   11  O   UNL     1      -9.055  11.198  63.962  1.00  0.00    -0.150 OA 
HETATM   12  H   UNL     1     -12.095  10.256  62.409  1.00  0.00     0.000 HD 
ENDBRANCH   5   8
ENDBRANCH   4   5
BRANCH   4  13
HETATM   13  O   UNL     1     -10.564  12.599  66.342  1.00  0.00    -0.247 OA 
BRANCH  13  14
HETATM   14  C   UNL     1     -10.278  13.208  67.612  1.00  0.00    -0.224 C  
HETATM   15  H   UNL     1      -6.318  12.688  67.653  1.00  0.00     0.000 HD 
HETATM   16  O   UNL     1      -8.108  14.124  66.809  1.00  0.00    -0.384 OA 
HETATM   17  C   UNL     1      -8.758  13.331  67.815  1.00  0.00    -0.194 C  
HETATM   18  O   UNL     1     -10.809  12.495  68.720  1.00  0.00    -0.242 OA 
HETATM   19  O   UNL     1      -6.750  12.081  68.243  1.00  0.00    -0.055 OA 
HETATM   20  C   UNL     1     -10.351  11.143  68.817  1.00  0.00    -0.205 C  
HETATM   21  H   UNL     1      -7.169  14.200  66.934  1.00  0.00     0.000 HD 
HETATM   22  C   UNL     1      -8.124  11.947  67.824  1.00  0.00    -0.146 C  
HETATM   23  C   UNL     1      -8.823  10.964  68.776  1.00  0.00    -0.161 C  
BRANCH  20  24
HETATM   24  C   UNL     1     -10.976  10.538  70.096  1.00  0.00    -0.270 C  
HETATM   25  O   UNL     1     -12.193   9.826  69.866  1.00  0.00    -0.463 OA 
HETATM   26  H   UNL     1     -12.576   9.455  70.652  1.00  0.00     0.000 HD 
ENDBRANCH  20  24
BRANCH  23  27
HETATM   27  O   UNL     1      -8.589   9.588  68.363  1.00  0.00    -0.118 OA 
BRANCH  27  28
HETATM   28  C   UNL     1      -7.294   9.378  67.787  1.00  0.00    -0.083 C  
HETATM   29  O   UNL     1      -6.337   9.097  68.798  1.00  0.00    -0.048 OA 
HETATM   30  C   UNL     1      -6.659   7.917  69.537  1.00  0.00    -0.035 C  
HETATM   31  C   UNL     1      -6.582   6.684  68.602  1.00  0.00    -0.051 C  
HETATM   32  C   UNL     1      -5.693   7.893  70.719  1.00  0.00    -0.030 C  
HETATM   33  C   UNL     1      -7.561   6.888  67.413  1.00  0.00    -0.109 C  
HETATM   34  H   UNL     1      -7.950   6.011  65.678  1.00  0.00     0.000 HD 
HETATM   35  C   UNL     1      -7.343   8.249  66.747  1.00  0.00    -0.083 C  
HETATM   36  O   UNL     1      -7.351   5.885  66.404  1.00  0.00    -0.075 OA 
HETATM   37  O   UNL     1      -8.359   8.480  65.755  1.00  0.00    -0.123 OA 
HETATM   38  H   UNL     1      -8.389   7.783  65.112  1.00  0.00     0.000 HD 
BRANCH  31  39
HETATM   39  N   UNL     1      -6.823   5.445  69.381  1.00  0.00    -0.055 NA 
HETATM   40  H   UNL     1      -6.076   4.782  69.588  1.00  0.00     0.000 HD 
BRANCH  39  41
HETATM   41  C   UNL     1      -8.224   5.226  69.846  1.00  0.00    -0.094 C  
HETATM   42  C   UNL     1      -9.271   2.930  69.635  1.00  0.00    -0.217 C  
HETATM   43  C   UNL     1      -8.834   4.074  69.106  1.00  0.00    -0.147 C  
HETATM   44  C   UNL     1      -9.289   2.711  71.124  1.00  0.00    -0.140 C  
HETATM   45  H   UNL     1      -6.784   4.678  72.762  1.00  0.00     0.000 HD 
HETATM   46  O   UNL     1      -6.815   4.784  71.819  1.00  0.00    -0.047 OA 
HETATM   47  C   UNL     1      -9.100   3.980  71.994  1.00  0.00    -0.120 C  
HETATM   48  O   UNL     1      -8.296   1.737  71.431  1.00  0.00    -0.046 OA 
HETATM   49  H   UNL     1     -10.260   5.354  72.811  1.00  0.00     0.000 HD 
HETATM   50  O   UNL     1     -10.376   4.576  72.278  1.00  0.00    -0.189 OA 
HETATM   51  C   UNL     1      -8.173   5.051  71.400  1.00  0.00    -0.113 C  
HETATM   52  H   UNL     1      -8.307   1.599  72.371  1.00  0.00     0.000 HD 
BRANCH  42  53
HETATM   53  C   UNL     1      -9.760   1.766  68.802  1.00  0.00     0.030 C  
HETATM   54  O   UNL     1      -9.774   2.066  67.410  1.00  0.00    -0.410 OA 
HETATM   55  H   UNL     1     -10.082   1.335  66.887  1.00  0.00     0.000 HD 
ENDBRANCH  42  53
ENDBRANCH  39  41
ENDBRANCH  31  39
ENDBRANCH  27  28
ENDBRANCH  23  27
ENDBRANCH  13  14
ENDBRANCH   4  13
ENDBRANCH   1   4
BRANCH   1  56
HETATM   56  C   UNL     1     -10.720  16.095  64.979  1.00  0.00    -0.337 C  
HETATM   57  O   UNL     1     -11.682  16.515  64.007  1.00  0.00    -1.405 OA 
HETATM   58  H   UNL     1     -11.322  17.243  63.513  1.00  0.00     0.000 HD 
ENDBRANCH   1  56
TORSDOF 12
ENDMDL
MODEL      143
REMARK 921   NORMALIZED FREE ENERGY PREDICTED BY IDOCK:   -4.62 KCAL/MOL
REMARK 922        TOTAL FREE ENERGY PREDICTED BY IDOCK:  -11.05 KCAL/MOL
REMARK 923 INTER-LIGAND FREE ENERGY PREDICTED BY IDOCK:  -10.43 KCAL/MOL
REMARK 924 INTRA-LIGAND FREE ENERGY PREDICTED BY IDOCK:   -0.62 KCAL/MOL
REMARK 927      BINDING AFFINITY PREDICTED BY RF-SCORE:    0.00 PKD
ROOT
HETATM    1  C   UNL     1      -8.556   7.580  66.604  1.00  0.00    -0.130 C  
HETATM    2  H   UNL     1      -8.397   9.393  65.938  1.00  0.00     0.000 HD 
HETATM    3  O   UNL     1      -9.038   8.698  65.847  1.00  0.00    -0.189 OA 
ENDROOT
BRANCH   1   4
HETATM    4  C   UNL     1      -8.242   7.945  68.086  1.00  0.00    -0.123 C  
BRANCH   4   5
HETATM    5  C   UNL     1      -7.585   6.765  68.869  1.00  0.00    -0.105 C  
HETATM    6  O   UNL     1      -7.729   6.930  70.288  1.00  0.00    -0.096 OA 
HETATM    7  H   UNL     1      -7.329   6.212  70.764  1.00  0.00     0.000 HD 
BRANCH   5   8
HETATM    8  C   UNL     1      -6.090   6.562  68.590  1.00  0.00    -0.025 C  
HETATM    9  C   UNL     1      -5.841   5.270  67.843  1.00  0.00    -0.017 C  
HETATM   10  O   UNL     1      -5.415   6.494  69.856  1.00  0.00    -0.014 OA 
HETATM   11  O   UNL     1      -5.822   5.205  66.616  1.00  0.00    -0.020 OA 
HETATM   12  H   UNL     1      -4.489   6.369  69.683  1.00  0.00     0.000 HD 
ENDBRANCH   5   8
ENDBRANCH   4   5
BRANCH   4  13
HETATM   13  O   UNL     1      -9.410   8.407  68.807  1.00  0.00    -0.143 OA 
BRANCH  13  14
HETATM   14  C   UNL     1      -9.134   9.314  69.888  1.00  0.00    -0.191 C  
HETATM   15  H   UNL     1     -12.862  10.552  70.606  1.00  0.00     0.000 HD 
HETATM   16  O   UNL     1     -11.263   8.755  71.047  1.00  0.00    -0.250 OA 
HETATM   17  C   UNL     1     -10.447   9.811  70.516  1.00  0.00    -0.301 C  
HETATM   18  O   UNL     1      -8.378  10.452  69.499  1.00  0.00    -0.162 OA 
HETATM   19  O   UNL     1     -12.360  11.219  70.153  1.00  0.00    -0.296 OA 
HETATM   20  C   UNL     1      -8.992  11.237  68.471  1.00  0.00    -0.166 C  
HETATM   21  H   UNL     1     -12.074   9.062  71.435  1.00  0.00     0.000 HD 
HETATM   22  C   UNL     1     -11.259  10.576  69.480  1.00  0.00    -0.271 C  
HETATM   23  C   UNL     1     -10.447  11.656  68.747  1.00  0.00    -0.204 C  
BRANCH  20  24
HETATM   24  C   UNL     1      -8.073  12.453  68.213  1.00  0.00    -0.166 C  
HETATM   25  O   UNL     1      -6.684  12.183  68.412  1.00  0.00    -0.054 OA 
HETATM   26  H   UNL     1      -6.120  12.931  68.253  1.00  0.00     0.000 HD 
ENDBRANCH  20  24
BRANCH  23  27
HETATM   27  O   UNL     1     -11.033  11.953  67.449  1.00  0.00    -0.235 OA 
BRANCH  27  28
HETATM   28  C   UNL     1     -12.135  12.866  67.518  1.00  0.00    -0.192 C  
HETATM   29  O   UNL     1     -11.855  13.919  68.428  1.00  0.00    -0.340 OA 
HETATM   30  C   UNL     1     -10.708  14.681  68.043  1.00  0.00    -0.246 C  
HETATM   31  C   UNL     1     -10.999  15.413  66.708  1.00  0.00    -0.282 C  
HETATM   32  C   UNL     1     -10.400  15.593  69.227  1.00  0.00    -0.250 C  
HETATM   33  C   UNL     1     -11.368  14.363  65.625  1.00  0.00    -0.330 C  
HETATM   34  H   UNL     1     -12.097  14.366  63.780  1.00  0.00     0.000 HD 
HETATM   35  C   UNL     1     -12.465  13.419  66.122  1.00  0.00    -0.326 C  
HETATM   36  O   UNL     1     -11.871  15.009  64.442  1.00  0.00    -0.413 OA 
HETATM   37  O   UNL     1     -12.679  12.364  65.168  1.00  0.00    -0.630 OA 
HETATM   38  H   UNL     1     -12.883  12.705  64.306  1.00  0.00     0.000 HD 
BRANCH  31  39
HETATM   39  N   UNL     1      -9.848  16.278  66.348  1.00  0.00    -0.272 NA 
HETATM   40  H   UNL     1      -9.233  16.060  65.564  1.00  0.00     0.000 HD 
BRANCH  39  41
HETATM   41  C   UNL     1      -9.643  17.484  67.202  1.00  0.00    -0.262 C  
HETATM   42  C   UNL     1      -7.482  18.791  67.027  1.00  0.00    -0.229 C  
HETATM   43  C   UNL     1      -8.178  17.720  67.411  1.00  0.00    -0.221 C  
HETATM   44  C   UNL     1      -8.156  19.982  66.401  1.00  0.00    -0.307 C  
HETATM   45  H   UNL     1     -11.183  19.041  64.735  1.00  0.00     0.000 HD 
HETATM   46  O   UNL     1     -10.721  18.322  65.150  1.00  0.00    -0.586 OA 
HETATM   47  C   UNL     1      -9.699  20.032  66.539  1.00  0.00    -0.443 C  
HETATM   48  O   UNL     1      -7.771  20.028  65.030  1.00  0.00    -0.265 OA 
HETATM   49  H   UNL     1     -11.009  20.755  67.829  1.00  0.00     0.000 HD 
HETATM   50  O   UNL     1     -10.063  20.724  67.745  1.00  0.00    -0.288 OA 
HETATM   51  C   UNL     1     -10.404  18.668  66.517  1.00  0.00    -0.421 C  
HETATM   52  H   UNL     1      -8.197  20.780  64.635  1.00  0.00     0.000 HD 
BRANCH  42  53
HETATM   53  C   UNL     1      -5.979  18.896  67.166  1.00  0.00    -0.159 C  
HETATM   54  O   UNL     1      -5.297  18.461  65.994  1.00  0.00    -0.139 OA 
HETATM   55  H   UNL     1      -4.353  18.527  66.082  1.00  0.00     0.000 HD 
ENDBRANCH  42  53
ENDBRANCH  39  41
ENDBRANCH  31  39
ENDBRANCH  27  28
ENDBRANCH  23  27
ENDBRANCH  13  14
ENDBRANCH   4  13
ENDBRANCH   1   4
BRANCH   1  56
HETATM   56  C   UNL     1      -9.589   6.460  66.458  1.00  0.00    -0.145 C  
HETATM   57  O   UNL     1     -10.896   7.007  66.652  1.00  0.00    -0.524 OA 
HETATM   58  H   UNL     1     -11.538   6.312  66.561  1.00  0.00     0.000 HD 
ENDBRANCH   1  56
TORSDOF 12
ENDMDL
MODEL      144
REMARK 921   NORMALIZED FREE ENERGY PREDICTED BY IDOCK:   -4.58 KCAL/MOL
REMARK 922        TOTAL FREE ENERGY PREDICTED BY IDOCK:  -10.99 KCAL/MOL
REMARK 923 INTER-LIGAND FREE ENERGY PREDICTED BY IDOCK:   -8.86 KCAL/MOL
REMARK 924 INTRA-LIGAND FREE ENERGY PREDICTED BY IDOCK:   -2.13 KCAL/MOL
REMARK 927      BINDING AFFINITY PREDICTED BY RF-SCORE:    0.00 PKD
ROOT
HETATM    1  C   UNL     1      -8.594  15.939  68.685  1.00  0.00    -0.198 C  
HETATM    2  H   UNL     1      -9.498  15.652  70.376  1.00  0.00     0.000 HD 
HETATM    3  O   UNL     1      -9.698  16.130  69.579  1.00  0.00    -0.244 OA 
ENDROOT
BRANCH   1   4
HETATM    4  C   UNL     1      -8.270  14.435  68.440  1.00  0.00    -0.145 C  
BRANCH   4   5
HETATM    5  C   UNL     1      -6.740  14.168  68.283  1.00  0.00    -0.108 C  
HETATM    6  O   UNL     1      -6.427  13.653  66.980  1.00  0.00    -0.399 OA 
HETATM    7  H   UNL     1      -5.496  13.491  66.884  1.00  0.00     0.000 HD 
BRANCH   5   8
HETATM    8  C   UNL     1      -6.149  13.190  69.306  1.00  0.00    -0.098 C  
HETATM    9  C   UNL     1      -6.727  11.803  69.137  1.00  0.00    -0.110 C  
HETATM   10  O   UNL     1      -6.491  13.670  70.617  1.00  0.00    -0.406 OA 
HETATM   11  O   UNL     1      -6.216  10.955  68.407  1.00  0.00    -0.046 OA 
HETATM   12  H   UNL     1      -6.125  13.064  71.250  1.00  0.00     0.000 HD 
ENDBRANCH   5   8
ENDBRANCH   4   5
BRANCH   4  13
HETATM   13  O   UNL     1      -8.972  13.892  67.295  1.00  0.00    -0.200 OA 
BRANCH  13  14
HETATM   14  C   UNL     1     -10.360  14.253  67.210  1.00  0.00    -0.260 C  
HETATM   15  H   UNL     1     -11.940  10.975  68.855  1.00  0.00     0.000 HD 
HETATM   16  O   UNL     1     -10.899  13.129  69.363  1.00  0.00    -0.439 OA 
HETATM   17  C   UNL     1     -11.225  13.232  67.968  1.00  0.00    -0.276 C  
HETATM   18  O   UNL     1     -10.848  14.334  65.878  1.00  0.00    -0.291 OA 
HETATM   19  O   UNL     1     -12.064  10.980  67.913  1.00  0.00    -0.600 OA 
HETATM   20  C   UNL     1     -10.707  13.122  65.130  1.00  0.00    -0.315 C  
HETATM   21  H   UNL     1     -11.433  12.497  69.831  1.00  0.00     0.000 HD 
HETATM   22  C   UNL     1     -11.075  11.855  67.333  1.00  0.00    -0.279 C  
HETATM   23  C   UNL     1     -11.276  11.863  65.810  1.00  0.00    -0.312 C  
BRANCH  20  24
HETATM   24  C   UNL     1     -11.334  13.367  63.738  1.00  0.00    -0.166 C  
HETATM   25  O   UNL     1     -12.023  12.235  63.205  1.00  0.00    -0.706 OA 
HETATM   26  H   UNL     1     -12.408  12.387  62.349  1.00  0.00     0.000 HD 
ENDBRANCH  20  24
BRANCH  23  27
HETATM   27  O   UNL     1     -10.599  10.733  65.192  1.00  0.00    -0.259 OA 
BRANCH  27  28
HETATM   28  C   UNL     1      -9.183  10.727  65.412  1.00  0.00    -0.205 C  
HETATM   29  O   UNL     1      -8.837   9.793  66.424  1.00  0.00    -0.142 OA 
HETATM   30  C   UNL     1      -9.209   8.456  66.078  1.00  0.00    -0.187 C  
HETATM   31  C   UNL     1      -8.386   7.993  64.849  1.00  0.00    -0.099 C  
HETATM   32  C   UNL     1      -9.002   7.629  67.344  1.00  0.00    -0.130 C  
HETATM   33  C   UNL     1      -8.642   8.971  63.671  1.00  0.00    -0.130 C  
HETATM   34  H   UNL     1      -7.882   9.317  61.872  1.00  0.00     0.000 HD 
HETATM   35  C   UNL     1      -8.435  10.424  64.104  1.00  0.00    -0.163 C  
HETATM   36  O   UNL     1      -7.725   8.718  62.592  1.00  0.00    -0.112 OA 
HETATM   37  O   UNL     1      -8.828  11.316  63.046  1.00  0.00    -0.437 OA 
HETATM   38  H   UNL     1      -8.366  11.129  62.238  1.00  0.00     0.000 HD 
BRANCH  31  39
HETATM   39  N   UNL     1      -8.698   6.575  64.541  1.00  0.00    -0.311 NA 
HETATM   40  H   UNL     1      -9.656   6.225  64.523  1.00  0.00     0.000 HD 
BRANCH  39  41
HETATM   41  C   UNL     1      -7.528   5.693  64.258  1.00  0.00    -0.073 C  
HETATM   42  C   UNL     1      -6.123   4.822  66.176  1.00  0.00    -0.027 C  
HETATM   43  C   UNL     1      -6.525   5.803  65.367  1.00  0.00    -0.042 C  
HETATM   44  C   UNL     1      -6.586   3.404  65.980  1.00  0.00    -0.040 C  
HETATM   45  H   UNL     1      -9.781   3.286  64.366  1.00  0.00     0.000 HD 
HETATM   46  O   UNL     1      -9.443   4.163  64.510  1.00  0.00    -0.154 OA 
HETATM   47  C   UNL     1      -7.263   3.098  64.619  1.00  0.00    -0.062 C  
HETATM   48  O   UNL     1      -7.456   3.078  67.060  1.00  0.00    -0.068 OA 
HETATM   49  H   UNL     1      -6.690   2.500  62.826  1.00  0.00     0.000 HD 
HETATM   50  O   UNL     1      -6.275   2.687  63.660  1.00  0.00    -0.013 OA 
HETATM   51  C   UNL     1      -8.085   4.250  64.022  1.00  0.00    -0.093 C  
HETATM   52  H   UNL     1      -7.748   2.183  66.936  1.00  0.00     0.000 HD 
BRANCH  42  53
HETATM   53  C   UNL     1      -5.198   5.046  67.353  1.00  0.00    -0.008 C  
HETATM   54  O   UNL     1      -5.668   4.409  68.536  1.00  0.00    -0.019 OA 
HETATM   55  H   UNL     1      -5.087   4.549  69.275  1.00  0.00     0.000 HD 
ENDBRANCH  42  53
ENDBRANCH  39  41
ENDBRANCH  31  39
ENDBRANCH  27  28
ENDBRANCH  23  27
ENDBRANCH  13  14
ENDBRANCH   4  13
ENDBRANCH   1   4
BRANCH   1  56
HETATM   56  C   UNL     1      -8.917  16.710  67.402  1.00  0.00    -0.196 C  
HETATM   57  O   UNL     1      -8.060  16.246  66.356  1.00  0.00    -0.291 OA 
HETATM   58  H   UNL     1      -8.260  16.724  65.559  1.00  0.00     0.000 HD 
ENDBRANCH   1  56
TORSDOF 12
ENDMDL
MODEL      145
REMARK 921   NORMALIZED FREE ENERGY PREDICTED BY IDOCK:   -4.56 KCAL/MOL
REMARK 922        TOTAL FREE ENERGY PREDICTED BY IDOCK:  -10.96 KCAL/MOL
REMARK 923 INTER-LIGAND FREE ENERGY PREDICTED BY IDOCK:   -8.59 KCAL/MOL
REMARK 924 INTRA-LIGAND FREE ENERGY PREDICTED BY IDOCK:   -2.37 KCAL/MOL
REMARK 927      BINDING AFFINITY PREDICTED BY RF-SCORE:    0.00 PKD
ROOT
HETATM    1  C   UNL     1      -7.530   7.773  72.391  1.00  0.00    -0.085 C  
HETATM    2  H   UNL     1      -9.260   8.251  73.124  1.00  0.00     0.000 HD 
HETATM    3  O   UNL     1      -8.629   8.679  72.556  1.00  0.00    -0.364 OA 
ENDROOT
BRANCH   1   4
HETATM    4  C   UNL     1      -7.976   6.371  71.877  1.00  0.00    -0.104 C  
BRANCH   4   5
HETATM    5  C   UNL     1      -7.359   5.202  72.708  1.00  0.00    -0.094 C  
HETATM    6  O   UNL     1      -6.512   4.372  71.899  1.00  0.00    -0.020 OA 
HETATM    7  H   UNL     1      -6.136   3.661  72.405  1.00  0.00     0.000 HD 
BRANCH   5   8
HETATM    8  C   UNL     1      -8.384   4.279  73.380  1.00  0.00    -0.090 C  
HETATM    9  C   UNL     1      -8.343   2.889  72.786  1.00  0.00    -0.071 C  
HETATM   10  O   UNL     1      -9.688   4.835  73.152  1.00  0.00    -0.136 OA 
HETATM   11  O   UNL     1      -7.623   1.997  73.230  1.00  0.00    -0.039 OA 
HETATM   12  H   UNL     1     -10.323   4.263  73.568  1.00  0.00     0.000 HD 
ENDBRANCH   5   8
ENDBRANCH   4   5
BRANCH   4  13
HETATM   13  O   UNL     1      -7.681   6.170  70.474  1.00  0.00    -0.096 OA 
BRANCH  13  14
HETATM   14  C   UNL     1      -8.454   5.140  69.835  1.00  0.00    -0.096 C  
HETATM   15  H   UNL     1      -8.068   6.356  66.050  1.00  0.00     0.000 HD 
HETATM   16  O   UNL     1      -6.966   5.107  67.841  1.00  0.00    -0.059 OA 
HETATM   17  C   UNL     1      -8.318   5.242  68.306  1.00  0.00    -0.097 C  
HETATM   18  O   UNL     1      -9.837   5.184  70.153  1.00  0.00    -0.190 OA 
HETATM   19  O   UNL     1      -8.935   6.550  66.387  1.00  0.00    -0.140 OA 
HETATM   20  C   UNL     1     -10.474   6.421  69.820  1.00  0.00    -0.215 C  
HETATM   21  H   UNL     1      -6.883   5.171  66.897  1.00  0.00     0.000 HD 
HETATM   22  C   UNL     1      -8.864   6.581  67.827  1.00  0.00    -0.113 C  
HETATM   23  C   UNL     1     -10.266   6.896  68.371  1.00  0.00    -0.176 C  
BRANCH  20  24
HETATM   24  C   UNL     1     -11.972   6.277  70.178  1.00  0.00     0.145 C  
HETATM   25  O   UNL     1     -12.385   7.085  71.281  1.00  0.00    -0.349 OA 
HETATM   26  H   UNL     1     -13.305   6.996  71.500  1.00  0.00     0.000 HD 
ENDBRANCH  20  24
BRANCH  23  27
HETATM   27  O   UNL     1     -10.508   8.331  68.379  1.00  0.00    -0.207 OA 
BRANCH  27  28
HETATM   28  C   UNL     1      -9.884   9.008  69.477  1.00  0.00    -0.180 C  
HETATM   29  O   UNL     1      -8.617   9.519  69.095  1.00  0.00    -0.127 OA 
HETATM   30  C   UNL     1      -8.712  10.464  68.025  1.00  0.00    -0.123 C  
HETATM   31  C   UNL     1      -9.486  11.716  68.510  1.00  0.00    -0.173 C  
HETATM   32  C   UNL     1      -7.277  10.725  67.574  1.00  0.00    -0.090 C  
HETATM   33  C   UNL     1     -10.892  11.282  69.005  1.00  0.00    -0.222 C  
HETATM   34  H   UNL     1     -12.412  12.102  69.981  1.00  0.00     0.000 HD 
HETATM   35  C   UNL     1     -10.793  10.128  70.006  1.00  0.00    -0.307 C  
HETATM   36  O   UNL     1     -11.552  12.368  69.678  1.00  0.00    -0.285 OA 
HETATM   37  O   UNL     1     -12.107   9.641  70.330  1.00  0.00    -0.459 OA 
HETATM   38  H   UNL     1     -12.669  10.333  70.657  1.00  0.00     0.000 HD 
BRANCH  31  39
HETATM   39  N   UNL     1      -9.509  12.739  67.436  1.00  0.00    -0.185 NA 
HETATM   40  H   UNL     1      -8.692  12.935  66.858  1.00  0.00     0.000 HD 
BRANCH  39  41
HETATM   41  C   UNL     1     -10.800  13.465  67.250  1.00  0.00    -0.269 C  
HETATM   42  C   UNL     1     -10.780  15.899  66.555  1.00  0.00    -0.258 C  
HETATM   43  C   UNL     1     -10.594  14.935  67.457  1.00  0.00    -0.266 C  
HETATM   44  C   UNL     1     -11.346  15.600  65.193  1.00  0.00    -0.198 C  
HETATM   45  H   UNL     1     -10.632  12.236  64.194  1.00  0.00     0.000 HD 
HETATM   46  O   UNL     1     -10.297  12.473  65.051  1.00  0.00    -0.288 OA 
HETATM   47  C   UNL     1     -12.000  14.205  65.026  1.00  0.00    -0.408 C  
HETATM   48  O   UNL     1     -10.302  15.785  64.240  1.00  0.00    -0.334 OA 
HETATM   49  H   UNL     1     -13.796  13.417  65.257  1.00  0.00     0.000 HD 
HETATM   50  O   UNL     1     -13.396  14.273  65.360  1.00  0.00    -0.649 OA 
HETATM   51  C   UNL     1     -11.350  13.075  65.838  1.00  0.00    -0.313 C  
HETATM   52  H   UNL     1     -10.660  15.596  63.380  1.00  0.00     0.000 HD 
BRANCH  42  53
HETATM   53  C   UNL     1     -10.430  17.349  66.807  1.00  0.00    -0.257 C  
HETATM   54  O   UNL     1      -9.278  17.760  66.079  1.00  0.00    -0.503 OA 
HETATM   55  H   UNL     1      -9.057  18.671  66.238  1.00  0.00     0.000 HD 
ENDBRANCH  42  53
ENDBRANCH  39  41
ENDBRANCH  31  39
ENDBRANCH  27  28
ENDBRANCH  23  27
ENDBRANCH  13  14
ENDBRANCH   4  13
ENDBRANCH   1   4
BRANCH   1  56
HETATM   56  C   UNL     1      -6.514   8.461  71.476  1.00  0.00    -0.058 C  
HETATM   57  O   UNL     1      -5.200   8.241  71.995  1.00  0.00    -0.034 OA 
HETATM   58  H   UNL     1      -4.569   8.668  71.427  1.00  0.00     0.000 HD 
ENDBRANCH   1  56
TORSDOF 12
ENDMDL
MODEL      146
REMARK 921   NORMALIZED FREE ENERGY PREDICTED BY IDOCK:   -4.56 KCAL/MOL
REMARK 922        TOTAL FREE ENERGY PREDICTED BY IDOCK:  -10.95 KCAL/MOL
REMARK 923 INTER-LIGAND FREE ENERGY PREDICTED BY IDOCK:   -9.24 KCAL/MOL
REMARK 924 INTRA-LIGAND FREE ENERGY PREDICTED BY IDOCK:   -1.71 KCAL/MOL
REMARK 927      BINDING AFFINITY PREDICTED BY RF-SCORE:    0.00 PKD
ROOT
HETATM    1  C   UNL     1     -11.920   6.504  72.045  1.00  0.00    -0.326 C  
HETATM    2  H   UNL     1     -12.816   6.053  70.387  1.00  0.00     0.000 HD 
HETATM    3  O   UNL     1     -12.587   6.863  70.828  1.00  0.00    -0.324 OA 
ENDROOT
BRANCH   1   4
HETATM    4  C   UNL     1     -10.703   5.560  71.811  1.00  0.00    -0.226 C  
BRANCH   4   5
HETATM    5  C   UNL     1      -9.835   5.368  73.094  1.00  0.00    -0.162 C  
HETATM    6  O   UNL     1      -8.530   5.945  72.939  1.00  0.00    -0.121 OA 
HETATM    7  H   UNL     1      -8.002   5.829  73.720  1.00  0.00     0.000 HD 
BRANCH   5   8
HETATM    8  C   UNL     1      -9.633   3.908  73.521  1.00  0.00    -0.106 C  
HETATM    9  C   UNL     1      -8.392   3.318  72.889  1.00  0.00    -0.081 C  
HETATM   10  O   UNL     1     -10.774   3.160  73.073  1.00  0.00    -0.162 OA 
HETATM   11  O   UNL     1      -7.287   3.365  73.424  1.00  0.00    -0.052 OA 
HETATM   12  H   UNL     1     -10.649   2.256  73.338  1.00  0.00     0.000 HD 
ENDBRANCH   5   8
ENDBRANCH   4   5
BRANCH   4  13
HETATM   13  O   UNL     1      -9.856   6.000  70.721  1.00  0.00    -0.175 OA 
BRANCH  13  14
HETATM   14  C   UNL     1      -9.455   4.963  69.810  1.00  0.00    -0.154 C  
HETATM   15  H   UNL     1      -5.804   6.317  68.923  1.00  0.00     0.000 HD 
HETATM   16  O   UNL     1      -7.090   5.053  70.576  1.00  0.00    -0.049 OA 
HETATM   17  C   UNL     1      -7.970   5.121  69.443  1.00  0.00    -0.084 C  
HETATM   18  O   UNL     1     -10.203   4.944  68.603  1.00  0.00    -0.135 OA 
HETATM   19  O   UNL     1      -6.409   6.467  68.206  1.00  0.00    -0.036 OA 
HETATM   20  C   UNL     1     -10.146   6.166  67.861  1.00  0.00    -0.153 C  
HETATM   21  H   UNL     1      -6.172   5.151  70.348  1.00  0.00     0.000 HD 
HETATM   22  C   UNL     1      -7.750   6.452  68.738  1.00  0.00    -0.101 C  
HETATM   23  C   UNL     1      -8.729   6.696  67.579  1.00  0.00    -0.118 C  
BRANCH  20  24
HETATM   24  C   UNL     1     -10.959   5.953  66.563  1.00  0.00    -0.064 C  
HETATM   25  O   UNL     1     -10.798   4.657  65.984  1.00  0.00    -0.561 OA 
HETATM   26  H   UNL     1     -11.298   4.526  65.186  1.00  0.00     0.000 HD 
ENDBRANCH  20  24
BRANCH  23  27
HETATM   27  O   UNL     1      -8.876   8.119  67.315  1.00  0.00    -0.128 OA 
BRANCH  27  28
HETATM   28  C   UNL     1     -10.115   8.456  66.678  1.00  0.00    -0.288 C  
HETATM   29  O   UNL     1     -10.953   9.181  67.565  1.00  0.00    -0.176 OA 
HETATM   30  C   UNL     1     -10.359  10.409  67.992  1.00  0.00    -0.179 C  
HETATM   31  C   UNL     1     -10.201  11.356  66.776  1.00  0.00    -0.223 C  
HETATM   32  C   UNL     1     -11.256  10.936  69.110  1.00  0.00    -0.318 C  
HETATM   33  C   UNL     1      -9.330  10.654  65.698  1.00  0.00    -0.201 C  
HETATM   34  H   UNL     1      -8.821  10.965  63.807  1.00  0.00     0.000 HD 
HETATM   35  C   UNL     1      -9.859   9.252  65.389  1.00  0.00     0.010 C  
HETATM   36  O   UNL     1      -9.353  11.395  64.466  1.00  0.00    -0.183 OA 
HETATM   37  O   UNL     1      -8.952   8.565  64.509  1.00  0.00    -0.417 OA 
HETATM   38  H   UNL     1      -8.794   9.057  63.712  1.00  0.00     0.000 HD 
BRANCH  31  39
HETATM   39  N   UNL     1      -9.670  12.667  67.226  1.00  0.00    -0.204 NA 
HETATM   40  H   UNL     1      -8.831  12.742  67.801  1.00  0.00     0.000 HD 
BRANCH  39  41
HETATM   41  C   UNL     1     -10.437  13.870  66.787  1.00  0.00    -0.270 C  
HETATM   42  C   UNL     1     -11.237  15.544  68.510  1.00  0.00    -0.334 C  
HETATM   43  C   UNL     1     -11.308  14.357  67.905  1.00  0.00    -0.322 C  
HETATM   44  C   UNL     1     -10.289  16.611  68.033  1.00  0.00    -0.303 C  
HETATM   45  H   UNL     1      -7.439  15.188  66.396  1.00  0.00     0.000 HD 
HETATM   46  O   UNL     1      -8.071  14.553  66.713  1.00  0.00    -0.077 OA 
HETATM   47  C   UNL     1      -9.666  16.382  66.632  1.00  0.00    -0.257 C  
HETATM   48  O   UNL     1      -9.271  16.759  69.019  1.00  0.00    -0.257 OA 
HETATM   49  H   UNL     1     -10.119  16.828  64.762  1.00  0.00     0.000 HD 
HETATM   50  O   UNL     1     -10.502  16.968  65.621  1.00  0.00    -0.519 OA 
HETATM   51  C   UNL     1      -9.397  14.916  66.265  1.00  0.00    -0.296 C  
HETATM   52  H   UNL     1      -8.672  17.432  68.718  1.00  0.00     0.000 HD 
BRANCH  42  53
HETATM   53  C   UNL     1     -12.073  15.911  69.716  1.00  0.00    -0.215 C  
HETATM   54  O   UNL     1     -11.777  15.095  70.845  1.00  0.00    -0.284 OA 
HETATM   55  H   UNL     1     -12.302  15.326  71.603  1.00  0.00     0.000 HD 
ENDBRANCH  42  53
ENDBRANCH  39  41
ENDBRANCH  31  39
ENDBRANCH  27  28
ENDBRANCH  23  27
ENDBRANCH  13  14
ENDBRANCH   4  13
ENDBRANCH   1   4
BRANCH   1  56
HETATM   56  C   UNL     1     -11.550   7.809  72.756  1.00  0.00    -0.314 C  
HETATM   57  O   UNL     1     -11.117   8.761  71.781  1.00  0.00    -0.297 OA 
HETATM   58  H   UNL     1     -10.887   9.571  72.222  1.00  0.00     0.000 HD 
ENDBRANCH   1  56
TORSDOF 12
ENDMDL
MODEL      147
REMARK 921   NORMALIZED FREE ENERGY PREDICTED BY IDOCK:   -4.50 KCAL/MOL
REMARK 922        TOTAL FREE ENERGY PREDICTED BY IDOCK:  -10.85 KCAL/MOL
REMARK 923 INTER-LIGAND FREE ENERGY PREDICTED BY IDOCK:   -8.71 KCAL/MOL
REMARK 924 INTRA-LIGAND FREE ENERGY PREDICTED BY IDOCK:   -2.14 KCAL/MOL
REMARK 927      BINDING AFFINITY PREDICTED BY RF-SCORE:    0.00 PKD
ROOT
HETATM    1  C   UNL     1      -9.133   2.287  64.232  1.00  0.00    -0.116 C  
HETATM    2  H   UNL     1      -7.304   1.819  64.669  1.00  0.00     0.000 HD 
HETATM    3  O   UNL     1      -7.964   1.473  64.079  1.00  0.00    -0.060 OA 
ENDROOT
BRANCH   1   4
HETATM    4  C   UNL     1      -8.845   3.804  64.019  1.00  0.00    -0.106 C  
BRANCH   4   5
HETATM    5  C   UNL     1      -7.738   4.060  62.948  1.00  0.00    -0.061 C  
HETATM    6  O   UNL     1      -6.426   3.815  63.477  1.00  0.00    -0.028 OA 
HETATM    7  H   UNL     1      -5.753   3.971  62.825  1.00  0.00     0.000 HD 
BRANCH   5   8
HETATM    8  C   UNL     1      -7.729   5.477  62.359  1.00  0.00    -0.069 C  
HETATM    9  C   UNL     1      -6.819   6.392  63.148  1.00  0.00    -0.042 C  
HETATM   10  O   UNL     1      -9.068   5.989  62.432  1.00  0.00    -0.332 OA 
HETATM   11  O   UNL     1      -5.630   6.543  62.877  1.00  0.00    -0.022 OA 
HETATM   12  H   UNL     1      -9.062   6.866  62.067  1.00  0.00     0.000 HD 
ENDBRANCH   5   8
ENDBRANCH   4   5
BRANCH   4  13
HETATM   13  O   UNL     1      -8.489   4.483  65.248  1.00  0.00    -0.118 OA 
BRANCH  13  14
HETATM   14  C   UNL     1      -9.205   4.040  66.413  1.00  0.00    -0.164 C  
HETATM   15  H   UNL     1     -12.004   6.886  66.519  1.00  0.00     0.000 HD 
HETATM   16  O   UNL     1     -11.395   4.760  65.476  1.00  0.00    -0.940 OA 
HETATM   17  C   UNL     1     -10.494   4.860  66.591  1.00  0.00    -0.219 C  
HETATM   18  O   UNL     1      -8.456   4.140  67.615  1.00  0.00    -0.097 OA 
HETATM   19  O   UNL     1     -11.349   7.024  67.193  1.00  0.00    -0.240 OA 
HETATM   20  C   UNL     1      -7.999   5.463  67.911  1.00  0.00    -0.096 C  
HETATM   21  H   UNL     1     -12.191   5.267  65.586  1.00  0.00     0.000 HD 
HETATM   22  C   UNL     1     -10.148   6.328  66.802  1.00  0.00    -0.180 C  
HETATM   23  C   UNL     1      -9.087   6.551  67.892  1.00  0.00    -0.113 C  
BRANCH  20  24
HETATM   24  C   UNL     1      -7.258   5.401  69.266  1.00  0.00    -0.065 C  
HETATM   25  O   UNL     1      -5.887   5.796  69.197  1.00  0.00    -0.014 OA 
HETATM   26  H   UNL     1      -5.433   5.758  70.031  1.00  0.00     0.000 HD 
ENDBRANCH  20  24
BRANCH  23  27
HETATM   27  O   UNL     1      -8.392   7.813  67.687  1.00  0.00    -0.119 OA 
BRANCH  27  28
HETATM   28  C   UNL     1      -8.048   8.479  68.908  1.00  0.00    -0.119 C  
HETATM   29  O   UNL     1      -7.024   9.437  68.684  1.00  0.00    -0.064 OA 
HETATM   30  C   UNL     1      -7.422  10.450  67.757  1.00  0.00    -0.088 C  
HETATM   31  C   UNL     1      -8.580  11.281  68.365  1.00  0.00    -0.155 C  
HETATM   32  C   UNL     1      -6.155  11.241  67.440  1.00  0.00    -0.066 C  
HETATM   33  C   UNL     1      -9.762  10.331  68.702  1.00  0.00    -0.167 C  
HETATM   34  H   UNL     1     -11.481  10.435  69.686  1.00  0.00     0.000 HD 
HETATM   35  C   UNL     1      -9.289   9.135  69.533  1.00  0.00    -0.163 C  
HETATM   36  O   UNL     1     -10.758  11.017  69.480  1.00  0.00    -0.237 OA 
HETATM   37  O   UNL     1     -10.364   8.194  69.699  1.00  0.00    -0.212 OA 
HETATM   38  H   UNL     1     -11.131   8.599  70.085  1.00  0.00     0.000 HD 
BRANCH  31  39
HETATM   39  N   UNL     1      -8.937  12.392  67.449  1.00  0.00    -0.177 NA 
HETATM   40  H   UNL     1      -8.870  12.298  66.435  1.00  0.00     0.000 HD 
BRANCH  39  41
HETATM   41  C   UNL     1      -9.400  13.654  68.097  1.00  0.00    -0.212 C  
HETATM   42  C   UNL     1      -8.709  15.888  67.127  1.00  0.00    -0.223 C  
HETATM   43  C   UNL     1      -8.440  14.765  67.795  1.00  0.00    -0.169 C  
HETATM   44  C   UNL     1     -10.105  16.216  66.673  1.00  0.00    -0.276 C  
HETATM   45  H   UNL     1     -12.043  13.247  66.167  1.00  0.00     0.000 HD 
HETATM   46  O   UNL     1     -11.152  13.092  66.458  1.00  0.00    -0.285 OA 
HETATM   47  C   UNL     1     -11.237  15.366  67.306  1.00  0.00    -0.270 C  
HETATM   48  O   UNL     1     -10.134  16.115  65.252  1.00  0.00    -0.505 OA 
HETATM   49  H   UNL     1     -12.400  15.471  68.899  1.00  0.00     0.000 HD 
HETATM   50  O   UNL     1     -11.707  15.992  68.511  1.00  0.00    -0.375 OA 
HETATM   51  C   UNL     1     -10.867  13.908  67.617  1.00  0.00    -0.254 C  
HETATM   52  H   UNL     1     -11.016  16.322  64.965  1.00  0.00     0.000 HD 
BRANCH  42  53
HETATM   53  C   UNL     1      -7.651  16.904  66.757  1.00  0.00    -0.245 C  
HETATM   54  O   UNL     1      -7.998  17.643  65.590  1.00  0.00    -0.529 OA 
HETATM   55  H   UNL     1      -7.333  18.281  65.357  1.00  0.00     0.000 HD 
ENDBRANCH  42  53
ENDBRANCH  39  41
ENDBRANCH  31  39
ENDBRANCH  27  28
ENDBRANCH  23  27
ENDBRANCH  13  14
ENDBRANCH   4  13
ENDBRANCH   1   4
BRANCH   1  56
HETATM   56  C   UNL     1     -10.196   1.730  63.282  1.00  0.00    -0.126 C  
HETATM   57  O   UNL     1     -11.457   2.326  63.597  1.00  0.00    -0.595 OA 
HETATM   58  H   UNL     1     -12.117   1.981  63.007  1.00  0.00     0.000 HD 
ENDBRANCH   1  56
TORSDOF 12
ENDMDL
MODEL      148
REMARK 921   NORMALIZED FREE ENERGY PREDICTED BY IDOCK:   -4.50 KCAL/MOL
REMARK 922        TOTAL FREE ENERGY PREDICTED BY IDOCK:  -10.84 KCAL/MOL
REMARK 923 INTER-LIGAND FREE ENERGY PREDICTED BY IDOCK:   -9.11 KCAL/MOL
REMARK 924 INTRA-LIGAND FREE ENERGY PREDICTED BY IDOCK:   -1.73 KCAL/MOL
REMARK 927      BINDING AFFINITY PREDICTED BY RF-SCORE:    0.00 PKD
ROOT
HETATM    1  C   UNL     1     -10.937  12.025  63.882  1.00  0.00    -0.401 C  
HETATM    2  H   UNL     1      -9.300  13.052  64.029  1.00  0.00     0.000 HD 
HETATM    3  O   UNL     1     -10.177  13.228  63.708  1.00  0.00    -0.226 OA 
ENDROOT
BRANCH   1   4
HETATM    4  C   UNL     1     -10.906  11.498  65.348  1.00  0.00    -0.259 C  
BRANCH   4   5
HETATM    5  C   UNL     1     -10.593  12.623  66.383  1.00  0.00    -0.251 C  
HETATM    6  O   UNL     1      -9.577  12.215  67.312  1.00  0.00    -0.181 OA 
HETATM    7  H   UNL     1      -9.386  12.900  67.943  1.00  0.00     0.000 HD 
BRANCH   5   8
HETATM    8  C   UNL     1     -11.797  13.090  67.211  1.00  0.00    -0.363 C  
HETATM    9  C   UNL     1     -12.465  14.291  66.580  1.00  0.00    -0.207 C  
HETATM   10  O   UNL     1     -11.315  13.466  68.511  1.00  0.00    -0.252 OA 
HETATM   11  O   UNL     1     -13.382  14.191  65.767  1.00  0.00    -0.503 OA 
HETATM   12  H   UNL     1     -12.061  13.755  69.023  1.00  0.00     0.000 HD 
ENDBRANCH   5   8
ENDBRANCH   4   5
BRANCH   4  13
HETATM   13  O   UNL     1      -9.974  10.405  65.530  1.00  0.00    -0.249 OA 
BRANCH  13  14
HETATM   14  C   UNL     1      -8.709  10.573  64.869  1.00  0.00    -0.181 C  
HETATM   15  H   UNL     1      -8.523   7.042  63.013  1.00  0.00     0.000 HD 
HETATM   16  O   UNL     1      -9.458   9.297  62.869  1.00  0.00    -0.500 OA 
HETATM   17  C   UNL     1      -8.458   9.411  63.894  1.00  0.00    -0.197 C  
HETATM   18  O   UNL     1      -7.605  10.640  65.760  1.00  0.00    -0.149 OA 
HETATM   19  O   UNL     1      -7.936   7.069  63.759  1.00  0.00    -0.122 OA 
HETATM   20  C   UNL     1      -7.463   9.492  66.602  1.00  0.00    -0.093 C  
HETATM   21  H   UNL     1      -9.303   8.579  62.267  1.00  0.00     0.000 HD 
HETATM   22  C   UNL     1      -8.398   8.097  64.660  1.00  0.00    -0.079 C  
HETATM   23  C   UNL     1      -7.448   8.139  65.867  1.00  0.00    -0.080 C  
BRANCH  20  24
HETATM   24  C   UNL     1      -6.193   9.705  67.458  1.00  0.00    -0.056 C  
HETATM   25  O   UNL     1      -5.238   8.647  67.352  1.00  0.00    -0.033 OA 
HETATM   26  H   UNL     1      -4.458   8.779  67.878  1.00  0.00     0.000 HD 
ENDBRANCH  20  24
BRANCH  23  27
HETATM   27  O   UNL     1      -7.823   7.140  66.856  1.00  0.00    -0.103 OA 
BRANCH  27  28
HETATM   28  C   UNL     1      -9.007   6.412  66.509  1.00  0.00    -0.145 C  
HETATM   29  O   UNL     1      -8.762   5.013  66.546  1.00  0.00    -0.110 OA 
HETATM   30  C   UNL     1      -8.365   4.565  67.844  1.00  0.00    -0.098 C  
HETATM   31  C   UNL     1      -9.536   4.762  68.840  1.00  0.00    -0.146 C  
HETATM   32  C   UNL     1      -7.908   3.120  67.661  1.00  0.00    -0.075 C  
HETATM   33  C   UNL     1      -9.936   6.263  68.860  1.00  0.00    -0.153 C  
HETATM   34  H   UNL     1     -11.407   7.369  69.598  1.00  0.00     0.000 HD 
HETATM   35  C   UNL     1     -10.167   6.791  67.443  1.00  0.00    -0.197 C  
HETATM   36  O   UNL     1     -11.163   6.451  69.586  1.00  0.00    -0.358 OA 
HETATM   37  O   UNL     1     -10.382   8.214  67.475  1.00  0.00    -0.224 OA 
HETATM   38  H   UNL     1     -11.099   8.449  68.052  1.00  0.00     0.000 HD 
BRANCH  31  39
HETATM   39  N   UNL     1      -9.164   4.215  70.168  1.00  0.00    -0.124 NA 
HETATM   40  H   UNL     1      -8.387   3.564  70.285  1.00  0.00     0.000 HD 
BRANCH  39  41
HETATM   41  C   UNL     1      -9.993   4.673  71.321  1.00  0.00    -0.198 C  
HETATM   42  C   UNL     1     -10.485   3.076  73.223  1.00  0.00    -0.252 C  
HETATM   43  C   UNL     1     -10.659   3.497  71.970  1.00  0.00     0.207 C  
HETATM   44  C   UNL     1      -9.631   3.842  74.196  1.00  0.00    -0.101 C  
HETATM   45  H   UNL     1      -7.104   5.736  72.506  1.00  0.00     0.000 HD 
HETATM   46  O   UNL     1      -7.673   5.235  71.932  1.00  0.00    -0.104 OA 
HETATM   47  C   UNL     1      -9.256   5.286  73.773  1.00  0.00    -0.125 C  
HETATM   48  O   UNL     1      -8.459   3.071  74.447  1.00  0.00    -0.068 OA 
HETATM   49  H   UNL     1     -10.022   7.094  73.983  1.00  0.00     0.000 HD 
HETATM   50  O   UNL     1     -10.252   6.210  74.242  1.00  0.00    -0.277 OA 
HETATM   51  C   UNL     1      -9.056   5.496  72.265  1.00  0.00    -0.142 C  
HETATM   52  H   UNL     1      -7.920   3.555  75.062  1.00  0.00     0.000 HD 
BRANCH  42  53
HETATM   53  C   UNL     1     -11.102   1.805  73.764  1.00  0.00    -0.175 C  
HETATM   54  O   UNL     1     -12.521   1.802  73.646  1.00  0.00    -0.154 OA 
HETATM   55  H   UNL     1     -12.908   1.003  73.986  1.00  0.00     0.000 HD 
ENDBRANCH  42  53
ENDBRANCH  39  41
ENDBRANCH  31  39
ENDBRANCH  27  28
ENDBRANCH  23  27
ENDBRANCH  13  14
ENDBRANCH   4  13
ENDBRANCH   1   4
BRANCH   1  56
HETATM   56  C   UNL     1     -12.350  12.308  63.365  1.00  0.00    -0.517 C  
HETATM   57  O   UNL     1     -12.505  13.718  63.190  1.00  0.00    -1.089 OA 
HETATM   58  H   UNL     1     -13.382  13.894  62.869  1.00  0.00     0.000 HD 
ENDBRANCH   1  56
TORSDOF 12
ENDMDL
MODEL      149
REMARK 921   NORMALIZED FREE ENERGY PREDICTED BY IDOCK:   -4.47 KCAL/MOL
REMARK 922        TOTAL FREE ENERGY PREDICTED BY IDOCK:  -10.79 KCAL/MOL
REMARK 923 INTER-LIGAND FREE ENERGY PREDICTED BY IDOCK:   -8.21 KCAL/MOL
REMARK 924 INTRA-LIGAND FREE ENERGY PREDICTED BY IDOCK:   -2.58 KCAL/MOL
REMARK 927      BINDING AFFINITY PREDICTED BY RF-SCORE:    0.00 PKD
ROOT
HETATM    1  C   UNL     1      -9.732   4.778  73.127  1.00  0.00    -0.138 C  
HETATM    2  H   UNL     1      -7.900   4.864  72.501  1.00  0.00     0.000 HD 
HETATM    3  O   UNL     1      -8.399   4.259  73.036  1.00  0.00    -0.090 OA 
ENDROOT
BRANCH   1   4
HETATM    4  C   UNL     1     -10.372   5.046  71.732  1.00  0.00    -0.200 C  
BRANCH   4   5
HETATM    5  C   UNL     1      -9.828   4.087  70.627  1.00  0.00    -0.158 C  
HETATM    6  O   UNL     1      -8.945   3.098  71.178  1.00  0.00    -0.084 OA 
HETATM    7  H   UNL     1      -8.614   2.514  70.506  1.00  0.00     0.000 HD 
BRANCH   5   8
HETATM    8  C   UNL     1      -9.069   4.782  69.489  1.00  0.00    -0.103 C  
HETATM    9  C   UNL     1      -8.570   3.782  68.471  1.00  0.00    -0.095 C  
HETATM   10  O   UNL     1      -7.936   5.452  70.064  1.00  0.00    -0.079 OA 
HETATM   11  O   UNL     1      -9.229   3.447  67.489  1.00  0.00    -0.161 OA 
HETATM   12  H   UNL     1      -7.467   5.883  69.359  1.00  0.00     0.000 HD 
ENDBRANCH   5   8
ENDBRANCH   4   5
BRANCH   4  13
HETATM   13  O   UNL     1     -10.212   6.419  71.298  1.00  0.00    -0.196 OA 
BRANCH  13  14
HETATM   14  C   UNL     1      -9.901   7.352  72.346  1.00  0.00    -0.167 C  
HETATM   15  H   UNL     1     -12.788  10.023  71.651  1.00  0.00     0.000 HD 
HETATM   16  O   UNL     1     -12.300   7.885  72.734  1.00  0.00    -0.591 OA 
HETATM   17  C   UNL     1     -10.999   8.424  72.449  1.00  0.00    -0.355 C  
HETATM   18  O   UNL     1      -8.659   8.017  72.168  1.00  0.00    -0.128 OA 
HETATM   19  O   UNL     1     -11.944  10.345  71.357  1.00  0.00    -0.354 OA 
HETATM   20  C   UNL     1      -8.559   8.749  70.942  1.00  0.00    -0.192 C  
HETATM   21  H   UNL     1     -12.979   8.547  72.797  1.00  0.00     0.000 HD 
HETATM   22  C   UNL     1     -11.076   9.212  71.148  1.00  0.00    -0.323 C  
HETATM   23  C   UNL     1      -9.711   9.733  70.672  1.00  0.00    -0.065 C  
BRANCH  20  24
HETATM   24  C   UNL     1      -7.181   9.450  70.938  1.00  0.00    -0.081 C  
HETATM   25  O   UNL     1      -7.214  10.793  70.453  1.00  0.00    -0.467 OA 
HETATM   26  H   UNL     1      -6.367  11.223  70.450  1.00  0.00     0.000 HD 
ENDBRANCH  20  24
BRANCH  23  27
HETATM   27  O   UNL     1      -9.717   9.960  69.234  1.00  0.00    -0.184 OA 
BRANCH  27  28
HETATM   28  C   UNL     1      -9.941  11.329  68.875  1.00  0.00    -0.155 C  
HETATM   29  O   UNL     1      -8.738  11.929  68.417  1.00  0.00    -0.173 OA 
HETATM   30  C   UNL     1      -8.212  11.277  67.259  1.00  0.00    -0.140 C  
HETATM   31  C   UNL     1      -9.193  11.461  66.073  1.00  0.00    -0.214 C  
HETATM   32  C   UNL     1      -6.821  11.869  67.046  1.00  0.00    -0.122 C  
HETATM   33  C   UNL     1     -10.578  10.880  66.466  1.00  0.00    -0.237 C  
HETATM   34  H   UNL     1     -12.421  10.883  65.734  1.00  0.00     0.000 HD 
HETATM   35  C   UNL     1     -11.047  11.435  67.813  1.00  0.00    -0.265 C  
HETATM   36  O   UNL     1     -11.574  11.238  65.493  1.00  0.00    -0.006 OA 
HETATM   37  O   UNL     1     -12.252  10.767  68.230  1.00  0.00    -0.815 OA 
HETATM   38  H   UNL     1     -12.935  10.832  67.574  1.00  0.00     0.000 HD 
BRANCH  31  39
HETATM   39  N   UNL     1      -8.612  10.866  64.844  1.00  0.00    -0.351 NA 
HETATM   40  H   UNL     1      -8.901  11.163  63.911  1.00  0.00     0.000 HD 
BRANCH  39  41
HETATM   41  C   UNL     1      -7.580   9.809  65.052  1.00  0.00    -0.127 C  
HETATM   42  C   UNL     1      -8.256   7.370  64.998  1.00  0.00    -0.101 C  
HETATM   43  C   UNL     1      -8.223   8.565  65.588  1.00  0.00    -0.130 C  
HETATM   44  C   UNL     1      -7.522   7.109  63.711  1.00  0.00    -0.100 C  
HETATM   45  H   UNL     1      -7.138  10.112  61.797  1.00  0.00     0.000 HD 
HETATM   46  O   UNL     1      -7.594  10.226  62.623  1.00  0.00    -0.135 OA 
HETATM   47  C   UNL     1      -6.477   8.179  63.302  1.00  0.00    -0.080 C  
HETATM   48  O   UNL     1      -8.495   6.937  62.683  1.00  0.00    -0.341 OA 
HETATM   49  H   UNL     1      -4.553   8.505  63.607  1.00  0.00     0.000 HD 
HETATM   50  O   UNL     1      -5.193   7.849  63.857  1.00  0.00    -0.039 OA 
HETATM   51  C   UNL     1      -6.829   9.622  63.692  1.00  0.00    -0.111 C  
HETATM   52  H   UNL     1      -8.031   6.773  61.870  1.00  0.00     0.000 HD 
BRANCH  42  53
HETATM   53  C   UNL     1      -9.035   6.195  65.549  1.00  0.00     0.012 C  
HETATM   54  O   UNL     1      -8.623   4.958  64.977  1.00  0.00    -0.135 OA 
HETATM   55  H   UNL     1      -9.112   4.221  65.323  1.00  0.00     0.000 HD 
ENDBRANCH  42  53
ENDBRANCH  39  41
ENDBRANCH  31  39
ENDBRANCH  27  28
ENDBRANCH  23  27
ENDBRANCH  13  14
ENDBRANCH   4  13
ENDBRANCH   1   4
BRANCH   1  56
HETATM   56  C   UNL     1     -10.537   3.802  73.989  1.00  0.00    -0.212 C  
HETATM   57  O   UNL     1     -11.696   3.389  73.261  1.00  0.00    -0.022 OA 
HETATM   58  H   UNL     1     -12.196   2.782  73.796  1.00  0.00     0.000 HD 
ENDBRANCH   1  56
TORSDOF 12
ENDMDL
MODEL      150
REMARK 921   NORMALIZED FREE ENERGY PREDICTED BY IDOCK:   -4.44 KCAL/MOL
REMARK 922        TOTAL FREE ENERGY PREDICTED BY IDOCK:  -10.74 KCAL/MOL
REMARK 923 INTER-LIGAND FREE ENERGY PREDICTED BY IDOCK:   -8.48 KCAL/MOL
REMARK 924 INTRA-LIGAND FREE ENERGY PREDICTED BY IDOCK:   -2.26 KCAL/MOL
REMARK 927      BINDING AFFINITY PREDICTED BY RF-SCORE:    0.00 PKD
ROOT
HETATM    1  C   UNL     1      -9.571   4.468  69.560  1.00  0.00    -0.195 C  
HETATM    2  H   UNL     1      -9.340   4.916  71.432  1.00  0.00     0.000 HD 
HETATM    3  O   UNL     1      -9.367   4.108  70.932  1.00  0.00    -0.122 OA 
ENDROOT
BRANCH   1   4
HETATM    4  C   UNL     1      -8.511   5.485  69.040  1.00  0.00    -0.101 C  
BRANCH   4   5
HETATM    5  C   UNL     1      -7.157   5.389  69.810  1.00  0.00    -0.063 C  
HETATM    6  O   UNL     1      -6.795   6.648  70.399  1.00  0.00    -0.058 OA 
HETATM    7  H   UNL     1      -5.971   6.589  70.868  1.00  0.00     0.000 HD 
BRANCH   5   8
HETATM    8  C   UNL     1      -5.964   4.931  68.960  1.00  0.00    -0.021 C  
HETATM    9  C   UNL     1      -5.881   5.711  67.667  1.00  0.00    -0.013 C  
HETATM   10  O   UNL     1      -6.159   3.544  68.645  1.00  0.00    -0.026 OA 
HETATM   11  O   UNL     1      -5.237   6.752  67.558  1.00  0.00    -0.007 OA 
HETATM   12  H   UNL     1      -5.420   3.260  68.119  1.00  0.00     0.000 HD 
ENDBRANCH   5   8
ENDBRANCH   4   5
BRANCH   4  13
HETATM   13  O   UNL     1      -8.986   6.853  69.073  1.00  0.00    -0.133 OA 
BRANCH  13  14
HETATM   14  C   UNL     1     -10.412   7.001  68.970  1.00  0.00    -0.207 C  
HETATM   15  H   UNL     1     -10.591   8.567  65.300  1.00  0.00     0.000 HD 
HETATM   16  O   UNL     1     -10.401   6.467  66.540  1.00  0.00    -0.393 OA 
HETATM   17  C   UNL     1     -10.803   7.416  67.541  1.00  0.00    -0.187 C  
HETATM   18  O   UNL     1     -10.952   7.962  69.865  1.00  0.00    -0.243 OA 
HETATM   19  O   UNL     1     -10.749   9.228  65.964  1.00  0.00     0.202 OA 
HETATM   20  C   UNL     1     -10.406   9.275  69.713  1.00  0.00    -0.218 C  
HETATM   21  H   UNL     1     -10.642   6.724  65.657  1.00  0.00     0.000 HD 
HETATM   22  C   UNL     1     -10.182   8.765  67.206  1.00  0.00    -0.263 C  
HETATM   23  C   UNL     1     -10.437   9.835  68.279  1.00  0.00    -0.216 C  
BRANCH  20  24
HETATM   24  C   UNL     1     -11.138  10.196  70.715  1.00  0.00    -0.298 C  
HETATM   25  O   UNL     1     -11.271  11.548  70.271  1.00  0.00    -0.482 OA 
HETATM   26  H   UNL     1     -11.722  12.113  70.888  1.00  0.00     0.000 HD 
ENDBRANCH  20  24
BRANCH  23  27
HETATM   27  O   UNL     1      -9.417  10.872  68.230  1.00  0.00    -0.156 OA 
BRANCH  27  28
HETATM   28  C   UNL     1      -8.949  11.148  66.904  1.00  0.00    -0.161 C  
HETATM   29  O   UNL     1      -9.807  12.074  66.254  1.00  0.00    -0.220 OA 
HETATM   30  C   UNL     1      -9.874  13.327  66.939  1.00  0.00    -0.247 C  
HETATM   31  C   UNL     1      -8.485  14.014  66.895  1.00  0.00    -0.078 C  
HETATM   32  C   UNL     1     -11.002  14.106  66.269  1.00  0.00    -0.303 C  
HETATM   33  C   UNL     1      -7.434  13.072  67.543  1.00  0.00    -0.156 C  
HETATM   34  H   UNL     1      -5.459  12.988  67.709  1.00  0.00     0.000 HD 
HETATM   35  C   UNL     1      -7.504  11.668  66.939  1.00  0.00    -0.131 C  
HETATM   36  O   UNL     1      -6.102  13.564  67.313  1.00  0.00    -0.327 OA 
HETATM   37  O   UNL     1      -6.634  10.777  67.659  1.00  0.00    -0.060 OA 
HETATM   38  H   UNL     1      -5.740  11.098  67.681  1.00  0.00     0.000 HD 
BRANCH  31  39
HETATM   39  N   UNL     1      -8.568  15.355  67.524  1.00  0.00    -0.166 NA 
HETATM   40  H   UNL     1      -8.692  15.474  68.530  1.00  0.00     0.000 HD 
BRANCH  39  41
HETATM   41  C   UNL     1      -8.459  16.521  66.598  1.00  0.00    -0.263 C  
HETATM   42  C   UNL     1      -9.379  18.772  67.303  1.00  0.00    -0.310 C  
HETATM   43  C   UNL     1      -9.543  17.513  66.895  1.00  0.00    -0.279 C  
HETATM   44  C   UNL     1      -8.011  19.388  67.414  1.00  0.00    -0.268 C  
HETATM   45  H   UNL     1      -5.503  16.902  68.011  1.00  0.00     0.000 HD 
HETATM   46  O   UNL     1      -6.387  16.561  67.930  1.00  0.00    -0.123 OA 
HETATM   47  C   UNL     1      -6.863  18.611  66.719  1.00  0.00    -0.194 C  
HETATM   48  O   UNL     1      -7.729  19.573  68.798  1.00  0.00    -0.344 OA 
HETATM   49  H   UNL     1      -6.019  18.577  64.934  1.00  0.00     0.000 HD 
HETATM   50  O   UNL     1      -6.723  19.053  65.359  1.00  0.00    -0.338 OA 
HETATM   51  C   UNL     1      -7.005  17.083  66.732  1.00  0.00    -0.233 C  
HETATM   52  H   UNL     1      -6.865  19.962  68.868  1.00  0.00     0.000 HD 
BRANCH  42  53
HETATM   53  C   UNL     1     -10.529  19.670  67.702  1.00  0.00    -0.446 C  
HETATM   54  O   UNL     1     -10.540  19.946  69.099  1.00  0.00    -0.549 OA 
HETATM   55  H   UNL     1     -11.262  20.510  69.349  1.00  0.00     0.000 HD 
ENDBRANCH  42  53
ENDBRANCH  39  41
ENDBRANCH  31  39
ENDBRANCH  27  28
ENDBRANCH  23  27
ENDBRANCH  13  14
ENDBRANCH   4  13
ENDBRANCH   1   4
BRANCH   1  56
HETATM   56  C   UNL     1      -9.612   3.167  68.755  1.00  0.00    -0.022 C  
HETATM   57  O   UNL     1      -8.735   2.217  69.365  1.00  0.00    -0.060 OA 
HETATM   58  H   UNL     1      -8.761   1.408  68.866  1.00  0.00     0.000 HD 
ENDBRANCH   1  56
TORSDOF 12
ENDMDL
MODEL      151
REMARK 921   NORMALIZED FREE ENERGY PREDICTED BY IDOCK:   -4.43 KCAL/MOL
REMARK 922        TOTAL FREE ENERGY PREDICTED BY IDOCK:  -10.73 KCAL/MOL
REMARK 923 INTER-LIGAND FREE ENERGY PREDICTED BY IDOCK:  -10.24 KCAL/MOL
REMARK 924 INTRA-LIGAND FREE ENERGY PREDICTED BY IDOCK:   -0.50 KCAL/MOL
REMARK 927      BINDING AFFINITY PREDICTED BY RF-SCORE:    0.00 PKD
ROOT
HETATM    1  C   UNL     1     -11.783   9.649  71.505  1.00  0.00    -0.400 C  
HETATM    2  H   UNL     1     -12.465   8.384  72.806  1.00  0.00     0.000 HD 
HETATM    3  O   UNL     1     -12.789   8.752  71.992  1.00  0.00    -0.341 OA 
ENDROOT
BRANCH   1   4
HETATM    4  C   UNL     1     -10.387   8.971  71.367  1.00  0.00    -0.326 C  
BRANCH   4   5
HETATM    5  C   UNL     1      -9.889   8.342  72.706  1.00  0.00    -0.263 C  
HETATM    6  O   UNL     1      -8.530   8.711  72.988  1.00  0.00    -0.398 OA 
HETATM    7  H   UNL     1      -8.227   8.328  73.803  1.00  0.00     0.000 HD 
BRANCH   5   8
HETATM    8  C   UNL     1      -9.959   6.810  72.763  1.00  0.00    -0.173 C  
HETATM    9  C   UNL     1      -9.384   6.187  71.510  1.00  0.00    -0.148 C  
HETATM   10  O   UNL     1     -11.344   6.440  72.863  1.00  0.00    -0.394 OA 
HETATM   11  O   UNL     1      -8.199   5.878  71.405  1.00  0.00    -0.119 OA 
HETATM   12  H   UNL     1     -11.387   5.492  72.898  1.00  0.00     0.000 HD 
ENDBRANCH   5   8
ENDBRANCH   4   5
BRANCH   4  13
HETATM   13  O   UNL     1      -9.376   9.873  70.856  1.00  0.00     0.000 OA 
BRANCH  13  14
HETATM   14  C   UNL     1      -8.476   9.292  69.897  1.00  0.00    -0.163 C  
HETATM   15  H   UNL     1      -5.506  11.949  70.170  1.00  0.00     0.000 HD 
HETATM   16  O   UNL     1      -6.471   9.957  71.211  1.00  0.00    -0.299 OA 
HETATM   17  C   UNL     1      -7.120  10.017  69.931  1.00  0.00    -0.130 C  
HETATM   18  O   UNL     1      -8.959   9.335  68.562  1.00  0.00    -0.128 OA 
HETATM   19  O   UNL     1      -6.001  12.068  69.368  1.00  0.00    -0.075 OA 
HETATM   20  C   UNL     1      -9.247  10.653  68.087  1.00  0.00    -0.148 C  
HETATM   21  H   UNL     1      -5.633  10.405  71.232  1.00  0.00     0.000 HD 
HETATM   22  C   UNL     1      -7.305  11.479  69.550  1.00  0.00     0.136 C  
HETATM   23  C   UNL     1      -8.105  11.673  68.253  1.00  0.00    -0.150 C  
BRANCH  20  24
HETATM   24  C   UNL     1      -9.703  10.521  66.616  1.00  0.00    -0.189 C  
HETATM   25  O   UNL     1     -11.086  10.201  66.464  1.00  0.00     0.044 OA 
HETATM   26  H   UNL     1     -11.366  10.120  65.559  1.00  0.00     0.000 HD 
ENDBRANCH  20  24
BRANCH  23  27
HETATM   27  O   UNL     1      -8.731  12.986  68.221  1.00  0.00    -0.186 OA 
BRANCH  27  28
HETATM   28  C   UNL     1     -10.104  12.953  67.814  1.00  0.00    -0.229 C  
HETATM   29  O   UNL     1     -10.937  13.514  68.818  1.00  0.00    -0.248 OA 
HETATM   30  C   UNL     1     -10.617  14.881  69.088  1.00  0.00    -0.246 C  
HETATM   31  C   UNL     1     -10.919  15.740  67.834  1.00  0.00    -0.324 C  
HETATM   32  C   UNL     1     -11.415  15.255  70.335  1.00  0.00    -0.330 C  
HETATM   33  C   UNL     1     -10.094  15.195  66.636  1.00  0.00    -0.264 C  
HETATM   34  H   UNL     1     -10.014  15.474  64.674  1.00  0.00     0.000 HD 
HETATM   35  C   UNL     1     -10.288  13.685  66.475  1.00  0.00    -0.282 C  
HETATM   36  O   UNL     1     -10.519  15.808  65.406  1.00  0.00    -0.368 OA 
HETATM   37  O   UNL     1      -9.398  13.178  65.465  1.00  0.00    -0.460 OA 
HETATM   38  H   UNL     1      -9.512  13.630  64.637  1.00  0.00     0.000 HD 
BRANCH  31  39
HETATM   39  N   UNL     1     -10.677  17.173  68.136  1.00  0.00    -0.375 NA 
HETATM   40  H   UNL     1     -11.320  17.905  67.832  1.00  0.00     0.000 HD 
BRANCH  39  41
HETATM   41  C   UNL     1      -9.438  17.479  68.909  1.00  0.00    -0.189 C  
HETATM   42  C   UNL     1      -7.191  16.713  68.031  1.00  0.00    -0.162 C  
HETATM   43  C   UNL     1      -8.375  16.471  68.593  1.00  0.00    -0.235 C  
HETATM   44  C   UNL     1      -6.735  18.116  67.734  1.00  0.00    -0.204 C  
HETATM   45  H   UNL     1      -9.519  20.309  67.215  1.00  0.00     0.000 HD 
HETATM   46  O   UNL     1      -9.756  19.409  67.409  1.00  0.00    -0.308 OA 
HETATM   47  C   UNL     1      -7.550  19.247  68.413  1.00  0.00    -0.316 C  
HETATM   48  O   UNL     1      -6.728  18.280  66.319  1.00  0.00    -0.197 OA 
HETATM   49  H   UNL     1      -7.484  20.251  70.112  1.00  0.00     0.000 HD 
HETATM   50  O   UNL     1      -6.984  19.558  69.697  1.00  0.00    -0.310 OA 
HETATM   51  C   UNL     1      -9.049  18.961  68.588  1.00  0.00    -0.346 C  
HETATM   52  H   UNL     1      -6.441  19.166  66.132  1.00  0.00     0.000 HD 
BRANCH  42  53
HETATM   53  C   UNL     1      -6.224  15.620  67.631  1.00  0.00    -0.154 C  
HETATM   54  O   UNL     1      -6.876  14.537  66.975  1.00  0.00    -0.357 OA 
HETATM   55  H   UNL     1      -6.269  13.850  66.724  1.00  0.00     0.000 HD 
ENDBRANCH  42  53
ENDBRANCH  39  41
ENDBRANCH  31  39
ENDBRANCH  27  28
ENDBRANCH  23  27
ENDBRANCH  13  14
ENDBRANCH   4  13
ENDBRANCH   1   4
BRANCH   1  56
HETATM   56  C   UNL     1     -12.305  10.241  70.194  1.00  0.00    -0.142 C  
HETATM   57  O   UNL     1     -12.159  11.662  70.237  1.00  0.00    -0.340 OA 
HETATM   58  H   UNL     1     -12.483  12.030  69.423  1.00  0.00     0.000 HD 
ENDBRANCH   1  56
TORSDOF 12
ENDMDL
MODEL      152
REMARK 921   NORMALIZED FREE ENERGY PREDICTED BY IDOCK:   -4.37 KCAL/MOL
REMARK 922        TOTAL FREE ENERGY PREDICTED BY IDOCK:  -10.63 KCAL/MOL
REMARK 923 INTER-LIGAND FREE ENERGY PREDICTED BY IDOCK:   -9.19 KCAL/MOL
REMARK 924 INTRA-LIGAND FREE ENERGY PREDICTED BY IDOCK:   -1.43 KCAL/MOL
REMARK 927      BINDING AFFINITY PREDICTED BY RF-SCORE:    0.00 PKD
ROOT
HETATM    1  C   UNL     1     -11.030  13.764  64.255  1.00  0.00    -0.251 C  
HETATM    2  H   UNL     1     -12.897  14.284  64.265  1.00  0.00     0.000 HD 
HETATM    3  O   UNL     1     -12.415  13.515  63.984  1.00  0.00    -0.645 OA 
ENDROOT
BRANCH   1   4
HETATM    4  C   UNL     1     -10.766  14.152  65.741  1.00  0.00    -0.299 C  
BRANCH   4   5
HETATM    5  C   UNL     1      -9.560  15.131  65.901  1.00  0.00    -0.338 C  
HETATM    6  O   UNL     1      -8.554  14.589  66.770  1.00  0.00    -0.339 OA 
HETATM    7  H   UNL     1      -7.820  15.184  66.868  1.00  0.00     0.000 HD 
BRANCH   5   8
HETATM    8  C   UNL     1      -9.925  16.518  66.446  1.00  0.00    -0.303 C  
HETATM    9  C   UNL     1     -10.739  16.412  67.717  1.00  0.00    -0.328 C  
HETATM   10  O   UNL     1     -10.718  17.184  65.450  1.00  0.00    -0.562 OA 
HETATM   11  O   UNL     1     -10.226  16.385  68.834  1.00  0.00    -0.228 OA 
HETATM   12  H   UNL     1     -10.944  18.043  65.788  1.00  0.00     0.000 HD 
ENDBRANCH   5   8
ENDBRANCH   4   5
BRANCH   4  13
HETATM   13  O   UNL     1     -10.564  12.999  66.593  1.00  0.00    -0.263 OA 
BRANCH  13  14
HETATM   14  C   UNL     1     -11.745  12.221  66.848  1.00  0.00    -0.334 C  
HETATM   15  H   UNL     1     -11.571  12.151  70.837  1.00  0.00     0.000 HD 
HETATM   16  O   UNL     1     -12.271  13.496  68.919  1.00  0.00    -0.315 OA 
HETATM   17  C   UNL     1     -12.050  12.194  68.355  1.00  0.00    -0.036 C  
HETATM   18  O   UNL     1     -11.653  10.877  66.397  1.00  0.00    -0.055 OA 
HETATM   19  O   UNL     1     -11.316  11.314  70.468  1.00  0.00    -0.150 OA 
HETATM   20  C   UNL     1     -10.565  10.144  66.969  1.00  0.00    -0.225 C  
HETATM   21  H   UNL     1     -12.459  13.479  69.850  1.00  0.00     0.000 HD 
HETATM   22  C   UNL     1     -10.902  11.531  69.103  1.00  0.00    -0.195 C  
HETATM   23  C   UNL     1     -10.488  10.177  68.505  1.00  0.00    -0.195 C  
BRANCH  20  24
HETATM   24  C   UNL     1     -10.646   8.701  66.419  1.00  0.00     0.292 C  
HETATM   25  O   UNL     1      -9.470   8.277  65.727  1.00  0.00    -0.422 OA 
HETATM   26  H   UNL     1      -9.520   7.390  65.390  1.00  0.00     0.000 HD 
ENDBRANCH  20  24
BRANCH  23  27
HETATM   27  O   UNL     1      -9.109   9.860  68.846  1.00  0.00    -0.142 OA 
BRANCH  27  28
HETATM   28  C   UNL     1      -8.961   9.301  70.157  1.00  0.00    -0.214 C  
HETATM   29  O   UNL     1     -10.039   8.427  70.453  1.00  0.00    -0.184 OA 
HETATM   30  C   UNL     1     -10.116   7.329  69.541  1.00  0.00    -0.182 C  
HETATM   31  C   UNL     1      -8.860   6.435  69.702  1.00  0.00    -0.137 C  
HETATM   32  C   UNL     1     -11.444   6.637  69.835  1.00  0.00    -0.414 C  
HETATM   33  C   UNL     1      -7.591   7.294  69.446  1.00  0.00    -0.097 C  
HETATM   34  H   UNL     1      -5.629   7.094  69.657  1.00  0.00     0.000 HD 
HETATM   35  C   UNL     1      -7.613   8.574  70.284  1.00  0.00    -0.075 C  
HETATM   36  O   UNL     1      -6.405   6.569  69.814  1.00  0.00    -0.039 OA 
HETATM   37  O   UNL     1      -6.512   9.424  69.916  1.00  0.00    -0.041 OA 
HETATM   38  H   UNL     1      -5.679   8.975  69.995  1.00  0.00     0.000 HD 
BRANCH  31  39
HETATM   39  N   UNL     1      -8.975   5.245  68.824  1.00  0.00    -0.108 NA 
HETATM   40  H   UNL     1      -9.565   4.449  69.068  1.00  0.00     0.000 HD 
BRANCH  39  41
HETATM   41  C   UNL     1      -8.176   5.280  67.564  1.00  0.00    -0.100 C  
HETATM   42  C   UNL     1      -7.403   3.113  66.509  1.00  0.00    -0.075 C  
HETATM   43  C   UNL     1      -7.332   4.046  67.459  1.00  0.00    -0.068 C  
HETATM   44  C   UNL     1      -8.319   3.265  65.325  1.00  0.00    -0.098 C  
HETATM   45  H   UNL     1     -11.141   5.324  66.118  1.00  0.00     0.000 HD 
HETATM   46  O   UNL     1     -10.529   5.200  66.834  1.00  0.00    -0.242 OA 
HETATM   47  C   UNL     1      -8.904   4.684  65.104  1.00  0.00    -0.147 C  
HETATM   48  O   UNL     1      -9.363   2.305  65.458  1.00  0.00    -0.293 OA 
HETATM   49  H   UNL     1      -8.388   6.320  64.125  1.00  0.00     0.000 HD 
HETATM   50  O   UNL     1      -8.029   5.450  64.260  1.00  0.00    -0.104 OA 
HETATM   51  C   UNL     1      -9.184   5.484  66.384  1.00  0.00    -0.150 C  
HETATM   52  H   UNL     1      -9.942   2.402  64.711  1.00  0.00     0.000 HD 
BRANCH  42  53
HETATM   53  C   UNL     1      -6.597   1.832  66.544  1.00  0.00    -0.027 C  
HETATM   54  O   UNL     1      -5.633   1.830  67.592  1.00  0.00    -0.017 OA 
HETATM   55  H   UNL     1      -5.127   1.026  67.614  1.00  0.00     0.000 HD 
ENDBRANCH  42  53
ENDBRANCH  39  41
ENDBRANCH  31  39
ENDBRANCH  27  28
ENDBRANCH  23  27
ENDBRANCH  13  14
ENDBRANCH   4  13
ENDBRANCH   1   4
BRANCH   1  56
HETATM   56  C   UNL     1     -10.253  12.525  63.803  1.00  0.00    -0.333 C  
HETATM   57  O   UNL     1     -11.177  11.562  63.288  1.00  0.00    -0.716 OA 
HETATM   58  H   UNL     1     -10.695  10.793  63.007  1.00  0.00     0.000 HD 
ENDBRANCH   1  56
TORSDOF 12
ENDMDL
MODEL      153
REMARK 921   NORMALIZED FREE ENERGY PREDICTED BY IDOCK:   -4.35 KCAL/MOL
REMARK 922        TOTAL FREE ENERGY PREDICTED BY IDOCK:  -10.60 KCAL/MOL
REMARK 923 INTER-LIGAND FREE ENERGY PREDICTED BY IDOCK:  -10.65 KCAL/MOL
REMARK 924 INTRA-LIGAND FREE ENERGY PREDICTED BY IDOCK:    0.06 KCAL/MOL
REMARK 927      BINDING AFFINITY PREDICTED BY RF-SCORE:    0.00 PKD
ROOT
HETATM    1  C   UNL     1      -8.811   5.753  69.228  1.00  0.00    -0.116 C  
HETATM    2  H   UNL     1      -9.323   5.940  71.088  1.00  0.00     0.000 HD 
HETATM    3  O   UNL     1      -8.967   5.237  70.556  1.00  0.00    -0.131 OA 
ENDROOT
BRANCH   1   4
HETATM    4  C   UNL     1      -7.960   7.057  69.183  1.00  0.00    -0.119 C  
BRANCH   4   5
HETATM    5  C   UNL     1      -7.309   7.397  70.561  1.00  0.00    -0.076 C  
HETATM    6  O   UNL     1      -6.974   6.208  71.293  1.00  0.00    -0.068 OA 
HETATM    7  H   UNL     1      -6.578   6.414  72.131  1.00  0.00     0.000 HD 
BRANCH   5   8
HETATM    8  C   UNL     1      -8.173   8.265  71.484  1.00  0.00    -0.132 C  
HETATM    9  C   UNL     1      -7.645   8.253  72.902  1.00  0.00    -0.109 C  
HETATM   10  O   UNL     1      -9.500   7.713  71.487  1.00  0.00    -0.143 OA 
HETATM   11  O   UNL     1      -6.827   9.074  73.313  1.00  0.00    -0.334 OA 
HETATM   12  H   UNL     1     -10.035   8.250  72.059  1.00  0.00     0.000 HD 
ENDBRANCH   5   8
ENDBRANCH   4   5
BRANCH   4  13
HETATM   13  O   UNL     1      -8.714   8.201  68.714  1.00  0.00    -0.136 OA 
BRANCH  13  14
HETATM   14  C   UNL     1     -10.073   7.917  68.341  1.00  0.00    -0.194 C  
HETATM   15  H   UNL     1     -10.071   9.608  64.723  1.00  0.00     0.000 HD 
HETATM   16  O   UNL     1      -9.464   7.583  65.952  1.00  0.00    -0.400 OA 
HETATM   17  C   UNL     1     -10.311   8.293  66.869  1.00  0.00    -0.320 C  
HETATM   18  O   UNL     1     -11.035   8.605  69.127  1.00  0.00    -0.098 OA 
HETATM   19  O   UNL     1     -10.542  10.142  65.351  1.00  0.00    -0.108 OA 
HETATM   20  C   UNL     1     -10.905  10.029  69.097  1.00  0.00    -0.222 C  
HETATM   21  H   UNL     1      -9.611   7.815  65.042  1.00  0.00     0.000 HD 
HETATM   22  C   UNL     1     -10.090   9.787  66.674  1.00  0.00    -0.237 C  
HETATM   23  C   UNL     1     -10.852  10.652  67.690  1.00  0.00    -0.292 C  
BRANCH  20  24
HETATM   24  C   UNL     1     -12.054  10.613  69.951  1.00  0.00    -0.299 C  
HETATM   25  O   UNL     1     -11.949  10.316  71.344  1.00  0.00    -0.368 OA 
HETATM   26  H   UNL     1     -12.655  10.676  71.869  1.00  0.00     0.000 HD 
ENDBRANCH  20  24
BRANCH  23  27
HETATM   27  O   UNL     1     -10.213  11.950  67.848  1.00  0.00    -0.185 OA 
BRANCH  27  28
HETATM   28  C   UNL     1     -11.130  13.000  68.177  1.00  0.00    -0.256 C  
HETATM   29  O   UNL     1     -10.470  14.033  68.894  1.00  0.00    -0.236 OA 
HETATM   30  C   UNL     1      -9.411  14.627  68.140  1.00  0.00    -0.212 C  
HETATM   31  C   UNL     1     -10.002  15.353  66.904  1.00  0.00    -0.243 C  
HETATM   32  C   UNL     1      -8.659  15.525  69.119  1.00  0.00    -0.246 C  
HETATM   33  C   UNL     1     -10.797  14.330  66.049  1.00  0.00    -0.303 C  
HETATM   34  H   UNL     1     -12.040  14.376  64.504  1.00  0.00     0.000 HD 
HETATM   35  C   UNL     1     -11.797  13.552  66.907  1.00  0.00    -0.407 C  
HETATM   36  O   UNL     1     -11.554  15.003  65.027  1.00  0.00    -0.366 OA 
HETATM   37  O   UNL     1     -12.407  12.507  66.129  1.00  0.00    -0.596 OA 
HETATM   38  H   UNL     1     -12.820  12.848  65.345  1.00  0.00     0.000 HD 
BRANCH  31  39
HETATM   39  N   UNL     1      -8.920  16.051  66.167  1.00  0.00    -0.342 NA 
HETATM   40  H   UNL     1      -8.743  15.879  65.176  1.00  0.00     0.000 HD 
BRANCH  39  41
HETATM   41  C   UNL     1      -8.104  17.018  66.958  1.00  0.00    -0.205 C  
HETATM   42  C   UNL     1      -6.586  18.652  65.761  1.00  0.00    -0.304 C  
HETATM   43  C   UNL     1      -6.890  17.423  66.178  1.00  0.00    -0.278 C  
HETATM   44  C   UNL     1      -7.427  19.840  66.142  1.00  0.00    -0.310 C  
HETATM   45  H   UNL     1     -10.818  18.885  66.786  1.00  0.00     0.000 HD 
HETATM   46  O   UNL     1     -10.245  18.167  66.544  1.00  0.00    -0.353 OA 
HETATM   47  C   UNL     1      -8.439  19.609  67.293  1.00  0.00    -0.307 C  
HETATM   48  O   UNL     1      -8.095  20.294  64.967  1.00  0.00    -0.257 OA 
HETATM   49  H   UNL     1      -8.443  19.762  69.262  1.00  0.00     0.000 HD 
HETATM   50  O   UNL     1      -7.823  19.904  68.557  1.00  0.00    -0.292 OA 
HETATM   51  C   UNL     1      -9.049  18.201  67.356  1.00  0.00    -0.253 C  
HETATM   52  H   UNL     1      -8.626  21.044  65.208  1.00  0.00     0.000 HD 
BRANCH  42  53
HETATM   53  C   UNL     1      -5.402  18.955  64.869  1.00  0.00    -0.204 C  
HETATM   54  O   UNL     1      -5.782  19.137  63.510  1.00  0.00    -0.391 OA 
HETATM   55  H   UNL     1      -5.038  19.327  62.950  1.00  0.00     0.000 HD 
ENDBRANCH  42  53
ENDBRANCH  39  41
ENDBRANCH  31  39
ENDBRANCH  27  28
ENDBRANCH  23  27
ENDBRANCH  13  14
ENDBRANCH   4  13
ENDBRANCH   1   4
BRANCH   1  56
HETATM   56  C   UNL     1      -8.236   4.622  68.372  1.00  0.00    -0.083 C  
HETATM   57  O   UNL     1      -9.122   3.500  68.432  1.00  0.00    -0.120 OA 
HETATM   58  H   UNL     1      -8.765   2.797  67.900  1.00  0.00     0.000 HD 
ENDBRANCH   1  56
TORSDOF 12
ENDMDL
MODEL      154
REMARK 921   NORMALIZED FREE ENERGY PREDICTED BY IDOCK:   -4.32 KCAL/MOL
REMARK 922        TOTAL FREE ENERGY PREDICTED BY IDOCK:  -10.54 KCAL/MOL
REMARK 923 INTER-LIGAND FREE ENERGY PREDICTED BY IDOCK:   -9.18 KCAL/MOL
REMARK 924 INTRA-LIGAND FREE ENERGY PREDICTED BY IDOCK:   -1.36 KCAL/MOL
REMARK 927      BINDING AFFINITY PREDICTED BY RF-SCORE:    0.00 PKD
ROOT
HETATM    1  C   UNL     1      -7.274   5.537  68.866  1.00  0.00    -0.066 C  
HETATM    2  H   UNL     1      -6.252   4.985  70.418  1.00  0.00     0.000 HD 
HETATM    3  O   UNL     1      -6.061   5.476  69.627  1.00  0.00    -0.019 OA 
ENDROOT
BRANCH   1   4
HETATM    4  C   UNL     1      -8.469   6.116  69.680  1.00  0.00    -0.127 C  
BRANCH   4   5
HETATM    5  C   UNL     1      -9.738   5.209  69.612  1.00  0.00    -0.185 C  
HETATM    6  O   UNL     1     -10.942   5.991  69.581  1.00  0.00    -0.336 OA 
HETATM    7  H   UNL     1     -11.714   5.439  69.540  1.00  0.00     0.000 HD 
BRANCH   5   8
HETATM    8  C   UNL     1      -9.879   4.213  70.770  1.00  0.00    -0.178 C  
HETATM    9  C   UNL     1     -10.142   4.924  72.079  1.00  0.00    -0.196 C  
HETATM   10  O   UNL     1      -8.640   3.495  70.882  1.00  0.00    -0.068 OA 
HETATM   11  O   UNL     1     -11.275   5.171  72.485  1.00  0.00    -0.226 OA 
HETATM   12  H   UNL     1      -8.727   2.877  71.598  1.00  0.00     0.000 HD 
ENDBRANCH   5   8
ENDBRANCH   4   5
BRANCH   4  13
HETATM   13  O   UNL     1      -8.819   7.463  69.278  1.00  0.00    -0.136 OA 
BRANCH  13  14
HETATM   14  C   UNL     1      -8.561   8.475  70.265  1.00  0.00    -0.137 C  
HETATM   15  H   UNL     1     -12.295   9.799  70.764  1.00  0.00     0.000 HD 
HETATM   16  O   UNL     1     -10.720   8.050  71.427  1.00  0.00    -0.223 OA 
HETATM   17  C   UNL     1      -9.884   9.041  70.808  1.00  0.00    -0.243 C  
HETATM   18  O   UNL     1      -7.789   9.563  69.778  1.00  0.00    -0.097 OA 
HETATM   19  O   UNL     1     -11.778  10.414  70.257  1.00  0.00    -0.273 OA 
HETATM   20  C   UNL     1      -8.373  10.240  68.660  1.00  0.00    -0.122 C  
HETATM   21  H   UNL     1     -11.537   8.400  71.762  1.00  0.00     0.000 HD 
HETATM   22  C   UNL     1     -10.667   9.698  69.679  1.00  0.00    -0.240 C  
HETATM   23  C   UNL     1      -9.831  10.692  68.858  1.00  0.00    -0.201 C  
BRANCH  20  24
HETATM   24  C   UNL     1      -7.440  11.418  68.298  1.00  0.00    -0.101 C  
HETATM   25  O   UNL     1      -7.564  11.861  66.946  1.00  0.00    -0.224 OA 
HETATM   26  H   UNL     1      -6.990  12.586  66.724  1.00  0.00     0.000 HD 
ENDBRANCH  20  24
BRANCH  23  27
HETATM   27  O   UNL     1     -10.386  10.855  67.522  1.00  0.00    -0.186 OA 
BRANCH  27  28
HETATM   28  C   UNL     1     -11.556  11.681  67.489  1.00  0.00    -0.272 C  
HETATM   29  O   UNL     1     -11.457  12.728  68.443  1.00  0.00    -0.265 OA 
HETATM   30  C   UNL     1     -10.339  13.583  68.197  1.00  0.00    -0.247 C  
HETATM   31  C   UNL     1     -10.543  14.327  66.852  1.00  0.00    -0.273 C  
HETATM   32  C   UNL     1     -10.229  14.485  69.424  1.00  0.00    -0.051 C  
HETATM   33  C   UNL     1     -10.713  13.281  65.717  1.00  0.00    -0.277 C  
HETATM   34  H   UNL     1     -11.242  13.277  63.805  1.00  0.00     0.000 HD 
HETATM   35  C   UNL     1     -11.780  12.244  66.077  1.00  0.00    -0.388 C  
HETATM   36  O   UNL     1     -11.138  13.917  64.499  1.00  0.00    -0.377 OA 
HETATM   37  O   UNL     1     -11.810  11.201  65.086  1.00  0.00     0.265 OA 
HETATM   38  H   UNL     1     -11.948  11.549  64.213  1.00  0.00     0.000 HD 
BRANCH  31  39
HETATM   39  N   UNL     1      -9.432  15.285  66.633  1.00  0.00    -0.242 NA 
HETATM   40  H   UNL     1      -8.678  15.097  65.972  1.00  0.00     0.000 HD 
BRANCH  39  41
HETATM   41  C   UNL     1      -9.481  16.540  67.439  1.00  0.00    -0.228 C  
HETATM   42  C   UNL     1      -7.489  18.103  67.447  1.00  0.00    -0.219 C  
HETATM   43  C   UNL     1      -8.092  16.968  67.804  1.00  0.00    -0.196 C  
HETATM   44  C   UNL     1      -8.221  19.173  66.683  1.00  0.00    -0.293 C  
HETATM   45  H   UNL     1     -10.885  17.791  64.729  1.00  0.00     0.000 HD 
HETATM   46  O   UNL     1     -10.393  17.154  65.233  1.00  0.00    -0.629 OA 
HETATM   47  C   UNL     1      -9.764  19.033  66.638  1.00  0.00    -0.341 C  
HETATM   48  O   UNL     1      -7.679  19.215  65.366  1.00  0.00    -0.360 OA 
HETATM   49  H   UNL     1     -11.300  19.632  67.725  1.00  0.00     0.000 HD 
HETATM   50  O   UNL     1     -10.354  19.719  67.754  1.00  0.00    -0.412 OA 
HETATM   51  C   UNL     1     -10.290  17.590  66.608  1.00  0.00    -0.319 C  
HETATM   52  H   UNL     1      -8.142  19.890  64.884  1.00  0.00     0.000 HD 
BRANCH  42  53
HETATM   53  C   UNL     1      -6.038  18.403  67.754  1.00  0.00    -0.184 C  
HETATM   54  O   UNL     1      -5.401  17.334  68.446  1.00  0.00    -0.132 OA 
HETATM   55  H   UNL     1      -4.490  17.523  68.639  1.00  0.00     0.000 HD 
ENDBRANCH  42  53
ENDBRANCH  39  41
ENDBRANCH  31  39
ENDBRANCH  27  28
ENDBRANCH  23  27
ENDBRANCH  13  14
ENDBRANCH   4  13
ENDBRANCH   1   4
BRANCH   1  56
HETATM   56  C   UNL     1      -6.965   6.328  67.592  1.00  0.00    -0.075 C  
HETATM   57  O   UNL     1      -7.277   5.518  66.456  1.00  0.00    -0.074 OA 
HETATM   58  H   UNL     1      -7.085   6.009  65.665  1.00  0.00     0.000 HD 
ENDBRANCH   1  56
TORSDOF 12
ENDMDL
MODEL      155
REMARK 921   NORMALIZED FREE ENERGY PREDICTED BY IDOCK:   -4.31 KCAL/MOL
REMARK 922        TOTAL FREE ENERGY PREDICTED BY IDOCK:  -10.53 KCAL/MOL
REMARK 923 INTER-LIGAND FREE ENERGY PREDICTED BY IDOCK:   -8.93 KCAL/MOL
REMARK 924 INTRA-LIGAND FREE ENERGY PREDICTED BY IDOCK:   -1.60 KCAL/MOL
REMARK 927      BINDING AFFINITY PREDICTED BY RF-SCORE:    0.00 PKD
ROOT
HETATM    1  C   UNL     1     -11.602  14.515  65.170  1.00  0.00    -0.371 C  
HETATM    2  H   UNL     1     -13.375  14.790  65.903  1.00  0.00     0.000 HD 
HETATM    3  O   UNL     1     -12.977  14.145  65.329  1.00  0.00    -0.725 OA 
ENDROOT
BRANCH   1   4
HETATM    4  C   UNL     1     -10.859  14.675  66.530  1.00  0.00    -0.315 C  
BRANCH   4   5
HETATM    5  C   UNL     1      -9.465  15.361  66.376  1.00  0.00    -0.296 C  
HETATM    6  O   UNL     1      -8.647  15.156  67.538  1.00  0.00    -0.163 OA 
HETATM    7  H   UNL     1      -7.798  15.574  67.444  1.00  0.00     0.000 HD 
BRANCH   5   8
HETATM    8  C   UNL     1      -9.516  16.873  66.123  1.00  0.00    -0.245 C  
HETATM    9  C   UNL     1      -8.210  17.537  66.498  1.00  0.00    -0.276 C  
HETATM   10  O   UNL     1     -10.559  17.419  66.946  1.00  0.00    -0.303 OA 
HETATM   11  O   UNL     1      -7.288  17.689  65.699  1.00  0.00    -0.487 OA 
HETATM   12  H   UNL     1     -10.591  18.355  66.789  1.00  0.00     0.000 HD 
ENDBRANCH   5   8
ENDBRANCH   4   5
BRANCH   4  13
HETATM   13  O   UNL     1     -10.700  13.418  67.231  1.00  0.00    -0.257 OA 
BRANCH  13  14
HETATM   14  C   UNL     1     -11.891  12.616  67.313  1.00  0.00    -0.328 C  
HETATM   15  H   UNL     1     -11.949  12.020  71.261  1.00  0.00     0.000 HD 
HETATM   16  O   UNL     1     -12.542  13.608  69.499  1.00  0.00    -0.226 OA 
HETATM   17  C   UNL     1     -12.283  12.391  68.782  1.00  0.00     0.072 C  
HETATM   18  O   UNL     1     -11.765  11.344  66.695  1.00  0.00    -0.434 OA 
HETATM   19  O   UNL     1     -11.668  11.238  70.800  1.00  0.00    -0.276 OA 
HETATM   20  C   UNL     1     -10.708  10.538  67.227  1.00  0.00    -0.277 C  
HETATM   21  H   UNL     1     -12.784  13.469  70.407  1.00  0.00     0.000 HD 
HETATM   22  C   UNL     1     -11.176  11.632  69.502  1.00  0.00    -0.213 C  
HETATM   23  C   UNL     1     -10.721  10.368  68.756  1.00  0.00    -0.225 C  
BRANCH  20  24
HETATM   24  C   UNL     1     -10.749   9.181  66.488  1.00  0.00     0.111 C  
HETATM   25  O   UNL     1     -11.042   8.068  67.335  1.00  0.00    -0.486 OA 
HETATM   26  H   UNL     1     -11.068   7.234  66.880  1.00  0.00     0.000 HD 
ENDBRANCH  20  24
BRANCH  23  27
HETATM   27  O   UNL     1      -9.363  10.006  69.133  1.00  0.00    -0.171 OA 
BRANCH  27  28
HETATM   28  C   UNL     1      -9.227   9.665  70.518  1.00  0.00    -0.152 C  
HETATM   29  O   UNL     1      -9.892   8.443  70.799  1.00  0.00    -0.175 OA 
HETATM   30  C   UNL     1      -9.360   7.349  70.049  1.00  0.00    -0.151 C  
HETATM   31  C   UNL     1      -7.897   7.084  70.488  1.00  0.00    -0.101 C  
HETATM   32  C   UNL     1     -10.323   6.185  70.272  1.00  0.00    -0.270 C  
HETATM   33  C   UNL     1      -7.062   8.375  70.272  1.00  0.00    -0.040 C  
HETATM   34  H   UNL     1      -5.255   9.040  70.749  1.00  0.00     0.000 HD 
HETATM   35  C   UNL     1      -7.744   9.587  70.912  1.00  0.00     0.018 C  
HETATM   36  O   UNL     1      -5.766   8.250  70.882  1.00  0.00    -0.032 OA 
HETATM   37  O   UNL     1      -7.036  10.791  70.566  1.00  0.00    -0.471 OA 
HETATM   38  H   UNL     1      -6.120  10.743  70.809  1.00  0.00     0.000 HD 
BRANCH  31  39
HETATM   39  N   UNL     1      -7.367   5.892  69.781  1.00  0.00    -0.073 NA 
HETATM   40  H   UNL     1      -7.352   5.831  68.762  1.00  0.00     0.000 HD 
BRANCH  39  41
HETATM   41  C   UNL     1      -6.858   4.789  70.646  1.00  0.00    -0.037 C  
HETATM   42  C   UNL     1      -8.081   4.207  72.785  1.00  0.00    -0.092 C  
HETATM   43  C   UNL     1      -7.295   5.007  72.063  1.00  0.00    -0.089 C  
HETATM   44  C   UNL     1      -8.550   2.880  72.253  1.00  0.00    -0.074 C  
HETATM   45  H   UNL     1      -8.694   2.886  68.674  1.00  0.00     0.000 HD 
HETATM   46  O   UNL     1      -8.400   3.703  69.060  1.00  0.00    -0.067 OA 
HETATM   47  C   UNL     1      -7.810   2.358  70.994  1.00  0.00    -0.046 C  
HETATM   48  O   UNL     1      -9.951   2.980  72.009  1.00  0.00    -0.165 OA 
HETATM   49  H   UNL     1      -6.224   1.246  70.611  1.00  0.00     0.000 HD 
HETATM   50  O   UNL     1      -6.677   1.566  71.383  1.00  0.00    -0.022 OA 
HETATM   51  C   UNL     1      -7.344   3.443  70.012  1.00  0.00    -0.041 C  
HETATM   52  H   UNL     1     -10.246   2.142  71.673  1.00  0.00     0.000 HD 
BRANCH  42  53
HETATM   53  C   UNL     1      -8.578   4.562  74.169  1.00  0.00    -0.104 C  
HETATM   54  O   UNL     1      -9.913   5.057  74.153  1.00  0.00    -0.160 OA 
HETATM   55  H   UNL     1     -10.224   5.281  75.023  1.00  0.00     0.000 HD 
ENDBRANCH  42  53
ENDBRANCH  39  41
ENDBRANCH  31  39
ENDBRANCH  27  28
ENDBRANCH  23  27
ENDBRANCH  13  14
ENDBRANCH   4  13
ENDBRANCH   1   4
BRANCH   1  56
HETATM   56  C   UNL     1     -10.962  13.476  64.245  1.00  0.00    -0.336 C  
HETATM   57  O   UNL     1     -11.836  12.350  64.138  1.00  0.00    -0.356 OA 
HETATM   58  H   UNL     1     -11.439  11.705  63.564  1.00  0.00     0.000 HD 
ENDBRANCH   1  56
TORSDOF 12
ENDMDL
MODEL      156
REMARK 921   NORMALIZED FREE ENERGY PREDICTED BY IDOCK:   -4.28 KCAL/MOL
REMARK 922        TOTAL FREE ENERGY PREDICTED BY IDOCK:  -10.47 KCAL/MOL
REMARK 923 INTER-LIGAND FREE ENERGY PREDICTED BY IDOCK:   -9.35 KCAL/MOL
REMARK 924 INTRA-LIGAND FREE ENERGY PREDICTED BY IDOCK:   -1.12 KCAL/MOL
REMARK 927      BINDING AFFINITY PREDICTED BY RF-SCORE:    0.00 PKD
ROOT
HETATM    1  C   UNL     1      -7.777   9.651  64.816  1.00  0.00    -0.122 C  
HETATM    2  H   UNL     1      -8.341  11.001  66.087  1.00  0.00     0.000 HD 
HETATM    3  O   UNL     1      -8.557  10.796  65.185  1.00  0.00    -0.178 OA 
ENDROOT
BRANCH   1   4
HETATM    4  C   UNL     1      -7.972   8.449  65.789  1.00  0.00    -0.108 C  
BRANCH   4   5
HETATM    5  C   UNL     1      -8.201   7.100  65.039  1.00  0.00    -0.093 C  
HETATM    6  O   UNL     1      -9.407   6.454  65.473  1.00  0.00    -0.374 OA 
HETATM    7  H   UNL     1      -9.547   5.633  65.017  1.00  0.00     0.000 HD 
BRANCH   5   8
HETATM    8  C   UNL     1      -7.065   6.079  65.190  1.00  0.00    -0.064 C  
HETATM    9  C   UNL     1      -6.362   6.233  66.520  1.00  0.00    -0.042 C  
HETATM   10  O   UNL     1      -6.116   6.322  64.140  1.00  0.00    -0.028 OA 
HETATM   11  O   UNL     1      -6.706   5.623  67.530  1.00  0.00    -0.055 OA 
HETATM   12  H   UNL     1      -5.413   5.690  64.233  1.00  0.00     0.000 HD 
ENDBRANCH   5   8
ENDBRANCH   4   5
BRANCH   4  13
HETATM   13  O   UNL     1      -9.050   8.663  66.732  1.00  0.00    -0.136 OA 
BRANCH  13  14
HETATM   14  C   UNL     1      -8.704   8.429  68.108  1.00  0.00    -0.143 C  
HETATM   15  H   UNL     1     -12.236   9.277  69.768  1.00  0.00     0.000 HD 
HETATM   16  O   UNL     1     -10.961   7.525  68.635  1.00  0.00    -0.418 OA 
HETATM   17  C   UNL     1      -9.961   8.493  68.991  1.00  0.00    -0.193 C  
HETATM   18  O   UNL     1      -7.761   9.356  68.625  1.00  0.00    -0.083 OA 
HETATM   19  O   UNL     1     -11.610   9.977  69.916  1.00  0.00    -0.235 OA 
HETATM   20  C   UNL     1      -8.182  10.722  68.549  1.00  0.00    -0.136 C  
HETATM   21  H   UNL     1     -11.738   7.564  69.181  1.00  0.00     0.000 HD 
HETATM   22  C   UNL     1     -10.582   9.881  68.909  1.00  0.00    -0.218 C  
HETATM   23  C   UNL     1      -9.570  11.013  69.147  1.00  0.00    -0.061 C  
BRANCH  20  24
HETATM   24  C   UNL     1      -7.074  11.581  69.199  1.00  0.00    -0.105 C  
HETATM   25  O   UNL     1      -5.754  11.070  69.003  1.00  0.00    -0.041 OA 
HETATM   26  H   UNL     1      -5.073  11.599  69.403  1.00  0.00     0.000 HD 
ENDBRANCH  20  24
BRANCH  23  27
HETATM   27  O   UNL     1     -10.023  12.250  68.529  1.00  0.00    -0.213 OA 
BRANCH  27  28
HETATM   28  C   UNL     1     -11.446  12.321  68.372  1.00  0.00    -0.307 C  
HETATM   29  O   UNL     1     -12.007  13.232  69.304  1.00  0.00    -0.312 OA 
HETATM   30  C   UNL     1     -11.505  14.560  69.136  1.00  0.00    -0.294 C  
HETATM   31  C   UNL     1     -11.957  15.113  67.761  1.00  0.00    -0.022 C  
HETATM   32  C   UNL     1     -12.004  15.348  70.345  1.00  0.00    -0.387 C  
HETATM   33  C   UNL     1     -11.439  14.169  66.641  1.00  0.00    -0.366 C  
HETATM   34  H   UNL     1     -11.713  13.933  64.691  1.00  0.00     0.000 HD 
HETATM   35  C   UNL     1     -11.811  12.713  66.932  1.00  0.00    -0.355 C  
HETATM   36  O   UNL     1     -12.030  14.510  65.375  1.00  0.00    -0.362 OA 
HETATM   37  O   UNL     1     -11.190  11.843  65.968  1.00  0.00    -0.318 OA 
HETATM   38  H   UNL     1     -11.415  12.085  65.078  1.00  0.00     0.000 HD 
BRANCH  31  39
HETATM   39  N   UNL     1     -11.518  16.523  67.617  1.00  0.00     0.076 NA 
HETATM   40  H   UNL     1     -12.014  17.185  67.019  1.00  0.00     0.000 HD 
BRANCH  39  41
HETATM   41  C   UNL     1     -10.309  16.916  68.398  1.00  0.00    -0.338 C  
HETATM   42  C   UNL     1      -8.011  16.246  67.572  1.00  0.00    -0.171 C  
HETATM   43  C   UNL     1      -9.189  15.957  68.124  1.00  0.00    -0.190 C  
HETATM   44  C   UNL     1      -7.626  17.663  67.242  1.00  0.00    -0.199 C  
HETATM   45  H   UNL     1     -10.514  19.690  66.625  1.00  0.00     0.000 HD 
HETATM   46  O   UNL     1     -10.705  18.784  66.841  1.00  0.00    -0.407 OA 
HETATM   47  C   UNL     1      -8.509  18.767  67.878  1.00  0.00    -0.292 C  
HETATM   48  O   UNL     1      -7.606  17.789  65.823  1.00  0.00    -0.536 OA 
HETATM   49  H   UNL     1      -8.521  19.819  69.550  1.00  0.00     0.000 HD 
HETATM   50  O   UNL     1      -7.980  19.143  69.160  1.00  0.00    -0.282 OA 
HETATM   51  C   UNL     1      -9.993  18.407  68.041  1.00  0.00    -0.351 C  
HETATM   52  H   UNL     1      -7.364  18.684  65.615  1.00  0.00     0.000 HD 
BRANCH  42  53
HETATM   53  C   UNL     1      -6.982  15.196  67.216  1.00  0.00    -0.088 C  
HETATM   54  O   UNL     1      -5.692  15.507  67.731  1.00  0.00    -0.134 OA 
HETATM   55  H   UNL     1      -5.046  14.847  67.507  1.00  0.00     0.000 HD 
ENDBRANCH  42  53
ENDBRANCH  39  41
ENDBRANCH  31  39
ENDBRANCH  27  28
ENDBRANCH  23  27
ENDBRANCH  13  14
ENDBRANCH   4  13
ENDBRANCH   1   4
BRANCH   1  56
HETATM   56  C   UNL     1      -8.126   9.320  63.363  1.00  0.00    -0.161 C  
HETATM   57  O   UNL     1      -9.510   9.604  63.142  1.00  0.00    -0.510 OA 
HETATM   58  H   UNL     1      -9.727   9.399  62.239  1.00  0.00     0.000 HD 
ENDBRANCH   1  56
TORSDOF 12
ENDMDL
MODEL      157
REMARK 921   NORMALIZED FREE ENERGY PREDICTED BY IDOCK:   -4.28 KCAL/MOL
REMARK 922        TOTAL FREE ENERGY PREDICTED BY IDOCK:  -10.47 KCAL/MOL
REMARK 923 INTER-LIGAND FREE ENERGY PREDICTED BY IDOCK:   -8.26 KCAL/MOL
REMARK 924 INTRA-LIGAND FREE ENERGY PREDICTED BY IDOCK:   -2.21 KCAL/MOL
REMARK 927      BINDING AFFINITY PREDICTED BY RF-SCORE:    0.00 PKD
ROOT
HETATM    1  C   UNL     1      -7.454   7.837  72.913  1.00  0.00    -0.104 C  
HETATM    2  H   UNL     1      -9.243   8.310  73.493  1.00  0.00     0.000 HD 
HETATM    3  O   UNL     1      -8.555   8.750  73.006  1.00  0.00    -0.382 OA 
ENDROOT
BRANCH   1   4
HETATM    4  C   UNL     1      -7.861   6.460  72.307  1.00  0.00    -0.102 C  
BRANCH   4   5
HETATM    5  C   UNL     1      -6.745   5.381  72.465  1.00  0.00    -0.074 C  
HETATM    6  O   UNL     1      -5.896   5.328  71.308  1.00  0.00    -0.015 OA 
HETATM    7  H   UNL     1      -5.217   4.672  71.404  1.00  0.00     0.000 HD 
BRANCH   5   8
HETATM    8  C   UNL     1      -7.258   3.956  72.710  1.00  0.00    -0.062 C  
HETATM    9  C   UNL     1      -7.991   3.856  74.029  1.00  0.00    -0.083 C  
HETATM   10  O   UNL     1      -6.118   3.083  72.755  1.00  0.00    -0.008 OA 
HETATM   11  O   UNL     1      -9.203   4.040  74.132  1.00  0.00    -0.099 OA 
HETATM   12  H   UNL     1      -6.436   2.200  72.907  1.00  0.00     0.000 HD 
ENDBRANCH   5   8
ENDBRANCH   4   5
BRANCH   4  13
HETATM   13  O   UNL     1      -8.244   6.554  70.914  1.00  0.00    -0.121 OA 
BRANCH  13  14
HETATM   14  C   UNL     1      -9.192   5.565  70.479  1.00  0.00    -0.148 C  
HETATM   15  H   UNL     1      -9.192   6.405  66.574  1.00  0.00     0.000 HD 
HETATM   16  O   UNL     1      -7.990   5.200  68.331  1.00  0.00    -0.086 OA 
HETATM   17  C   UNL     1      -9.250   5.521  68.942  1.00  0.00    -0.119 C  
HETATM   18  O   UNL     1     -10.510   5.787  70.958  1.00  0.00    -0.221 OA 
HETATM   19  O   UNL     1      -9.984   6.721  66.993  1.00  0.00    -0.153 OA 
HETATM   20  C   UNL     1     -11.061   7.054  70.586  1.00  0.00    -0.272 C  
HETATM   21  H   UNL     1      -8.026   5.173  67.381  1.00  0.00     0.000 HD 
HETATM   22  C   UNL     1      -9.720   6.866  68.404  1.00  0.00    -0.137 C  
HETATM   23  C   UNL     1     -11.000   7.378  69.082  1.00  0.00    -0.033 C  
BRANCH  20  24
HETATM   24  C   UNL     1     -12.505   7.106  71.136  1.00  0.00    -0.359 C  
HETATM   25  O   UNL     1     -12.619   6.708  72.504  1.00  0.00    -0.505 OA 
HETATM   26  H   UNL     1     -13.506   6.740  72.842  1.00  0.00     0.000 HD 
ENDBRANCH  20  24
BRANCH  23  27
HETATM   27  O   UNL     1     -11.098   8.826  68.978  1.00  0.00    -0.001 OA 
BRANCH  27  28
HETATM   28  C   UNL     1     -10.575   9.515  70.120  1.00  0.00    -0.254 C  
HETATM   29  O   UNL     1      -9.287  10.043  69.840  1.00  0.00    -0.220 OA 
HETATM   30  C   UNL     1      -9.308  10.982  68.762  1.00  0.00    -0.179 C  
HETATM   31  C   UNL     1     -10.136  12.226  69.176  1.00  0.00     0.273 C  
HETATM   32  C   UNL     1      -7.845  11.262  68.428  1.00  0.00    -0.136 C  
HETATM   33  C   UNL     1     -11.572  11.774  69.557  1.00  0.00    -0.332 C  
HETATM   34  H   UNL     1     -13.177  12.577  70.401  1.00  0.00     0.000 HD 
HETATM   35  C   UNL     1     -11.539  10.625  70.568  1.00  0.00    -0.350 C  
HETATM   36  O   UNL     1     -12.299  12.854  70.168  1.00  0.00    -0.270 OA 
HETATM   37  O   UNL     1     -12.869  10.121  70.786  1.00  0.00    -0.413 OA 
HETATM   38  H   UNL     1     -13.464  10.807  71.063  1.00  0.00     0.000 HD 
BRANCH  31  39
HETATM   39  N   UNL     1     -10.085  13.244  68.098  1.00  0.00    -0.235 NA 
HETATM   40  H   UNL     1     -10.156  12.992  67.112  1.00  0.00     0.000 HD 
BRANCH  39  41
HETATM   41  C   UNL     1      -9.925  14.660  68.542  1.00  0.00    -0.235 C  
HETATM   42  C   UNL     1      -8.122  16.102  67.502  1.00  0.00    -0.164 C  
HETATM   43  C   UNL     1      -8.516  15.113  68.306  1.00  0.00    -0.152 C  
HETATM   44  C   UNL     1      -9.118  16.978  66.791  1.00  0.00    -0.246 C  
HETATM   45  H   UNL     1     -12.210  15.257  66.239  1.00  0.00     0.000 HD 
HETATM   46  O   UNL     1     -11.547  14.745  66.689  1.00  0.00    -0.360 OA 
HETATM   47  C   UNL     1     -10.580  16.888  67.300  1.00  0.00    -0.270 C  
HETATM   48  O   UNL     1      -9.048  16.675  65.401  1.00  0.00    -0.267 OA 
HETATM   49  H   UNL     1     -11.693  17.792  68.657  1.00  0.00     0.000 HD 
HETATM   50  O   UNL     1     -10.797  17.848  68.346  1.00  0.00    -0.239 OA 
HETATM   51  C   UNL     1     -11.015  15.503  67.800  1.00  0.00    -0.317 C  
HETATM   52  H   UNL     1      -9.677  17.228  64.952  1.00  0.00     0.000 HD 
BRANCH  42  53
HETATM   53  C   UNL     1      -6.669  16.415  67.224  1.00  0.00    -0.186 C  
HETATM   54  O   UNL     1      -5.828  15.281  67.409  1.00  0.00    -0.329 OA 
HETATM   55  H   UNL     1      -4.914  15.478  67.235  1.00  0.00     0.000 HD 
ENDBRANCH  42  53
ENDBRANCH  39  41
ENDBRANCH  31  39
ENDBRANCH  27  28
ENDBRANCH  23  27
ENDBRANCH  13  14
ENDBRANCH   4  13
ENDBRANCH   1   4
BRANCH   1  56
HETATM   56  C   UNL     1      -6.348   8.545  72.128  1.00  0.00    -0.072 C  
HETATM   57  O   UNL     1      -6.948   9.427  71.175  1.00  0.00    -0.221 OA 
HETATM   58  H   UNL     1      -6.262   9.867  70.688  1.00  0.00     0.000 HD 
ENDBRANCH   1  56
TORSDOF 12
ENDMDL
MODEL      158
REMARK 921   NORMALIZED FREE ENERGY PREDICTED BY IDOCK:   -4.25 KCAL/MOL
REMARK 922        TOTAL FREE ENERGY PREDICTED BY IDOCK:  -10.43 KCAL/MOL
REMARK 923 INTER-LIGAND FREE ENERGY PREDICTED BY IDOCK:   -8.32 KCAL/MOL
REMARK 924 INTRA-LIGAND FREE ENERGY PREDICTED BY IDOCK:   -2.11 KCAL/MOL
REMARK 927      BINDING AFFINITY PREDICTED BY RF-SCORE:    0.00 PKD
ROOT
HETATM    1  C   UNL     1     -12.157  14.071  66.049  1.00  0.00    -0.439 C  
HETATM    2  H   UNL     1     -12.412  12.841  67.526  1.00  0.00     0.000 HD 
HETATM    3  O   UNL     1     -12.335  12.752  66.583  1.00  0.00    -0.456 OA 
ENDROOT
BRANCH   1   4
HETATM    4  C   UNL     1     -10.962  14.829  66.701  1.00  0.00    -0.326 C  
BRANCH   4   5
HETATM    5  C   UNL     1     -10.712  16.227  66.052  1.00  0.00    -0.214 C  
HETATM    6  O   UNL     1      -9.736  16.152  65.002  1.00  0.00    -0.238 OA 
HETATM    7  H   UNL     1      -9.584  17.002  64.606  1.00  0.00     0.000 HD 
BRANCH   5   8
HETATM    8  C   UNL     1     -10.241  17.314  67.026  1.00  0.00    -0.320 C  
HETATM    9  C   UNL     1      -9.141  18.156  66.420  1.00  0.00    -0.241 C  
HETATM   10  O   UNL     1      -9.723  16.658  68.195  1.00  0.00    -0.234 OA 
HETATM   11  O   UNL     1      -9.365  19.181  65.779  1.00  0.00    -0.387 OA 
HETATM   12  H   UNL     1      -9.432  17.332  68.798  1.00  0.00     0.000 HD 
ENDBRANCH   5   8
ENDBRANCH   4   5
BRANCH   4  13
HETATM   13  O   UNL     1      -9.734  14.062  66.677  1.00  0.00    -0.269 OA 
BRANCH  13  14
HETATM   14  C   UNL     1      -9.098  13.899  67.955  1.00  0.00    -0.192 C  
HETATM   15  H   UNL     1      -5.418  13.001  66.689  1.00  0.00     0.000 HD 
HETATM   16  O   UNL     1      -6.952  14.853  67.134  1.00  0.00    -0.286 OA 
HETATM   17  C   UNL     1      -7.579  13.733  67.779  1.00  0.00    -0.169 C  
HETATM   18  O   UNL     1      -9.575  12.782  68.692  1.00  0.00    -0.148 OA 
HETATM   19  O   UNL     1      -5.868  12.229  67.014  1.00  0.00    -0.230 OA 
HETATM   20  C   UNL     1      -9.429  11.530  68.015  1.00  0.00    -0.181 C  
HETATM   21  H   UNL     1      -6.014  14.750  67.024  1.00  0.00     0.000 HD 
HETATM   22  C   UNL     1      -7.287  12.480  66.964  1.00  0.00     0.020 C  
HETATM   23  C   UNL     1      -8.014  11.232  67.488  1.00  0.00    -0.124 C  
BRANCH  20  24
HETATM   24  C   UNL     1      -9.941  10.429  68.971  1.00  0.00    -0.214 C  
HETATM   25  O   UNL     1      -9.975   9.125  68.389  1.00  0.00    -0.169 OA 
HETATM   26  H   UNL     1     -10.290   8.448  68.977  1.00  0.00     0.000 HD 
ENDBRANCH  20  24
BRANCH  23  27
HETATM   27  O   UNL     1      -8.178  10.246  66.431  1.00  0.00    -0.123 OA 
BRANCH  27  28
HETATM   28  C   UNL     1      -6.939   9.833  65.840  1.00  0.00    -0.101 C  
HETATM   29  O   UNL     1      -6.314   8.836  66.634  1.00  0.00    -0.057 OA 
HETATM   30  C   UNL     1      -7.121   7.663  66.768  1.00  0.00    -0.083 C  
HETATM   31  C   UNL     1      -7.282   6.986  65.383  1.00  0.00    -0.073 C  
HETATM   32  C   UNL     1      -6.434   6.808  67.830  1.00  0.00    -0.050 C  
HETATM   33  C   UNL     1      -7.922   8.000  64.396  1.00  0.00    -0.145 C  
HETATM   34  H   UNL     1      -8.264   8.118  62.446  1.00  0.00     0.000 HD 
HETATM   35  C   UNL     1      -7.166   9.331  64.405  1.00  0.00    -0.097 C  
HETATM   36  O   UNL     1      -7.873   7.497  63.049  1.00  0.00    -0.129 OA 
HETATM   37  O   UNL     1      -7.866  10.301  63.605  1.00  0.00    -0.157 OA 
HETATM   38  H   UNL     1      -8.006   9.991  62.719  1.00  0.00     0.000 HD 
BRANCH  31  39
HETATM   39  N   UNL     1      -8.040   5.719  65.529  1.00  0.00    -0.121 NA 
HETATM   40  H   UNL     1      -8.989   5.697  65.904  1.00  0.00     0.000 HD 
BRANCH  39  41
HETATM   41  C   UNL     1      -7.333   4.479  65.094  1.00  0.00    -0.072 C  
HETATM   42  C   UNL     1      -7.686   2.322  66.371  1.00  0.00    -0.071 C  
HETATM   43  C   UNL     1      -7.173   3.547  66.257  1.00  0.00    -0.067 C  
HETATM   44  C   UNL     1      -8.435   1.676  65.237  1.00  0.00    -0.098 C  
HETATM   45  H   UNL     1      -9.941   4.128  63.105  1.00  0.00     0.000 HD 
HETATM   46  O   UNL     1      -9.453   4.487  63.836  1.00  0.00    -0.120 OA 
HETATM   47  C   UNL     1      -8.283   2.359  63.853  1.00  0.00    -0.082 C  
HETATM   48  O   UNL     1      -9.807   1.597  65.612  1.00  0.00    -0.219 OA 
HETATM   49  H   UNL     1      -7.066   2.222  62.304  1.00  0.00     0.000 HD 
HETATM   50  O   UNL     1      -7.159   1.803  63.152  1.00  0.00    -0.032 OA 
HETATM   51  C   UNL     1      -8.138   3.887  63.889  1.00  0.00    -0.090 C  
HETATM   52  H   UNL     1     -10.280   1.190  64.895  1.00  0.00     0.000 HD 
BRANCH  42  53
HETATM   53  C   UNL     1      -7.580   1.494  67.633  1.00  0.00    -0.058 C  
HETATM   54  O   UNL     1      -8.730   1.626  68.463  1.00  0.00    -0.059 OA 
HETATM   55  H   UNL     1      -8.663   1.106  69.256  1.00  0.00     0.000 HD 
ENDBRANCH  42  53
ENDBRANCH  39  41
ENDBRANCH  31  39
ENDBRANCH  27  28
ENDBRANCH  23  27
ENDBRANCH  13  14
ENDBRANCH   4  13
ENDBRANCH   1   4
BRANCH   1  56
HETATM   56  C   UNL     1     -12.032  13.927  64.531  1.00  0.00    -0.437 C  
HETATM   57  O   UNL     1     -12.586  15.089  63.908  1.00  0.00    -0.958 OA 
HETATM   58  H   UNL     1     -12.508  15.001  62.965  1.00  0.00     0.000 HD 
ENDBRANCH   1  56
TORSDOF 12
ENDMDL
MODEL      159
REMARK 921   NORMALIZED FREE ENERGY PREDICTED BY IDOCK:   -4.24 KCAL/MOL
REMARK 922        TOTAL FREE ENERGY PREDICTED BY IDOCK:  -10.41 KCAL/MOL
REMARK 923 INTER-LIGAND FREE ENERGY PREDICTED BY IDOCK:  -11.03 KCAL/MOL
REMARK 924 INTRA-LIGAND FREE ENERGY PREDICTED BY IDOCK:    0.62 KCAL/MOL
REMARK 927      BINDING AFFINITY PREDICTED BY RF-SCORE:    0.00 PKD
ROOT
HETATM    1  C   UNL     1      -6.727  18.063  68.381  1.00  0.00    -0.217 C  
HETATM    2  H   UNL     1      -6.678  20.000  68.322  1.00  0.00     0.000 HD 
HETATM    3  O   UNL     1      -6.046  19.318  68.518  1.00  0.00    -0.222 OA 
ENDROOT
BRANCH   1   4
HETATM    4  C   UNL     1      -7.410  17.896  66.991  1.00  0.00    -0.194 C  
BRANCH   4   5
HETATM    5  C   UNL     1      -8.351  19.090  66.637  1.00  0.00    -0.301 C  
HETATM    6  O   UNL     1      -9.408  18.684  65.754  1.00  0.00    -0.416 OA 
HETATM    7  H   UNL     1      -9.981  19.410  65.539  1.00  0.00     0.000 HD 
BRANCH   5   8
HETATM    8  C   UNL     1      -7.652  20.287  65.978  1.00  0.00    -0.189 C  
HETATM    9  C   UNL     1      -6.368  19.866  65.297  1.00  0.00    -0.261 C  
HETATM   10  O   UNL     1      -7.331  21.230  67.014  1.00  0.00    -0.732 OA 
HETATM   11  O   UNL     1      -6.325  19.514  64.120  1.00  0.00    -0.385 OA 
HETATM   12  H   UNL     1      -6.899  21.971  66.606  1.00  0.00     0.000 HD 
ENDBRANCH   5   8
ENDBRANCH   4   5
BRANCH   4  13
HETATM   13  O   UNL     1      -8.147  16.654  66.876  1.00  0.00    -0.174 OA 
BRANCH  13  14
HETATM   14  C   UNL     1      -9.464  16.677  67.452  1.00  0.00    -0.232 C  
HETATM   15  H   UNL     1      -9.308  13.224  69.451  1.00  0.00     0.000 HD 
HETATM   16  O   UNL     1      -8.686  15.587  69.548  1.00  0.00    -0.261 OA 
HETATM   17  C   UNL     1      -9.624  15.529  68.462  1.00  0.00    -0.203 C  
HETATM   18  O   UNL     1     -10.507  16.564  66.495  1.00  0.00    -0.301 OA 
HETATM   19  O   UNL     1      -9.844  13.145  68.671  1.00  0.00    -0.188 OA 
HETATM   20  C   UNL     1     -10.443  15.377  65.699  1.00  0.00    -0.372 C  
HETATM   21  H   UNL     1      -8.785  14.877  70.172  1.00  0.00     0.000 HD 
HETATM   22  C   UNL     1      -9.462  14.191  67.754  1.00  0.00    -0.207 C  
HETATM   23  C   UNL     1     -10.329  14.062  66.491  1.00  0.00    -0.285 C  
BRANCH  20  24
HETATM   24  C   UNL     1     -11.671  15.387  64.760  1.00  0.00    -0.232 C  
HETATM   25  O   UNL     1     -11.722  16.515  63.884  1.00  0.00    -1.527 OA 
HETATM   26  H   UNL     1     -12.477  16.521  63.307  1.00  0.00     0.000 HD 
ENDBRANCH  20  24
BRANCH  23  27
HETATM   27  O   UNL     1      -9.763  13.086  65.572  1.00  0.00    -0.182 OA 
BRANCH  27  28
HETATM   28  C   UNL     1     -10.733  12.174  65.042  1.00  0.00    -0.297 C  
HETATM   29  O   UNL     1     -10.139  11.316  64.079  1.00  0.00    -0.269 OA 
HETATM   30  C   UNL     1      -9.085  10.525  64.633  1.00  0.00    -0.218 C  
HETATM   31  C   UNL     1      -9.670   9.550  65.687  1.00  0.00    -0.290 C  
HETATM   32  C   UNL     1      -8.400   9.856  63.444  1.00  0.00    -0.168 C  
HETATM   33  C   UNL     1     -10.397  10.371  66.787  1.00  0.00    -0.235 C  
HETATM   34  H   UNL     1     -11.596  10.007  68.325  1.00  0.00     0.000 HD 
HETATM   35  C   UNL     1     -11.386  11.364  66.172  1.00  0.00    -0.043 C  
HETATM   36  O   UNL     1     -11.152   9.504  67.652  1.00  0.00    -0.183 OA 
HETATM   37  O   UNL     1     -11.929  12.217  67.196  1.00  0.00    -0.580 OA 
HETATM   38  H   UNL     1     -12.333  11.716  67.894  1.00  0.00     0.000 HD 
BRANCH  31  39
HETATM   39  N   UNL     1      -8.599   8.662  66.200  1.00  0.00    -0.134 NA 
HETATM   40  H   UNL     1      -8.013   8.106  65.576  1.00  0.00     0.000 HD 
BRANCH  39  41
HETATM   41  C   UNL     1      -8.427   8.630  67.682  1.00  0.00    -0.125 C  
HETATM   42  C   UNL     1      -8.726   6.449  68.932  1.00  0.00    -0.126 C  
HETATM   43  C   UNL     1      -9.214   7.495  68.263  1.00  0.00    -0.138 C  
HETATM   44  C   UNL     1      -7.265   6.351  69.277  1.00  0.00    -0.090 C  
HETATM   45  H   UNL     1      -5.248   8.164  66.938  1.00  0.00     0.000 HD 
HETATM   46  O   UNL     1      -6.181   8.198  66.765  1.00  0.00    -0.052 OA 
HETATM   47  C   UNL     1      -6.446   7.657  69.117  1.00  0.00    -0.040 C  
HETATM   48  O   UNL     1      -6.702   5.304  68.491  1.00  0.00    -0.050 OA 
HETATM   49  H   UNL     1      -5.968   9.207  70.245  1.00  0.00     0.000 HD 
HETATM   50  O   UNL     1      -6.470   8.406  70.343  1.00  0.00    -0.035 OA 
HETATM   51  C   UNL     1      -6.890   8.573  67.968  1.00  0.00    -0.070 C  
HETATM   52  H   UNL     1      -5.780   5.243  68.709  1.00  0.00     0.000 HD 
BRANCH  42  53
HETATM   53  C   UNL     1      -9.577   5.280  69.378  1.00  0.00    -0.156 C  
HETATM   54  O   UNL     1     -10.963   5.607  69.420  1.00  0.00    -0.320 OA 
HETATM   55  H   UNL     1     -11.497   4.873  69.701  1.00  0.00     0.000 HD 
ENDBRANCH  42  53
ENDBRANCH  39  41
ENDBRANCH  31  39
ENDBRANCH  27  28
ENDBRANCH  23  27
ENDBRANCH  13  14
ENDBRANCH   4  13
ENDBRANCH   1   4
BRANCH   1  56
HETATM   56  C   UNL     1      -5.709  16.964  68.696  1.00  0.00    -0.136 C  
HETATM   57  O   UNL     1      -5.969  16.453  70.006  1.00  0.00    -0.201 OA 
HETATM   58  H   UNL     1      -5.338  15.770  70.201  1.00  0.00     0.000 HD 
ENDBRANCH   1  56
TORSDOF 12
ENDMDL
MODEL      160
REMARK 921   NORMALIZED FREE ENERGY PREDICTED BY IDOCK:   -4.24 KCAL/MOL
REMARK 922        TOTAL FREE ENERGY PREDICTED BY IDOCK:  -10.40 KCAL/MOL
REMARK 923 INTER-LIGAND FREE ENERGY PREDICTED BY IDOCK:   -8.49 KCAL/MOL
REMARK 924 INTRA-LIGAND FREE ENERGY PREDICTED BY IDOCK:   -1.92 KCAL/MOL
REMARK 927      BINDING AFFINITY PREDICTED BY RF-SCORE:    0.00 PKD
ROOT
HETATM    1  C   UNL     1     -11.650  14.709  65.594  1.00  0.00    -0.328 C  
HETATM    2  H   UNL     1     -12.752  13.520  66.657  1.00  0.00     0.000 HD 
HETATM    3  O   UNL     1     -12.922  14.220  66.038  1.00  0.00    -0.303 OA 
ENDROOT
BRANCH   1   4
HETATM    4  C   UNL     1     -10.737  13.583  65.022  1.00  0.00    -0.357 C  
BRANCH   4   5
HETATM    5  C   UNL     1     -11.525  12.271  64.711  1.00  0.00    -0.329 C  
HETATM    6  O   UNL     1     -12.014  11.654  65.912  1.00  0.00    -0.312 OA 
HETATM    7  H   UNL     1     -12.493  10.856  65.722  1.00  0.00     0.000 HD 
BRANCH   5   8
HETATM    8  C   UNL     1     -10.725  11.205  63.951  1.00  0.00    -0.337 C  
HETATM    9  C   UNL     1      -9.768  10.479  64.869  1.00  0.00    -0.300 C  
HETATM   10  O   UNL     1      -9.963  11.873  62.933  1.00  0.00    -0.525 OA 
HETATM   11  O   UNL     1     -10.076   9.455  65.475  1.00  0.00    -0.217 OA 
HETATM   12  H   UNL     1      -9.469  11.213  62.462  1.00  0.00     0.000 HD 
ENDBRANCH   5   8
ENDBRANCH   4   5
BRANCH   4  13
HETATM   13  O   UNL     1      -9.618  13.276  65.888  1.00  0.00    -0.218 OA 
BRANCH  13  14
HETATM   14  C   UNL     1      -9.648  13.929  67.168  1.00  0.00    -0.247 C  
HETATM   15  H   UNL     1      -5.881  13.222  68.293  1.00  0.00     0.000 HD 
HETATM   16  O   UNL     1      -7.293  14.702  66.952  1.00  0.00    -0.314 OA 
HETATM   17  C   UNL     1      -8.234  13.988  67.770  1.00  0.00    -0.168 C  
HETATM   18  O   UNL     1     -10.497  13.293  68.113  1.00  0.00    -0.231 OA 
HETATM   19  O   UNL     1      -6.490  12.664  68.763  1.00  0.00    -0.073 OA 
HETATM   20  C   UNL     1     -10.162  11.926  68.373  1.00  0.00    -0.204 C  
HETATM   21  H   UNL     1      -6.419  14.738  67.324  1.00  0.00     0.000 HD 
HETATM   22  C   UNL     1      -7.707  12.576  67.993  1.00  0.00    -0.140 C  
HETATM   23  C   UNL     1      -8.692  11.673  68.752  1.00  0.00    -0.010 C  
BRANCH  20  24
HETATM   24  C   UNL     1     -11.140  11.412  69.454  1.00  0.00    -0.241 C  
HETATM   25  O   UNL     1     -12.331  10.825  68.926  1.00  0.00    -0.788 OA 
HETATM   26  H   UNL     1     -12.932  10.509  69.590  1.00  0.00     0.000 HD 
ENDBRANCH  20  24
BRANCH  23  27
HETATM   27  O   UNL     1      -8.437  10.270  68.461  1.00  0.00    -0.112 OA 
BRANCH  27  28
HETATM   28  C   UNL     1      -7.043   9.949  68.382  1.00  0.00    -0.072 C  
HETATM   29  O   UNL     1      -6.426  10.087  69.653  1.00  0.00    -0.046 OA 
HETATM   30  C   UNL     1      -6.998   9.216  70.632  1.00  0.00    -0.090 C  
HETATM   31  C   UNL     1      -6.715   7.743  70.242  1.00  0.00    -0.038 C  
HETATM   32  C   UNL     1      -6.409   9.654  71.971  1.00  0.00     0.389 C  
HETATM   33  C   UNL     1      -7.307   7.471  68.832  1.00  0.00    -0.094 C  
HETATM   34  H   UNL     1      -7.228   6.030  67.471  1.00  0.00     0.000 HD 
HETATM   35  C   UNL     1      -6.846   8.530  67.827  1.00  0.00    -0.067 C  
HETATM   36  O   UNL     1      -6.866   6.196  68.333  1.00  0.00    -0.068 OA 
HETATM   37  O   UNL     1      -7.528   8.349  66.573  1.00  0.00    -0.080 OA 
HETATM   38  H   UNL     1      -7.407   7.472  66.229  1.00  0.00     0.000 HD 
BRANCH  31  39
HETATM   39  N   UNL     1      -7.225   6.836  71.299  1.00  0.00    -0.076 NA 
HETATM   40  H   UNL     1      -6.599   6.343  71.936  1.00  0.00     0.000 HD 
BRANCH  39  41
HETATM   41  C   UNL     1      -8.708   6.688  71.376  1.00  0.00    -0.129 C  
HETATM   42  C   UNL     1      -9.713   4.445  71.984  1.00  0.00    -0.227 C  
HETATM   43  C   UNL     1      -9.093   5.260  71.131  1.00  0.00    -0.170 C  
HETATM   44  C   UNL     1     -10.209   4.936  73.317  1.00  0.00    -0.170 C  
HETATM   45  H   UNL     1      -8.285   7.724  74.479  1.00  0.00     0.000 HD 
HETATM   46  O   UNL     1      -8.012   7.378  73.637  1.00  0.00    -0.104 OA 
HETATM   47  C   UNL     1     -10.262   6.475  73.492  1.00  0.00    -0.263 C  
HETATM   48  O   UNL     1      -9.399   4.341  74.328  1.00  0.00    -0.105 OA 
HETATM   49  H   UNL     1     -11.572   7.919  73.176  1.00  0.00     0.000 HD 
HETATM   50  O   UNL     1     -11.540   6.975  73.068  1.00  0.00    -0.126 OA 
HETATM   51  C   UNL     1      -9.157   7.255  72.764  1.00  0.00    -0.137 C  
HETATM   52  H   UNL     1      -9.712   4.651  75.169  1.00  0.00     0.000 HD 
BRANCH  42  53
HETATM   53  C   UNL     1      -9.954   2.978  71.703  1.00  0.00    -0.088 C  
HETATM   54  O   UNL     1      -9.178   2.504  70.607  1.00  0.00    -0.108 OA 
HETATM   55  H   UNL     1      -9.330   1.583  70.430  1.00  0.00     0.000 HD 
ENDBRANCH  42  53
ENDBRANCH  39  41
ENDBRANCH  31  39
ENDBRANCH  27  28
ENDBRANCH  23  27
ENDBRANCH  13  14
ENDBRANCH   4  13
ENDBRANCH   1   4
BRANCH   1  56
HETATM   56  C   UNL     1     -11.924  15.836  64.596  1.00  0.00     0.015 C  
HETATM   57  O   UNL     1     -10.681  16.430  64.214  1.00  0.00    -0.877 OA 
HETATM   58  H   UNL     1     -10.852  17.130  63.594  1.00  0.00     0.000 HD 
ENDBRANCH   1  56
TORSDOF 12
ENDMDL
MODEL      161
REMARK 921   NORMALIZED FREE ENERGY PREDICTED BY IDOCK:   -4.23 KCAL/MOL
REMARK 922        TOTAL FREE ENERGY PREDICTED BY IDOCK:  -10.39 KCAL/MOL
REMARK 923 INTER-LIGAND FREE ENERGY PREDICTED BY IDOCK:   -9.59 KCAL/MOL
REMARK 924 INTRA-LIGAND FREE ENERGY PREDICTED BY IDOCK:   -0.80 KCAL/MOL
REMARK 927      BINDING AFFINITY PREDICTED BY RF-SCORE:    0.00 PKD
ROOT
HETATM    1  C   UNL     1     -11.093  14.916  65.981  1.00  0.00    -0.334 C  
HETATM    2  H   UNL     1     -12.758  14.365  65.155  1.00  0.00     0.000 HD 
HETATM    3  O   UNL     1     -11.902  14.623  64.834  1.00  0.00    -0.381 OA 
ENDROOT
BRANCH   1   4
HETATM    4  C   UNL     1     -11.044  13.740  67.001  1.00  0.00    -0.302 C  
BRANCH   4   5
HETATM    5  C   UNL     1     -11.211  14.218  68.478  1.00  0.00    -0.266 C  
HETATM    6  O   UNL     1     -12.210  13.452  69.169  1.00  0.00    -0.292 OA 
HETATM    7  H   UNL     1     -12.311  13.743  70.068  1.00  0.00     0.000 HD 
BRANCH   5   8
HETATM    8  C   UNL     1     -11.589  15.697  68.636  1.00  0.00    -0.382 C  
HETATM    9  C   UNL     1     -10.450  16.494  69.232  1.00  0.00    -0.326 C  
HETATM   10  O   UNL     1     -12.711  15.767  69.530  1.00  0.00    -0.508 OA 
HETATM   11  O   UNL     1      -9.594  17.046  68.544  1.00  0.00    -0.254 OA 
HETATM   12  H   UNL     1     -12.946  16.683  69.627  1.00  0.00     0.000 HD 
ENDBRANCH   5   8
ENDBRANCH   4   5
BRANCH   4  13
HETATM   13  O   UNL     1      -9.835  12.951  66.886  1.00  0.00    -0.224 OA 
BRANCH  13  14
HETATM   14  C   UNL     1      -9.015  12.925  68.066  1.00  0.00    -0.196 C  
HETATM   15  H   UNL     1      -5.694  11.394  66.461  1.00  0.00     0.000 HD 
HETATM   16  O   UNL     1      -6.955  13.465  66.780  1.00  0.00    -0.268 OA 
HETATM   17  C   UNL     1      -7.569  12.551  67.703  1.00  0.00    -0.145 C  
HETATM   18  O   UNL     1      -9.467  12.011  69.055  1.00  0.00     0.068 OA 
HETATM   19  O   UNL     1      -6.154  10.746  66.982  1.00  0.00    -0.059 OA 
HETATM   20  C   UNL     1      -9.551  10.656  68.602  1.00  0.00    -0.179 C  
HETATM   21  H   UNL     1      -6.061  13.233  66.555  1.00  0.00     0.000 HD 
HETATM   22  C   UNL     1      -7.533  11.155  67.096  1.00  0.00    -0.121 C  
HETATM   23  C   UNL     1      -8.276  10.106  67.938  1.00  0.00    -0.109 C  
BRANCH  20  24
HETATM   24  C   UNL     1      -9.999   9.797  69.807  1.00  0.00    -0.236 C  
HETATM   25  O   UNL     1      -9.173   9.945  70.963  1.00  0.00    -0.296 OA 
HETATM   26  H   UNL     1      -9.448   9.417  71.704  1.00  0.00     0.000 HD 
ENDBRANCH  20  24
BRANCH  23  27
HETATM   27  O   UNL     1      -8.703   8.986  67.113  1.00  0.00    -0.116 OA 
BRANCH  27  28
HETATM   28  C   UNL     1      -7.642   8.079  66.791  1.00  0.00    -0.094 C  
HETATM   29  O   UNL     1      -6.791   7.888  67.912  1.00  0.00    -0.068 OA 
HETATM   30  C   UNL     1      -7.485   7.335  69.033  1.00  0.00    -0.097 C  
HETATM   31  C   UNL     1      -7.968   5.904  68.687  1.00  0.00    -0.103 C  
HETATM   32  C   UNL     1      -6.512   7.423  70.207  1.00  0.00    -0.035 C  
HETATM   33  C   UNL     1      -8.884   5.968  67.434  1.00  0.00    -0.106 C  
HETATM   34  H   UNL     1      -9.721   4.686  66.173  1.00  0.00     0.000 HD 
HETATM   35  C   UNL     1      -8.209   6.739  66.297  1.00  0.00    -0.120 C  
HETATM   36  O   UNL     1      -9.162   4.646  66.940  1.00  0.00    -0.116 OA 
HETATM   37  O   UNL     1      -9.132   6.920  65.208  1.00  0.00    -0.356 OA 
HETATM   38  H   UNL     1      -9.482   6.092  64.902  1.00  0.00     0.000 HD 
BRANCH  31  39
HETATM   39  N   UNL     1      -8.609   5.288  69.875  1.00  0.00    -0.101 NA 
HETATM   40  H   UNL     1      -8.875   4.303  69.896  1.00  0.00     0.000 HD 
BRANCH  39  41
HETATM   41  C   UNL     1      -8.840   6.194  71.038  1.00  0.00    -0.139 C  
HETATM   42  C   UNL     1     -11.180   6.472  71.965  1.00  0.00    -0.312 C  
HETATM   43  C   UNL     1     -10.255   6.688  71.028  1.00  0.00    -0.214 C  
HETATM   44  C   UNL     1     -10.846   5.757  73.246  1.00  0.00    -0.272 C  
HETATM   45  H   UNL     1      -8.087   3.515  72.809  1.00  0.00     0.000 HD 
HETATM   46  O   UNL     1      -8.335   3.994  72.027  1.00  0.00    -0.095 OA 
HETATM   47  C   UNL     1      -9.335   5.596  73.554  1.00  0.00    -0.138 C  
HETATM   48  O   UNL     1     -11.493   4.488  73.216  1.00  0.00    -0.297 OA 
HETATM   49  H   UNL     1      -7.937   6.626  74.495  1.00  0.00     0.000 HD 
HETATM   50  O   UNL     1      -8.863   6.725  74.306  1.00  0.00    -0.149 OA 
HETATM   51  C   UNL     1      -8.433   5.405  72.327  1.00  0.00    -0.122 C  
HETATM   52  H   UNL     1     -11.282   4.037  74.025  1.00  0.00     0.000 HD 
BRANCH  42  53
HETATM   53  C   UNL     1     -12.623   6.901  71.819  1.00  0.00    -0.344 C  
HETATM   54  O   UNL     1     -12.985   7.124  70.460  1.00  0.00    -0.581 OA 
HETATM   55  H   UNL     1     -13.891   7.394  70.368  1.00  0.00     0.000 HD 
ENDBRANCH  42  53
ENDBRANCH  39  41
ENDBRANCH  31  39
ENDBRANCH  27  28
ENDBRANCH  23  27
ENDBRANCH  13  14
ENDBRANCH   4  13
ENDBRANCH   1   4
BRANCH   1  56
HETATM   56  C   UNL     1      -9.714  15.332  65.463  1.00  0.00    -0.278 C  
HETATM   57  O   UNL     1      -9.578  16.749  65.593  1.00  0.00    -0.527 OA 
HETATM   58  H   UNL     1      -8.721  17.007  65.272  1.00  0.00     0.000 HD 
ENDBRANCH   1  56
TORSDOF 12
ENDMDL
MODEL      162
REMARK 921   NORMALIZED FREE ENERGY PREDICTED BY IDOCK:   -4.22 KCAL/MOL
REMARK 922        TOTAL FREE ENERGY PREDICTED BY IDOCK:  -10.38 KCAL/MOL
REMARK 923 INTER-LIGAND FREE ENERGY PREDICTED BY IDOCK:   -8.06 KCAL/MOL
REMARK 924 INTRA-LIGAND FREE ENERGY PREDICTED BY IDOCK:   -2.32 KCAL/MOL
REMARK 927      BINDING AFFINITY PREDICTED BY RF-SCORE:    0.00 PKD
ROOT
HETATM    1  C   UNL     1     -11.440  14.896  65.623  1.00  0.00    -0.290 C  
HETATM    2  H   UNL     1     -13.364  14.788  65.838  1.00  0.00     0.000 HD 
HETATM    3  O   UNL     1     -12.725  14.366  65.274  1.00  0.00    -0.498 OA 
ENDROOT
BRANCH   1   4
HETATM    4  C   UNL     1     -11.119  14.751  67.141  1.00  0.00    -0.333 C  
BRANCH   4   5
HETATM    5  C   UNL     1     -10.007  15.738  67.617  1.00  0.00    -0.239 C  
HETATM    6  O   UNL     1      -8.908  15.040  68.221  1.00  0.00    -0.162 OA 
HETATM    7  H   UNL     1      -8.231  15.640  68.510  1.00  0.00     0.000 HD 
BRANCH   5   8
HETATM    8  C   UNL     1     -10.475  16.796  68.624  1.00  0.00    -0.333 C  
HETATM    9  C   UNL     1     -11.580  16.263  69.508  1.00  0.00    -0.169 C  
HETATM   10  O   UNL     1     -10.985  17.913  67.879  1.00  0.00    -0.294 OA 
HETATM   11  O   UNL     1     -11.362  15.702  70.580  1.00  0.00    -0.304 OA 
HETATM   12  H   UNL     1     -11.274  18.569  68.503  1.00  0.00     0.000 HD 
ENDBRANCH   5   8
ENDBRANCH   4   5
BRANCH   4  13
HETATM   13  O   UNL     1     -10.750  13.399  67.507  1.00  0.00    -0.250 OA 
BRANCH  13  14
HETATM   14  C   UNL     1     -11.838  12.459  67.527  1.00  0.00    -0.284 C  
HETATM   15  H   UNL     1     -11.551  11.282  71.332  1.00  0.00     0.000 HD 
HETATM   16  O   UNL     1     -12.437  13.033  69.872  1.00  0.00    -0.149 OA 
HETATM   17  C   UNL     1     -12.098  11.974  68.962  1.00  0.00    -0.166 C  
HETATM   18  O   UNL     1     -11.618  11.316  66.713  1.00  0.00    -0.433 OA 
HETATM   19  O   UNL     1     -11.220  10.616  70.741  1.00  0.00    -0.246 OA 
HETATM   20  C   UNL     1     -10.445  10.571  67.057  1.00  0.00    -0.249 C  
HETATM   21  H   UNL     1     -12.597  12.733  70.760  1.00  0.00     0.000 HD 
HETATM   22  C   UNL     1     -10.867  11.253  69.496  1.00  0.00    -0.151 C  
HETATM   23  C   UNL     1     -10.331  10.176  68.540  1.00  0.00    -0.180 C  
BRANCH  20  24
HETATM   24  C   UNL     1     -10.391   9.343  66.119  1.00  0.00    -0.092 C  
HETATM   25  O   UNL     1      -9.764   9.601  64.862  1.00  0.00    -0.417 OA 
HETATM   26  H   UNL     1      -9.730   8.846  64.286  1.00  0.00     0.000 HD 
ENDBRANCH  20  24
BRANCH  23  27
HETATM   27  O   UNL     1      -8.919   9.925  68.782  1.00  0.00    -0.130 OA 
BRANCH  27  28
HETATM   28  C   UNL     1      -8.681   8.955  69.809  1.00  0.00    -0.139 C  
HETATM   29  O   UNL     1      -9.397   7.759  69.543  1.00  0.00    -0.150 OA 
HETATM   30  C   UNL     1      -9.009   7.157  68.306  1.00  0.00    -0.125 C  
HETATM   31  C   UNL     1      -7.533   6.692  68.399  1.00  0.00    -0.095 C  
HETATM   32  C   UNL     1     -10.022   6.044  68.051  1.00  0.00    -0.162 C  
HETATM   33  C   UNL     1      -6.637   7.915  68.736  1.00  0.00    -0.053 C  
HETATM   34  H   UNL     1      -4.754   8.240  69.268  1.00  0.00     0.000 HD 
HETATM   35  C   UNL     1      -7.176   8.676  69.949  1.00  0.00    -0.051 C  
HETATM   36  O   UNL     1      -5.302   7.492  69.062  1.00  0.00    -0.018 OA 
HETATM   37  O   UNL     1      -6.425   9.887  70.146  1.00  0.00    -0.067 OA 
HETATM   38  H   UNL     1      -5.495   9.714  70.233  1.00  0.00     0.000 HD 
BRANCH  31  39
HETATM   39  N   UNL     1      -7.150   5.984  67.152  1.00  0.00    -0.069 NA 
HETATM   40  H   UNL     1      -7.264   6.409  66.232  1.00  0.00     0.000 HD 
BRANCH  39  41
HETATM   41  C   UNL     1      -6.588   4.612  67.325  1.00  0.00    -0.047 C  
HETATM   42  C   UNL     1      -7.723   2.980  68.893  1.00  0.00    -0.047 C  
HETATM   43  C   UNL     1      -6.979   4.063  68.663  1.00  0.00    -0.047 C  
HETATM   44  C   UNL     1      -8.183   2.092  67.768  1.00  0.00    -0.065 C  
HETATM   45  H   UNL     1      -8.454   3.913  64.696  1.00  0.00     0.000 HD 
HETATM   46  O   UNL     1      -8.163   4.431  65.438  1.00  0.00    -0.107 OA 
HETATM   47  C   UNL     1      -7.478   2.311  66.405  1.00  0.00    -0.066 C  
HETATM   48  O   UNL     1      -9.593   2.253  67.638  1.00  0.00    -0.393 OA 
HETATM   49  H   UNL     1      -5.884   1.605  65.476  1.00  0.00     0.000 HD 
HETATM   50  O   UNL     1      -6.316   1.471  66.312  1.00  0.00    -0.022 OA 
HETATM   51  C   UNL     1      -7.069   3.760  66.103  1.00  0.00    -0.063 C  
HETATM   52  H   UNL     1      -9.884   1.693  66.928  1.00  0.00     0.000 HD 
BRANCH  42  53
HETATM   53  C   UNL     1      -8.177   2.564  70.274  1.00  0.00    -0.041 C  
HETATM   54  O   UNL     1      -9.511   2.977  70.551  1.00  0.00    -0.150 OA 
HETATM   55  H   UNL     1      -9.796   2.716  71.419  1.00  0.00     0.000 HD 
ENDBRANCH  42  53
ENDBRANCH  39  41
ENDBRANCH  31  39
ENDBRANCH  27  28
ENDBRANCH  23  27
ENDBRANCH  13  14
ENDBRANCH   4  13
ENDBRANCH   1   4
BRANCH   1  56
HETATM   56  C   UNL     1     -10.412  14.215  64.716  1.00  0.00    -0.408 C  
HETATM   57  O   UNL     1      -9.185  14.069  65.434  1.00  0.00    -0.304 OA 
HETATM   58  H   UNL     1      -8.547  13.646  64.871  1.00  0.00     0.000 HD 
ENDBRANCH   1  56
TORSDOF 12
ENDMDL
MODEL      163
REMARK 921   NORMALIZED FREE ENERGY PREDICTED BY IDOCK:   -4.22 KCAL/MOL
REMARK 922        TOTAL FREE ENERGY PREDICTED BY IDOCK:  -10.38 KCAL/MOL
REMARK 923 INTER-LIGAND FREE ENERGY PREDICTED BY IDOCK:  -10.10 KCAL/MOL
REMARK 924 INTRA-LIGAND FREE ENERGY PREDICTED BY IDOCK:   -0.28 KCAL/MOL
REMARK 927      BINDING AFFINITY PREDICTED BY RF-SCORE:    0.00 PKD
ROOT
HETATM    1  C   UNL     1      -9.704   6.261  71.337  1.00  0.00    -0.173 C  
HETATM    2  H   UNL     1     -10.455   5.852  69.597  1.00  0.00     0.000 HD 
HETATM    3  O   UNL     1     -10.417   5.405  70.435  1.00  0.00    -0.266 OA 
ENDROOT
BRANCH   1   4
HETATM    4  C   UNL     1     -10.319   7.691  71.423  1.00  0.00    -0.196 C  
BRANCH   4   5
HETATM    5  C   UNL     1     -11.658   7.818  70.631  1.00  0.00    -0.218 C  
HETATM    6  O   UNL     1     -11.665   8.983  69.792  1.00  0.00    -0.427 OA 
HETATM    7  H   UNL     1     -12.480   9.060  69.310  1.00  0.00     0.000 HD 
BRANCH   5   8
HETATM    8  C   UNL     1     -12.918   7.886  71.505  1.00  0.00    -0.311 C  
HETATM    9  C   UNL     1     -12.939   9.146  72.340  1.00  0.00    -0.398 C  
HETATM   10  O   UNL     1     -12.899   6.753  72.387  1.00  0.00    -0.518 OA 
HETATM   11  O   UNL     1     -13.456  10.192  71.953  1.00  0.00    -0.385 OA 
HETATM   12  H   UNL     1     -13.679   6.795  72.928  1.00  0.00     0.000 HD 
ENDBRANCH   5   8
ENDBRANCH   4   5
BRANCH   4  13
HETATM   13  O   UNL     1      -9.401   8.721  70.983  1.00  0.00    -0.181 OA 
BRANCH  13  14
HETATM   14  C   UNL     1      -8.327   8.258  70.148  1.00  0.00    -0.124 C  
HETATM   15  H   UNL     1      -5.646  11.098  70.983  1.00  0.00     0.000 HD 
HETATM   16  O   UNL     1      -6.597   8.990  71.779  1.00  0.00    -0.163 OA 
HETATM   17  C   UNL     1      -7.051   9.073  70.419  1.00  0.00    -0.065 C  
HETATM   18  O   UNL     1      -8.609   8.338  68.758  1.00  0.00    -0.131 OA 
HETATM   19  O   UNL     1      -6.024  11.225  70.120  1.00  0.00    -0.111 OA 
HETATM   20  C   UNL     1      -8.924   9.657  68.302  1.00  0.00    -0.123 C  
HETATM   21  H   UNL     1      -5.809   9.494  71.946  1.00  0.00     0.000 HD 
HETATM   22  C   UNL     1      -7.291  10.537  70.077  1.00  0.00    -0.052 C  
HETATM   23  C   UNL     1      -7.903  10.744  68.683  1.00  0.00    -0.122 C  
BRANCH  20  24
HETATM   24  C   UNL     1      -9.145   9.573  66.774  1.00  0.00    -0.146 C  
HETATM   25  O   UNL     1     -10.201  10.408  66.294  1.00  0.00    -0.225 OA 
HETATM   26  H   UNL     1     -10.336  10.356  65.355  1.00  0.00     0.000 HD 
ENDBRANCH  20  24
BRANCH  23  27
HETATM   27  O   UNL     1      -8.617  12.010  68.613  1.00  0.00    -0.116 OA 
BRANCH  27  28
HETATM   28  C   UNL     1      -8.271  12.797  67.467  1.00  0.00    -0.179 C  
HETATM   29  O   UNL     1      -9.436  13.167  66.745  1.00  0.00    -0.239 OA 
HETATM   30  C   UNL     1     -10.336  13.953  67.531  1.00  0.00    -0.245 C  
HETATM   31  C   UNL     1      -9.669  15.308  67.879  1.00  0.00    -0.211 C  
HETATM   32  C   UNL     1     -11.620  14.055  66.712  1.00  0.00    -0.406 C  
HETATM   33  C   UNL     1      -8.343  15.038  68.641  1.00  0.00    -0.166 C  
HETATM   34  H   UNL     1      -6.768  16.085  69.241  1.00  0.00     0.000 HD 
HETATM   35  C   UNL     1      -7.466  14.037  67.886  1.00  0.00    -0.149 C  
HETATM   36  O   UNL     1      -7.579  16.250  68.775  1.00  0.00    -0.173 OA 
HETATM   37  O   UNL     1      -6.321  13.685  68.682  1.00  0.00    -0.080 OA 
HETATM   38  H   UNL     1      -5.823  14.451  68.942  1.00  0.00     0.000 HD 
BRANCH  31  39
HETATM   39  N   UNL     1     -10.629  16.166  68.616  1.00  0.00    -0.266 NA 
HETATM   40  H   UNL     1     -11.231  15.794  69.352  1.00  0.00     0.000 HD 
BRANCH  39  41
HETATM   41  C   UNL     1     -10.664  17.603  68.217  1.00  0.00    -0.280 C  
HETATM   42  C   UNL     1      -8.541  18.980  68.308  1.00  0.00    -0.366 C  
HETATM   43  C   UNL     1      -9.557  18.349  68.899  1.00  0.00    -0.284 C  
HETATM   44  C   UNL     1      -8.456  19.099  66.810  1.00  0.00    -0.303 C  
HETATM   45  H   UNL     1     -10.160  16.398  65.189  1.00  0.00     0.000 HD 
HETATM   46  O   UNL     1     -10.188  16.369  66.138  1.00  0.00    -0.315 OA 
HETATM   47  C   UNL     1      -9.753  18.756  66.032  1.00  0.00    -0.139 C  
HETATM   48  O   UNL     1      -7.374  18.282  66.370  1.00  0.00    -0.218 OA 
HETATM   49  H   UNL     1     -11.350  19.727  65.394  1.00  0.00     0.000 HD 
HETATM   50  O   UNL     1     -10.556  19.937  65.871  1.00  0.00    -0.496 OA 
HETATM   51  C   UNL     1     -10.617  17.650  66.654  1.00  0.00    -0.211 C  
HETATM   52  H   UNL     1      -7.321  18.357  65.424  1.00  0.00     0.000 HD 
BRANCH  42  53
HETATM   53  C   UNL     1      -7.395  19.604  69.073  1.00  0.00    -0.328 C  
HETATM   54  O   UNL     1      -6.231  18.785  69.065  1.00  0.00    -0.224 OA 
HETATM   55  H   UNL     1      -5.511  19.177  69.546  1.00  0.00     0.000 HD 
ENDBRANCH  42  53
ENDBRANCH  39  41
ENDBRANCH  31  39
ENDBRANCH  27  28
ENDBRANCH  23  27
ENDBRANCH  13  14
ENDBRANCH   4  13
ENDBRANCH   1   4
BRANCH   1  56
HETATM   56  C   UNL     1      -9.643   5.542  72.686  1.00  0.00    -0.150 C  
HETATM   57  O   UNL     1     -10.213   6.388  73.688  1.00  0.00    -0.217 OA 
HETATM   58  H   UNL     1     -10.176   5.941  74.526  1.00  0.00     0.000 HD 
ENDBRANCH   1  56
TORSDOF 12
ENDMDL
MODEL      164
REMARK 921   NORMALIZED FREE ENERGY PREDICTED BY IDOCK:   -4.22 KCAL/MOL
REMARK 922        TOTAL FREE ENERGY PREDICTED BY IDOCK:  -10.37 KCAL/MOL
REMARK 923 INTER-LIGAND FREE ENERGY PREDICTED BY IDOCK:   -8.43 KCAL/MOL
REMARK 924 INTRA-LIGAND FREE ENERGY PREDICTED BY IDOCK:   -1.94 KCAL/MOL
REMARK 927      BINDING AFFINITY PREDICTED BY RF-SCORE:    0.00 PKD
ROOT
HETATM    1  C   UNL     1     -11.694  13.891  66.458  1.00  0.00    -0.393 C  
HETATM    2  H   UNL     1     -10.930  15.168  67.700  1.00  0.00     0.000 HD 
HETATM    3  O   UNL     1     -11.706  15.146  67.152  1.00  0.00    -0.275 OA 
ENDROOT
BRANCH   1   4
HETATM    4  C   UNL     1     -11.578  12.671  67.419  1.00  0.00    -0.360 C  
BRANCH   4   5
HETATM    5  C   UNL     1     -11.285  13.093  68.893  1.00  0.00    -0.277 C  
HETATM    6  O   UNL     1      -9.913  13.479  69.067  1.00  0.00    -0.423 OA 
HETATM    7  H   UNL     1      -9.735  13.737  69.964  1.00  0.00     0.000 HD 
BRANCH   5   8
HETATM    8  C   UNL     1     -11.584  12.015  69.943  1.00  0.00    -0.238 C  
HETATM    9  C   UNL     1     -12.015  10.720  69.292  1.00  0.00    -0.263 C  
HETATM   10  O   UNL     1     -12.661  12.493  70.765  1.00  0.00    -0.304 OA 
HETATM   11  O   UNL     1     -11.220   9.836  68.978  1.00  0.00    -0.155 OA 
HETATM   12  H   UNL     1     -12.846  11.825  71.415  1.00  0.00     0.000 HD 
ENDBRANCH   5   8
ENDBRANCH   4   5
BRANCH   4  13
HETATM   13  O   UNL     1     -10.581  11.713  66.988  1.00  0.00    -0.218 OA 
BRANCH  13  14
HETATM   14  C   UNL     1      -9.643  12.211  66.019  1.00  0.00    -0.231 C  
HETATM   15  H   UNL     1      -8.522   8.728  64.419  1.00  0.00     0.000 HD 
HETATM   16  O   UNL     1     -10.252  10.455  64.364  1.00  0.00    -0.333 OA 
HETATM   17  C   UNL     1      -9.179  11.074  65.092  1.00  0.00    -0.205 C  
HETATM   18  O   UNL     1      -8.488  12.802  66.595  1.00  0.00    -0.094 OA 
HETATM   19  O   UNL     1      -7.846   9.077  64.989  1.00  0.00    -0.105 OA 
HETATM   20  C   UNL     1      -7.747  11.925  67.449  1.00  0.00    -0.158 C  
HETATM   21  H   UNL     1      -9.965   9.753  63.792  1.00  0.00     0.000 HD 
HETATM   22  C   UNL     1      -8.465  10.003  65.905  1.00  0.00    -0.133 C  
HETATM   23  C   UNL     1      -7.373  10.567  66.828  1.00  0.00    -0.114 C  
BRANCH  20  24
HETATM   24  C   UNL     1      -6.505  12.704  67.940  1.00  0.00    -0.113 C  
HETATM   25  O   UNL     1      -5.391  12.643  67.047  1.00  0.00    -0.339 OA 
HETATM   26  H   UNL     1      -4.628  13.122  67.349  1.00  0.00     0.000 HD 
ENDBRANCH  20  24
BRANCH  23  27
HETATM   27  O   UNL     1      -7.124   9.668  67.945  1.00  0.00    -0.079 OA 
BRANCH  27  28
HETATM   28  C   UNL     1      -5.762   9.233  68.032  1.00  0.00    -0.038 C  
HETATM   29  O   UNL     1      -5.168   9.687  69.239  1.00  0.00    -0.036 OA 
HETATM   30  C   UNL     1      -5.839   9.185  70.397  1.00  0.00    -0.036 C  
HETATM   31  C   UNL     1      -5.677   7.645  70.462  1.00  0.00    -0.026 C  
HETATM   32  C   UNL     1      -5.249   9.947  71.581  1.00  0.00    -0.076 C  
HETATM   33  C   UNL     1      -6.254   7.021  69.162  1.00  0.00    -0.031 C  
HETATM   34  H   UNL     1      -6.266   5.245  68.278  1.00  0.00     0.000 HD 
HETATM   35  C   UNL     1      -5.676   7.703  67.919  1.00  0.00    -0.036 C  
HETATM   36  O   UNL     1      -5.913   5.626  69.074  1.00  0.00    -0.021 OA 
HETATM   37  O   UNL     1      -6.338   7.218  66.737  1.00  0.00    -0.044 OA 
HETATM   38  H   UNL     1      -6.286   6.272  66.667  1.00  0.00     0.000 HD 
BRANCH  31  39
HETATM   39  N   UNL     1      -6.292   7.126  71.708  1.00  0.00    -0.041 NA 
HETATM   40  H   UNL     1      -5.777   6.531  72.357  1.00  0.00     0.000 HD 
BRANCH  39  41
HETATM   41  C   UNL     1      -7.707   7.527  71.957  1.00  0.00    -0.089 C  
HETATM   42  C   UNL     1      -9.580   6.327  70.748  1.00  0.00    -0.193 C  
HETATM   43  C   UNL     1      -8.554   7.178  70.770  1.00  0.00    -0.146 C  
HETATM   44  C   UNL     1     -10.085   5.674  72.006  1.00  0.00    -0.185 C  
HETATM   45  H   UNL     1      -7.490   5.387  74.458  1.00  0.00     0.000 HD 
HETATM   46  O   UNL     1      -7.222   5.798  73.644  1.00  0.00    -0.085 OA 
HETATM   47  C   UNL     1      -9.580   6.291  73.335  1.00  0.00    -0.149 C  
HETATM   48  O   UNL     1      -9.758   4.288  71.936  1.00  0.00    -0.149 OA 
HETATM   49  H   UNL     1     -10.163   7.707  74.581  1.00  0.00     0.000 HD 
HETATM   50  O   UNL     1     -10.473   7.329  73.766  1.00  0.00    -0.370 OA 
HETATM   51  C   UNL     1      -8.150   6.850  73.297  1.00  0.00    -0.101 C  
HETATM   52  H   UNL     1     -10.076   3.876  72.731  1.00  0.00     0.000 HD 
BRANCH  42  53
HETATM   53  C   UNL     1     -10.305   5.936  69.479  1.00  0.00    -0.248 C  
HETATM   54  O   UNL     1     -11.032   7.023  68.916  1.00  0.00    -0.377 OA 
HETATM   55  H   UNL     1     -11.488   6.777  68.119  1.00  0.00     0.000 HD 
ENDBRANCH  42  53
ENDBRANCH  39  41
ENDBRANCH  31  39
ENDBRANCH  27  28
ENDBRANCH  23  27
ENDBRANCH  13  14
ENDBRANCH   4  13
ENDBRANCH   1   4
BRANCH   1  56
HETATM   56  C   UNL     1     -12.945  13.854  65.576  1.00  0.00    -0.332 C  
HETATM   57  O   UNL     1     -12.921  12.661  64.788  1.00  0.00    -0.816 OA 
HETATM   58  H   UNL     1     -13.698  12.638  64.241  1.00  0.00     0.000 HD 
ENDBRANCH   1  56
TORSDOF 12
ENDMDL
MODEL      165
REMARK 921   NORMALIZED FREE ENERGY PREDICTED BY IDOCK:   -4.17 KCAL/MOL
REMARK 922        TOTAL FREE ENERGY PREDICTED BY IDOCK:  -10.29 KCAL/MOL
REMARK 923 INTER-LIGAND FREE ENERGY PREDICTED BY IDOCK:   -7.78 KCAL/MOL
REMARK 924 INTRA-LIGAND FREE ENERGY PREDICTED BY IDOCK:   -2.52 KCAL/MOL
REMARK 927      BINDING AFFINITY PREDICTED BY RF-SCORE:    0.00 PKD
ROOT
HETATM    1  C   UNL     1      -9.478  15.448  68.489  1.00  0.00    -0.202 C  
HETATM    2  H   UNL     1     -10.413  17.070  67.986  1.00  0.00     0.000 HD 
HETATM    3  O   UNL     1      -9.505  16.788  67.980  1.00  0.00    -0.227 OA 
ENDROOT
BRANCH   1   4
HETATM    4  C   UNL     1     -10.432  14.489  67.716  1.00  0.00    -0.242 C  
BRANCH   4   5
HETATM    5  C   UNL     1     -11.873  14.463  68.315  1.00  0.00    -0.326 C  
HETATM    6  O   UNL     1     -12.258  15.751  68.817  1.00  0.00    -0.560 OA 
HETATM    7  H   UNL     1     -13.135  15.735  69.182  1.00  0.00     0.000 HD 
BRANCH   5   8
HETATM    8  C   UNL     1     -12.077  13.457  69.456  1.00  0.00    -0.278 C  
HETATM    9  C   UNL     1     -12.434  14.158  70.748  1.00  0.00    -0.366 C  
HETATM   10  O   UNL     1     -10.838  12.754  69.645  1.00  0.00    -0.440 OA 
HETATM   11  O   UNL     1     -13.595  14.388  71.080  1.00  0.00    -0.356 OA 
HETATM   12  H   UNL     1     -10.965  12.131  70.351  1.00  0.00     0.000 HD 
ENDBRANCH   5   8
ENDBRANCH   4   5
BRANCH   4  13
HETATM   13  O   UNL     1      -9.920  13.136  67.636  1.00  0.00    -0.211 OA 
BRANCH  13  14
HETATM   14  C   UNL     1      -9.831  12.601  66.306  1.00  0.00    -0.262 C  
HETATM   15  H   UNL     1     -11.965   9.269  66.852  1.00  0.00     0.000 HD 
HETATM   16  O   UNL     1     -12.135  11.668  66.408  1.00  0.00    -0.371 OA 
HETATM   17  C   UNL     1     -10.750  11.377  66.161  1.00  0.00    -0.267 C  
HETATM   18  O   UNL     1      -8.518  12.205  65.936  1.00  0.00     0.220 OA 
HETATM   19  O   UNL     1     -11.036   9.077  66.800  1.00  0.00    -0.012 OA 
HETATM   20  C   UNL     1      -7.940  11.221  66.799  1.00  0.00    -0.159 C  
HETATM   21  H   UNL     1     -12.703  10.911  66.319  1.00  0.00     0.000 HD 
HETATM   22  C   UNL     1     -10.308  10.281  67.121  1.00  0.00    -0.238 C  
HETATM   23  C   UNL     1      -8.805   9.970  67.037  1.00  0.00    -0.138 C  
BRANCH  20  24
HETATM   24  C   UNL     1      -6.549  10.867  66.225  1.00  0.00    -0.126 C  
HETATM   25  O   UNL     1      -5.877   9.824  66.934  1.00  0.00    -0.050 OA 
HETATM   26  H   UNL     1      -5.022   9.607  66.581  1.00  0.00     0.000 HD 
ENDBRANCH  20  24
BRANCH  23  27
HETATM   27  O   UNL     1      -8.329   9.381  68.280  1.00  0.00    -0.117 OA 
BRANCH  27  28
HETATM   28  C   UNL     1      -8.395  10.277  69.397  1.00  0.00    -0.161 C  
HETATM   29  O   UNL     1      -9.665  10.198  70.026  1.00  0.00    -0.213 OA 
HETATM   30  C   UNL     1      -9.943   8.888  70.527  1.00  0.00    -0.201 C  
HETATM   31  C   UNL     1      -8.945   8.548  71.663  1.00  0.00    -0.219 C  
HETATM   32  C   UNL     1     -11.412   8.906  70.941  1.00  0.00    -0.339 C  
HETATM   33  C   UNL     1      -7.497   8.644  71.111  1.00  0.00    -0.095 C  
HETATM   34  H   UNL     1      -5.653   8.628  71.843  1.00  0.00     0.000 HD 
HETATM   35  C   UNL     1      -7.267   9.978  70.396  1.00  0.00    -0.108 C  
HETATM   36  O   UNL     1      -6.539   8.568  72.181  1.00  0.00    -0.075 OA 
HETATM   37  O   UNL     1      -5.976   9.980  69.760  1.00  0.00    -0.040 OA 
HETATM   38  H   UNL     1      -5.279   9.796  70.377  1.00  0.00     0.000 HD 
BRANCH  31  39
HETATM   39  N   UNL     1      -9.284   7.228  72.251  1.00  0.00    -0.131 NA 
HETATM   40  H   UNL     1      -9.402   7.099  73.257  1.00  0.00     0.000 HD 
BRANCH  39  41
HETATM   41  C   UNL     1      -9.443   6.102  71.286  1.00  0.00    -0.163 C  
HETATM   42  C   UNL     1      -7.568   5.561  69.672  1.00  0.00    -0.071 C  
HETATM   43  C   UNL     1      -8.575   6.331  70.085  1.00  0.00    -0.134 C  
HETATM   44  C   UNL     1      -7.250   4.256  70.350  1.00  0.00    -0.042 C  
HETATM   45  H   UNL     1      -8.282   4.282  73.780  1.00  0.00     0.000 HD 
HETATM   46  O   UNL     1      -8.464   5.085  73.306  1.00  0.00    -0.110 OA 
HETATM   47  C   UNL     1      -8.341   3.710  71.308  1.00  0.00    -0.068 C  
HETATM   48  O   UNL     1      -6.011   4.413  71.035  1.00  0.00    -0.016 OA 
HETATM   49  H   UNL     1      -9.923   2.537  71.172  1.00  0.00     0.000 HD 
HETATM   50  O   UNL     1      -9.256   2.871  70.585  1.00  0.00    -0.111 OA 
HETATM   51  C   UNL     1      -9.141   4.779  72.066  1.00  0.00    -0.128 C  
HETATM   52  H   UNL     1      -5.810   3.589  71.463  1.00  0.00     0.000 HD 
BRANCH  42  53
HETATM   53  C   UNL     1      -6.661   5.930  68.519  1.00  0.00    -0.057 C  
HETATM   54  O   UNL     1      -7.349   6.650  67.501  1.00  0.00    -0.090 OA 
HETATM   55  H   UNL     1      -6.779   6.882  66.777  1.00  0.00     0.000 HD 
ENDBRANCH  42  53
ENDBRANCH  39  41
ENDBRANCH  31  39
ENDBRANCH  27  28
ENDBRANCH  23  27
ENDBRANCH  13  14
ENDBRANCH   4  13
ENDBRANCH   1   4
BRANCH   1  56
HETATM   56  C   UNL     1      -8.017  14.993  68.478  1.00  0.00    -0.144 C  
HETATM   57  O   UNL     1      -7.849  13.951  69.443  1.00  0.00    -0.335 OA 
HETATM   58  H   UNL     1      -6.941  13.668  69.436  1.00  0.00     0.000 HD 
ENDBRANCH   1  56
TORSDOF 12
ENDMDL
MODEL      166
REMARK 921   NORMALIZED FREE ENERGY PREDICTED BY IDOCK:   -4.16 KCAL/MOL
REMARK 922        TOTAL FREE ENERGY PREDICTED BY IDOCK:  -10.27 KCAL/MOL
REMARK 923 INTER-LIGAND FREE ENERGY PREDICTED BY IDOCK:  -10.04 KCAL/MOL
REMARK 924 INTRA-LIGAND FREE ENERGY PREDICTED BY IDOCK:   -0.24 KCAL/MOL
REMARK 927      BINDING AFFINITY PREDICTED BY RF-SCORE:    0.00 PKD
ROOT
HETATM    1  C   UNL     1      -9.973  16.810  68.781  1.00  0.00    -0.269 C  
HETATM    2  H   UNL     1      -8.065  16.828  69.124  1.00  0.00     0.000 HD 
HETATM    3  O   UNL     1      -8.797  16.302  69.424  1.00  0.00    -0.204 OA 
ENDROOT
BRANCH   1   4
HETATM    4  C   UNL     1      -9.839  16.858  67.229  1.00  0.00    -0.265 C  
BRANCH   4   5
HETATM    5  C   UNL     1     -10.201  18.256  66.638  1.00  0.00    -0.384 C  
HETATM    6  O   UNL     1     -10.681  18.149  65.289  1.00  0.00    -0.605 OA 
HETATM    7  H   UNL     1     -10.902  19.000  64.929  1.00  0.00     0.000 HD 
BRANCH   5   8
HETATM    8  C   UNL     1      -9.047  19.268  66.625  1.00  0.00    -0.338 C  
HETATM    9  C   UNL     1      -9.564  20.689  66.608  1.00  0.00    -0.150 C  
HETATM   10  O   UNL     1      -8.284  19.045  65.428  1.00  0.00    -0.089 OA 
HETATM   11  O   UNL     1      -9.781  21.330  67.635  1.00  0.00    -0.196 OA 
HETATM   12  H   UNL     1      -7.570  19.671  65.420  1.00  0.00     0.000 HD 
ENDBRANCH   5   8
ENDBRANCH   4   5
BRANCH   4  13
HETATM   13  O   UNL     1     -10.627  15.838  66.568  1.00  0.00    -0.306 OA 
BRANCH  13  14
HETATM   14  C   UNL     1      -9.880  14.951  65.720  1.00  0.00    -0.348 C  
HETATM   15  H   UNL     1     -12.712  12.213  65.065  1.00  0.00     0.000 HD 
HETATM   16  O   UNL     1     -11.880  14.398  64.348  1.00  0.00    -0.482 OA 
HETATM   17  C   UNL     1     -10.802  13.868  65.136  1.00  0.00    -0.358 C  
HETATM   18  O   UNL     1      -8.806  14.298  66.383  1.00  0.00    -0.139 OA 
HETATM   19  O   UNL     1     -12.060  11.892  65.676  1.00  0.00    -0.439 OA 
HETATM   20  C   UNL     1      -9.206  13.520  67.516  1.00  0.00    -0.219 C  
HETATM   21  H   UNL     1     -12.450  13.729  63.988  1.00  0.00     0.000 HD 
HETATM   22  C   UNL     1     -11.392  13.029  66.261  1.00  0.00    -0.317 C  
HETATM   23  C   UNL     1     -10.337  12.510  67.250  1.00  0.00    -0.220 C  
BRANCH  20  24
HETATM   24  C   UNL     1      -7.936  12.840  68.077  1.00  0.00    -0.160 C  
HETATM   25  O   UNL     1      -6.788  13.690  68.104  1.00  0.00    -0.091 OA 
HETATM   26  H   UNL     1      -6.007  13.272  68.449  1.00  0.00     0.000 HD 
ENDBRANCH  20  24
BRANCH  23  27
HETATM   27  O   UNL     1     -10.936  12.227  68.546  1.00  0.00    -0.216 OA 
BRANCH  27  28
HETATM   28  C   UNL     1     -11.932  11.198  68.500  1.00  0.00    -0.180 C  
HETATM   29  O   UNL     1     -11.626  10.250  67.489  1.00  0.00    -0.255 OA 
HETATM   30  C   UNL     1     -10.371   9.603  67.714  1.00  0.00    -0.236 C  
HETATM   31  C   UNL     1     -10.452   8.752  69.007  1.00  0.00    -0.203 C  
HETATM   32  C   UNL     1     -10.077   8.816  66.439  1.00  0.00    -0.313 C  
HETATM   33  C   UNL     1     -10.831   9.676  70.197  1.00  0.00    -0.280 C  
HETATM   34  H   UNL     1     -11.379   9.461  72.091  1.00  0.00     0.000 HD 
HETATM   35  C   UNL     1     -12.067  10.517  69.871  1.00  0.00    -0.245 C  
HETATM   36  O   UNL     1     -11.147   8.896  71.364  1.00  0.00    -0.257 OA 
HETATM   37  O   UNL     1     -12.305  11.472  70.920  1.00  0.00    -0.377 OA 
HETATM   38  H   UNL     1     -12.389  11.051  71.767  1.00  0.00     0.000 HD 
BRANCH  31  39
HETATM   39  N   UNL     1      -9.185   8.005  69.198  1.00  0.00    -0.151 NA 
HETATM   40  H   UNL     1      -8.273   8.454  69.101  1.00  0.00     0.000 HD 
BRANCH  39  41
HETATM   41  C   UNL     1      -9.322   6.559  69.540  1.00  0.00    -0.147 C  
HETATM   42  C   UNL     1      -8.338   4.808  67.998  1.00  0.00    -0.102 C  
HETATM   43  C   UNL     1      -9.256   5.730  68.293  1.00  0.00    -0.119 C  
HETATM   44  C   UNL     1      -7.277   4.413  68.989  1.00  0.00    -0.052 C  
HETATM   45  H   UNL     1      -6.561   7.081  71.267  1.00  0.00     0.000 HD 
HETATM   46  O   UNL     1      -7.229   7.281  70.622  1.00  0.00    -0.064 OA 
HETATM   47  C   UNL     1      -7.513   4.876  70.450  1.00  0.00    -0.058 C  
HETATM   48  O   UNL     1      -6.028   4.895  68.502  1.00  0.00    -0.023 OA 
HETATM   49  H   UNL     1      -8.402   4.163  72.062  1.00  0.00     0.000 HD 
HETATM   50  O   UNL     1      -8.258   3.879  71.167  1.00  0.00    -0.069 OA 
HETATM   51  C   UNL     1      -8.221   6.230  70.602  1.00  0.00    -0.125 C  
HETATM   52  H   UNL     1      -5.358   4.646  69.128  1.00  0.00     0.000 HD 
BRANCH  42  53
HETATM   53  C   UNL     1      -8.272   4.103  66.661  1.00  0.00    -0.101 C  
HETATM   54  O   UNL     1      -9.023   2.893  66.651  1.00  0.00    -0.140 OA 
HETATM   55  H   UNL     1      -8.980   2.451  65.811  1.00  0.00     0.000 HD 
ENDBRANCH  42  53
ENDBRANCH  39  41
ENDBRANCH  31  39
ENDBRANCH  27  28
ENDBRANCH  23  27
ENDBRANCH  13  14
ENDBRANCH   4  13
ENDBRANCH   1   4
BRANCH   1  56
HETATM   56  C   UNL     1     -11.152  15.961  69.264  1.00  0.00    -0.312 C  
HETATM   57  O   UNL     1     -10.743  15.211  70.411  1.00  0.00    -0.430 OA 
HETATM   58  H   UNL     1     -11.475  14.684  70.711  1.00  0.00     0.000 HD 
ENDBRANCH   1  56
TORSDOF 12
ENDMDL
MODEL      167
REMARK 921   NORMALIZED FREE ENERGY PREDICTED BY IDOCK:   -4.15 KCAL/MOL
REMARK 922        TOTAL FREE ENERGY PREDICTED BY IDOCK:  -10.25 KCAL/MOL
REMARK 923 INTER-LIGAND FREE ENERGY PREDICTED BY IDOCK:   -7.91 KCAL/MOL
REMARK 924 INTRA-LIGAND FREE ENERGY PREDICTED BY IDOCK:   -2.34 KCAL/MOL
REMARK 927      BINDING AFFINITY PREDICTED BY RF-SCORE:    0.00 PKD
ROOT
HETATM    1  C   UNL     1     -11.417  14.905  65.839  1.00  0.00    -0.276 C  
HETATM    2  H   UNL     1     -13.062  14.148  65.147  1.00  0.00     0.000 HD 
HETATM    3  O   UNL     1     -12.244  14.443  64.763  1.00  0.00    -0.423 OA 
ENDROOT
BRANCH   1   4
HETATM    4  C   UNL     1     -11.228  13.837  66.957  1.00  0.00    -0.311 C  
BRANCH   4   5
HETATM    5  C   UNL     1     -11.389  14.434  68.391  1.00  0.00    -0.287 C  
HETATM    6  O   UNL     1     -12.570  13.936  69.038  1.00  0.00    -0.372 OA 
HETATM    7  H   UNL     1     -12.667  14.299  69.911  1.00  0.00     0.000 HD 
BRANCH   5   8
HETATM    8  C   UNL     1     -11.457  15.965  68.447  1.00  0.00    -0.348 C  
HETATM    9  C   UNL     1     -10.153  16.556  68.935  1.00  0.00    -0.266 C  
HETATM   10  O   UNL     1     -12.495  16.323  69.373  1.00  0.00    -0.364 OA 
HETATM   11  O   UNL     1      -9.241  16.875  68.174  1.00  0.00    -0.223 OA 
HETATM   12  H   UNL     1     -12.537  17.271  69.407  1.00  0.00     0.000 HD 
ENDBRANCH   5   8
ENDBRANCH   4   5
BRANCH   4  13
HETATM   13  O   UNL     1      -9.957  13.149  66.864  1.00  0.00    -0.235 OA 
BRANCH  13  14
HETATM   14  C   UNL     1      -9.182  13.143  68.074  1.00  0.00    -0.211 C  
HETATM   15  H   UNL     1      -5.532  13.219  66.455  1.00  0.00     0.000 HD 
HETATM   16  O   UNL     1      -7.435  14.617  67.094  1.00  0.00    -0.274 OA 
HETATM   17  C   UNL     1      -7.695  13.369  67.757  1.00  0.00    -0.161 C  
HETATM   18  O   UNL     1      -9.290  11.935  68.815  1.00  0.00    -0.111 OA 
HETATM   19  O   UNL     1      -5.740  12.356  66.794  1.00  0.00    -0.301 OA 
HETATM   20  C   UNL     1      -8.898  10.767  68.088  1.00  0.00    -0.133 C  
HETATM   21  H   UNL     1      -6.515  14.757  66.897  1.00  0.00     0.000 HD 
HETATM   22  C   UNL     1      -7.175  12.238  66.880  1.00  0.00     0.047 C  
HETATM   23  C   UNL     1      -7.510  10.842  67.427  1.00  0.00    -0.098 C  
BRANCH  20  24
HETATM   24  C   UNL     1      -9.022   9.564  69.051  1.00  0.00    -0.144 C  
HETATM   25  O   UNL     1      -9.765   9.846  70.238  1.00  0.00    -0.320 OA 
HETATM   26  H   UNL     1      -9.842   9.107  70.830  1.00  0.00     0.000 HD 
ENDBRANCH  20  24
BRANCH  23  27
HETATM   27  O   UNL     1      -7.519   9.855  66.358  1.00  0.00    -0.097 OA 
BRANCH  27  28
HETATM   28  C   UNL     1      -6.213   9.377  66.013  1.00  0.00    -0.067 C  
HETATM   29  O   UNL     1      -5.448   9.124  67.182  1.00  0.00    -0.040 OA 
HETATM   30  C   UNL     1      -6.047   8.130  68.018  1.00  0.00    -0.047 C  
HETATM   31  C   UNL     1      -6.054   6.769  67.278  1.00  0.00    -0.029 C  
HETATM   32  C   UNL     1      -5.253   8.154  69.322  1.00  0.00    -0.030 C  
HETATM   33  C   UNL     1      -6.830   6.922  65.942  1.00  0.00    -0.056 C  
HETATM   34  H   UNL     1      -7.136   5.850  64.302  1.00  0.00     0.000 HD 
HETATM   35  C   UNL     1      -6.313   8.118  65.138  1.00  0.00    -0.048 C  
HETATM   36  O   UNL     1      -6.661   5.755  65.119  1.00  0.00    -0.041 OA 
HETATM   37  O   UNL     1      -7.146   8.334  63.985  1.00  0.00    -0.080 OA 
HETATM   38  H   UNL     1      -7.208   7.556  63.444  1.00  0.00     0.000 HD 
BRANCH  31  39
HETATM   39  N   UNL     1      -6.588   5.713  68.173  1.00  0.00    -0.047 NA 
HETATM   40  H   UNL     1      -5.976   5.086  68.695  1.00  0.00     0.000 HD 
BRANCH  39  41
HETATM   41  C   UNL     1      -8.075   5.623  68.265  1.00  0.00    -0.103 C  
HETATM   42  C   UNL     1      -9.179   3.363  68.556  1.00  0.00    -0.229 C  
HETATM   43  C   UNL     1      -8.534   4.268  67.818  1.00  0.00    -0.102 C  
HETATM   44  C   UNL     1      -9.625   3.669  69.960  1.00  0.00    -0.173 C  
HETATM   45  H   UNL     1      -7.543   6.158  71.476  1.00  0.00     0.000 HD 
HETATM   46  O   UNL     1      -7.304   5.932  70.585  1.00  0.00    -0.080 OA 
HETATM   47  C   UNL     1      -9.597   5.166  70.365  1.00  0.00    -0.187 C  
HETATM   48  O   UNL     1      -8.826   2.892  70.848  1.00  0.00    -0.071 OA 
HETATM   49  H   UNL     1     -10.840   6.699  70.302  1.00  0.00     0.000 HD 
HETATM   50  O   UNL     1     -10.857   5.782  70.053  1.00  0.00    -0.316 OA 
HETATM   51  C   UNL     1      -8.470   5.995  69.733  1.00  0.00    -0.126 C  
HETATM   52  H   UNL     1      -9.108   3.086  71.735  1.00  0.00     0.000 HD 
BRANCH  42  53
HETATM   53  C   UNL     1      -9.497   1.968  68.064  1.00  0.00    -0.147 C  
HETATM   54  O   UNL     1      -8.668   1.578  66.974  1.00  0.00    -0.097 OA 
HETATM   55  H   UNL     1      -8.868   0.702  66.665  1.00  0.00     0.000 HD 
ENDBRANCH  42  53
ENDBRANCH  39  41
ENDBRANCH  31  39
ENDBRANCH  27  28
ENDBRANCH  23  27
ENDBRANCH  13  14
ENDBRANCH   4  13
ENDBRANCH   1   4
BRANCH   1  56
HETATM   56  C   UNL     1     -10.099  15.379  65.221  1.00  0.00    -0.319 C  
HETATM   57  O   UNL     1      -9.973  16.789  65.423  1.00  0.00    -0.572 OA 
HETATM   58  H   UNL     1      -9.155  17.084  65.039  1.00  0.00     0.000 HD 
ENDBRANCH   1  56
TORSDOF 12
ENDMDL
MODEL      168
REMARK 921   NORMALIZED FREE ENERGY PREDICTED BY IDOCK:   -4.14 KCAL/MOL
REMARK 922        TOTAL FREE ENERGY PREDICTED BY IDOCK:  -10.24 KCAL/MOL
REMARK 923 INTER-LIGAND FREE ENERGY PREDICTED BY IDOCK:   -7.96 KCAL/MOL
REMARK 924 INTRA-LIGAND FREE ENERGY PREDICTED BY IDOCK:   -2.28 KCAL/MOL
REMARK 927      BINDING AFFINITY PREDICTED BY RF-SCORE:    0.00 PKD
ROOT
HETATM    1  C   UNL     1      -6.388  11.583  68.385  1.00  0.00    -0.050 C  
HETATM    2  H   UNL     1      -7.668  12.372  69.609  1.00  0.00     0.000 HD 
HETATM    3  O   UNL     1      -7.518  12.418  68.671  1.00  0.00    -0.111 OA 
ENDROOT
BRANCH   1   4
HETATM    4  C   UNL     1      -6.562  10.129  68.916  1.00  0.00    -0.049 C  
BRANCH   4   5
HETATM    5  C   UNL     1      -5.416   9.703  69.888  1.00  0.00    -0.032 C  
HETATM    6  O   UNL     1      -5.236   8.279  69.897  1.00  0.00    -0.023 OA 
HETATM    7  H   UNL     1      -4.539   8.020  70.488  1.00  0.00     0.000 HD 
BRANCH   5   8
HETATM    8  C   UNL     1      -5.613  10.140  71.345  1.00  0.00    -0.012 C  
HETATM    9  C   UNL     1      -6.890   9.569  71.922  1.00  0.00     0.535 C  
HETATM   10  O   UNL     1      -5.705  11.574  71.363  1.00  0.00    -0.368 OA 
HETATM   11  O   UNL     1      -6.930   8.488  72.505  1.00  0.00    -0.143 OA 
HETATM   12  H   UNL     1      -5.827  11.844  72.265  1.00  0.00     0.000 HD 
ENDBRANCH   5   8
ENDBRANCH   4   5
BRANCH   4  13
HETATM   13  O   UNL     1      -6.674   9.155  67.850  1.00  0.00    -0.066 OA 
BRANCH  13  14
HETATM   14  C   UNL     1      -7.684   8.152  68.051  1.00  0.00    -0.114 C  
HETATM   15  H   UNL     1      -9.594   8.512  64.563  1.00  0.00     0.000 HD 
HETATM   16  O   UNL     1      -7.659   7.488  65.654  1.00  0.00    -0.083 OA 
HETATM   17  C   UNL     1      -8.476   7.924  66.753  1.00  0.00    -0.129 C  
HETATM   18  O   UNL     1      -8.613   8.475  69.076  1.00  0.00    -0.128 OA 
HETATM   19  O   UNL     1     -10.094   8.903  65.270  1.00  0.00     0.414 OA 
HETATM   20  C   UNL     1      -9.312   9.705  68.864  1.00  0.00    -0.151 C  
HETATM   21  H   UNL     1      -8.149   7.348  64.851  1.00  0.00     0.000 HD 
HETATM   22  C   UNL     1      -9.186   9.209  66.348  1.00  0.00    -0.183 C  
HETATM   23  C   UNL     1      -9.994   9.842  67.491  1.00  0.00    -0.185 C  
BRANCH  20  24
HETATM   24  C   UNL     1     -10.311   9.872  70.032  1.00  0.00    -0.272 C  
HETATM   25  O   UNL     1     -10.579   8.663  70.744  1.00  0.00    -0.197 OA 
HETATM   26  H   UNL     1     -11.193   8.766  71.461  1.00  0.00     0.000 HD 
ENDBRANCH  20  24
BRANCH  23  27
HETATM   27  O   UNL     1     -10.172  11.270  67.270  1.00  0.00    -0.186 OA 
BRANCH  27  28
HETATM   28  C   UNL     1     -11.483  11.615  66.807  1.00  0.00    -0.225 C  
HETATM   29  O   UNL     1     -12.187  12.348  67.799  1.00  0.00    -0.395 OA 
HETATM   30  C   UNL     1     -11.530  13.572  68.138  1.00  0.00    -0.303 C  
HETATM   31  C   UNL     1     -11.531  14.517  66.909  1.00  0.00    -0.364 C  
HETATM   32  C   UNL     1     -12.262  14.108  69.366  1.00  0.00    -0.329 C  
HETATM   33  C   UNL     1     -10.822  13.807  65.725  1.00  0.00    -0.277 C  
HETATM   34  H   UNL     1     -10.572  14.111  63.781  1.00  0.00     0.000 HD 
HETATM   35  C   UNL     1     -11.399  12.408  65.493  1.00  0.00    -0.346 C  
HETATM   36  O   UNL     1     -11.006  14.546  64.505  1.00  0.00    -0.347 OA 
HETATM   37  O   UNL     1     -10.626  11.713  64.499  1.00  0.00    -0.282 OA 
HETATM   38  H   UNL     1     -10.574  12.202  63.687  1.00  0.00     0.000 HD 
BRANCH  31  39
HETATM   39  N   UNL     1     -10.934  15.824  67.280  1.00  0.00    -0.297 NA 
HETATM   40  H   UNL     1     -11.472  16.547  67.758  1.00  0.00     0.000 HD 
BRANCH  39  41
HETATM   41  C   UNL     1      -9.501  16.017  66.911  1.00  0.00    -0.226 C  
HETATM   42  C   UNL     1      -8.596  18.359  66.587  1.00  0.00    -0.289 C  
HETATM   43  C   UNL     1      -9.331  17.320  66.189  1.00  0.00    -0.196 C  
HETATM   44  C   UNL     1      -7.736  18.286  67.819  1.00  0.00    -0.235 C  
HETATM   45  H   UNL     1      -9.028  15.918  70.174  1.00  0.00     0.000 HD 
HETATM   46  O   UNL     1      -9.536  15.998  69.375  1.00  0.00    -0.247 OA 
HETATM   47  C   UNL     1      -7.493  16.865  68.389  1.00  0.00    -0.206 C  
HETATM   48  O   UNL     1      -8.319  19.132  68.806  1.00  0.00    -0.359 OA 
HETATM   49  H   UNL     1      -6.172  15.418  68.140  1.00  0.00     0.000 HD 
HETATM   50  O   UNL     1      -6.321  16.289  67.791  1.00  0.00    -0.120 OA 
HETATM   51  C   UNL     1      -8.665  15.885  68.227  1.00  0.00    -0.174 C  
HETATM   52  H   UNL     1      -7.776  19.086  69.584  1.00  0.00     0.000 HD 
BRANCH  42  53
HETATM   53  C   UNL     1      -8.576  19.686  65.860  1.00  0.00    -0.125 C  
HETATM   54  O   UNL     1      -8.966  20.767  66.700  1.00  0.00    -0.565 OA 
HETATM   55  H   UNL     1      -8.954  21.601  66.244  1.00  0.00     0.000 HD 
ENDBRANCH  42  53
ENDBRANCH  39  41
ENDBRANCH  31  39
ENDBRANCH  27  28
ENDBRANCH  23  27
ENDBRANCH  13  14
ENDBRANCH   4  13
ENDBRANCH   1   4
BRANCH   1  56
HETATM   56  C   UNL     1      -6.147  11.656  66.875  1.00  0.00    -0.148 C  
HETATM   57  O   UNL     1      -7.397  11.497  66.199  1.00  0.00    -0.368 OA 
HETATM   58  H   UNL     1      -7.248  11.542  65.261  1.00  0.00     0.000 HD 
ENDBRANCH   1  56
TORSDOF 12
ENDMDL
MODEL      169
REMARK 921   NORMALIZED FREE ENERGY PREDICTED BY IDOCK:   -4.12 KCAL/MOL
REMARK 922        TOTAL FREE ENERGY PREDICTED BY IDOCK:  -10.20 KCAL/MOL
REMARK 923 INTER-LIGAND FREE ENERGY PREDICTED BY IDOCK:   -8.81 KCAL/MOL
REMARK 924 INTRA-LIGAND FREE ENERGY PREDICTED BY IDOCK:   -1.39 KCAL/MOL
REMARK 927      BINDING AFFINITY PREDICTED BY RF-SCORE:    0.00 PKD
ROOT
HETATM    1  C   UNL     1     -10.113  16.565  66.713  1.00  0.00    -0.288 C  
HETATM    2  H   UNL     1     -12.026  16.478  66.412  1.00  0.00     0.000 HD 
HETATM    3  O   UNL     1     -11.372  17.166  66.384  1.00  0.00     0.490 OA 
ENDROOT
BRANCH   1   4
HETATM    4  C   UNL     1      -9.770  15.348  65.803  1.00  0.00    -0.350 C  
BRANCH   4   5
HETATM    5  C   UNL     1     -10.669  15.278  64.528  1.00  0.00    -0.026 C  
HETATM    6  O   UNL     1     -11.222  16.563  64.204  1.00  0.00    -1.355 OA 
HETATM    7  H   UNL     1     -11.769  16.521  63.429  1.00  0.00     0.000 HD 
BRANCH   5   8
HETATM    8  C   UNL     1     -11.842  14.295  64.621  1.00  0.00    -0.448 C  
HETATM    9  C   UNL     1     -11.601  13.070  63.767  1.00  0.00    -0.457 C  
HETATM   10  O   UNL     1     -13.015  14.966  64.135  1.00  0.00    -0.537 OA 
HETATM   11  O   UNL     1     -11.047  12.059  64.195  1.00  0.00    -0.317 OA 
HETATM   12  H   UNL     1     -13.742  14.357  64.193  1.00  0.00     0.000 HD 
ENDBRANCH   5   8
ENDBRANCH   4   5
BRANCH   4  13
HETATM   13  O   UNL     1      -9.840  14.085  66.509  1.00  0.00    -0.272 OA 
BRANCH  13  14
HETATM   14  C   UNL     1      -9.779  14.188  67.941  1.00  0.00    -0.224 C  
HETATM   15  H   UNL     1      -6.125  12.679  68.501  1.00  0.00     0.000 HD 
HETATM   16  O   UNL     1      -7.348  14.713  67.911  1.00  0.00    -0.121 OA 
HETATM   17  C   UNL     1      -8.365  13.849  68.441  1.00  0.00    -0.157 C  
HETATM   18  O   UNL     1     -10.696  13.336  68.614  1.00  0.00    -0.254 OA 
HETATM   19  O   UNL     1      -6.796  12.055  68.752  1.00  0.00    -0.082 OA 
HETATM   20  C   UNL     1     -10.533  11.948  68.310  1.00  0.00    -0.205 C  
HETATM   21  H   UNL     1      -6.474  14.503  68.219  1.00  0.00     0.000 HD 
HETATM   22  C   UNL     1      -8.019  12.412  68.075  1.00  0.00    -0.155 C  
HETATM   23  C   UNL     1      -9.104  11.403  68.481  1.00  0.00    -0.169 C  
BRANCH  20  24
HETATM   24  C   UNL     1     -11.562  11.168  69.162  1.00  0.00    -0.324 C  
HETATM   25  O   UNL     1     -10.992  10.111  69.935  1.00  0.00    -0.252 OA 
HETATM   26  H   UNL     1     -11.624   9.632  70.458  1.00  0.00     0.000 HD 
ENDBRANCH  20  24
BRANCH  23  27
HETATM   27  O   UNL     1      -9.029  10.203  67.660  1.00  0.00    -0.131 OA 
BRANCH  27  28
HETATM   28  C   UNL     1      -7.705   9.912  67.198  1.00  0.00    -0.092 C  
HETATM   29  O   UNL     1      -7.131   8.858  67.956  1.00  0.00    -0.077 OA 
HETATM   30  C   UNL     1      -7.882   7.645  67.856  1.00  0.00    -0.117 C  
HETATM   31  C   UNL     1      -7.829   7.123  66.398  1.00  0.00    -0.109 C  
HETATM   32  C   UNL     1      -7.290   6.704  68.902  1.00  0.00    -0.094 C  
HETATM   33  C   UNL     1      -8.393   8.215  65.449  1.00  0.00    -0.155 C  
HETATM   34  H   UNL     1      -8.491   8.539  63.494  1.00  0.00     0.000 HD 
HETATM   35  C   UNL     1      -7.720   9.567  65.700  1.00  0.00    -0.101 C  
HETATM   36  O   UNL     1      -8.146   7.870  64.074  1.00  0.00    -0.138 OA 
HETATM   37  O   UNL     1      -8.365  10.591  64.923  1.00  0.00    -0.170 OA 
HETATM   38  H   UNL     1      -8.374  10.379  63.998  1.00  0.00     0.000 HD 
BRANCH  31  39
HETATM   39  N   UNL     1      -8.528   5.818  66.305  1.00  0.00    -0.122 NA 
HETATM   40  H   UNL     1      -8.886   5.337  67.131  1.00  0.00     0.000 HD 
BRANCH  39  41
HETATM   41  C   UNL     1      -8.676   5.250  64.933  1.00  0.00    -0.122 C  
HETATM   42  C   UNL     1      -7.799   2.927  64.437  1.00  0.00    -0.078 C  
HETATM   43  C   UNL     1      -7.612   4.224  64.687  1.00  0.00    -0.077 C  
HETATM   44  C   UNL     1      -9.180   2.353  64.267  1.00  0.00    -0.123 C  
HETATM   45  H   UNL     1     -11.621   4.271  66.053  1.00  0.00     0.000 HD 
HETATM   46  O   UNL     1     -10.731   4.596  66.127  1.00  0.00    -0.269 OA 
HETATM   47  C   UNL     1     -10.319   3.385  64.063  1.00  0.00    -0.220 C  
HETATM   48  O   UNL     1      -9.447   1.523  65.394  1.00  0.00    -0.306 OA 
HETATM   49  H   UNL     1     -11.186   4.293  62.538  1.00  0.00     0.000 HD 
HETATM   50  O   UNL     1     -10.488   3.660  62.663  1.00  0.00    -0.174 OA 
HETATM   51  C   UNL     1     -10.141   4.713  64.812  1.00  0.00     0.104 C  
HETATM   52  H   UNL     1     -10.319   1.161  65.286  1.00  0.00     0.000 HD 
BRANCH  42  53
HETATM   53  C   UNL     1      -6.665   1.933  64.323  1.00  0.00    -0.027 C  
HETATM   54  O   UNL     1      -5.904   1.842  65.523  1.00  0.00    -0.016 OA 
HETATM   55  H   UNL     1      -5.191   1.218  65.451  1.00  0.00     0.000 HD 
ENDBRANCH  42  53
ENDBRANCH  39  41
ENDBRANCH  31  39
ENDBRANCH  27  28
ENDBRANCH  23  27
ENDBRANCH  13  14
ENDBRANCH   4  13
ENDBRANCH   1   4
BRANCH   1  56
HETATM   56  C   UNL     1      -9.059  17.674  66.669  1.00  0.00    -0.264 C  
HETATM   57  O   UNL     1      -7.879  17.168  66.040  1.00  0.00    -0.431 OA 
HETATM   58  H   UNL     1      -7.225  17.856  66.012  1.00  0.00     0.000 HD 
ENDBRANCH   1  56
TORSDOF 12
ENDMDL
MODEL      170
REMARK 921   NORMALIZED FREE ENERGY PREDICTED BY IDOCK:   -4.10 KCAL/MOL
REMARK 922        TOTAL FREE ENERGY PREDICTED BY IDOCK:  -10.17 KCAL/MOL
REMARK 923 INTER-LIGAND FREE ENERGY PREDICTED BY IDOCK:   -8.77 KCAL/MOL
REMARK 924 INTRA-LIGAND FREE ENERGY PREDICTED BY IDOCK:   -1.40 KCAL/MOL
REMARK 927      BINDING AFFINITY PREDICTED BY RF-SCORE:    0.00 PKD
ROOT
HETATM    1  C   UNL     1      -7.827   5.552  67.911  1.00  0.00    -0.096 C  
HETATM    2  H   UNL     1      -8.310   5.638  69.786  1.00  0.00     0.000 HD 
HETATM    3  O   UNL     1      -7.854   5.010  69.238  1.00  0.00    -0.074 OA 
ENDROOT
BRANCH   1   4
HETATM    4  C   UNL     1      -7.212   6.983  67.857  1.00  0.00    -0.091 C  
BRANCH   4   5
HETATM    5  C   UNL     1      -6.026   7.166  68.855  1.00  0.00    -0.023 C  
HETATM    6  O   UNL     1      -5.799   5.976  69.626  1.00  0.00    -0.019 OA 
HETATM    7  H   UNL     1      -5.077   6.087  70.233  1.00  0.00     0.000 HD 
BRANCH   5   8
HETATM    8  C   UNL     1      -6.195   8.321  69.850  1.00  0.00    -0.032 C  
HETATM    9  C   UNL     1      -7.408   8.115  70.730  1.00  0.00    -0.058 C  
HETATM   10  O   UNL     1      -6.380   9.527  69.093  1.00  0.00    -0.041 OA 
HETATM   11  O   UNL     1      -7.356   7.526  71.808  1.00  0.00    -0.069 OA 
HETATM   12  H   UNL     1      -6.484  10.243  69.709  1.00  0.00     0.000 HD 
ENDBRANCH   5   8
ENDBRANCH   4   5
BRANCH   4  13
HETATM   13  O   UNL     1      -8.195   8.022  68.084  1.00  0.00    -0.123 OA 
BRANCH  13  14
HETATM   14  C   UNL     1      -9.559   7.623  67.868  1.00  0.00    -0.144 C  
HETATM   15  H   UNL     1     -10.258   9.660  64.505  1.00  0.00     0.000 HD 
HETATM   16  O   UNL     1      -9.277   7.605  65.396  1.00  0.00    -0.375 OA 
HETATM   17  C   UNL     1     -10.048   8.116  66.496  1.00  0.00    -0.216 C  
HETATM   18  O   UNL     1     -10.460   8.110  68.852  1.00  0.00    -0.215 OA 
HETATM   19  O   UNL     1     -10.683  10.070  65.249  1.00  0.00     0.141 OA 
HETATM   20  C   UNL     1     -10.479   9.536  68.971  1.00  0.00    -0.213 C  
HETATM   21  H   UNL     1      -9.579   7.910  64.548  1.00  0.00     0.000 HD 
HETATM   22  C   UNL     1     -10.009   9.637  66.448  1.00  0.00    -0.255 C  
HETATM   23  C   UNL     1     -10.696  10.300  67.652  1.00  0.00    -0.288 C  
BRANCH  20  24
HETATM   24  C   UNL     1     -11.543   9.894  70.034  1.00  0.00    -0.175 C  
HETATM   25  O   UNL     1     -12.640  10.654  69.525  1.00  0.00    -0.619 OA 
HETATM   26  H   UNL     1     -13.293  10.873  70.179  1.00  0.00     0.000 HD 
ENDBRANCH  20  24
BRANCH  23  27
HETATM   27  O   UNL     1     -10.173  11.640  67.873  1.00  0.00    -0.182 OA 
BRANCH  27  28
HETATM   28  C   UNL     1      -8.953  11.899  67.169  1.00  0.00    -0.178 C  
HETATM   29  O   UNL     1      -9.206  12.640  65.984  1.00  0.00    -0.128 OA 
HETATM   30  C   UNL     1      -9.806  13.909  66.255  1.00  0.00    -0.306 C  
HETATM   31  C   UNL     1      -8.806  14.796  67.039  1.00  0.00    -0.237 C  
HETATM   32  C   UNL     1     -10.235  14.462  64.898  1.00  0.00    -0.357 C  
HETATM   33  C   UNL     1      -8.408  14.069  68.353  1.00  0.00    -0.162 C  
HETATM   34  H   UNL     1      -7.066  14.298  69.796  1.00  0.00     0.000 HD 
HETATM   35  C   UNL     1      -7.953  12.635  68.074  1.00  0.00    -0.155 C  
HETATM   36  O   UNL     1      -7.310  14.743  68.993  1.00  0.00    -0.121 OA 
HETATM   37  O   UNL     1      -7.740  11.935  69.313  1.00  0.00    -0.341 OA 
HETATM   38  H   UNL     1      -7.122  12.389  69.872  1.00  0.00     0.000 HD 
BRANCH  31  39
HETATM   39  N   UNL     1      -9.385  16.146  67.244  1.00  0.00    -0.212 NA 
HETATM   40  H   UNL     1     -10.337  16.375  66.956  1.00  0.00     0.000 HD 
BRANCH  39  41
HETATM   41  C   UNL     1      -8.494  17.150  67.896  1.00  0.00    -0.212 C  
HETATM   42  C   UNL     1      -7.495  19.023  66.516  1.00  0.00    -0.259 C  
HETATM   43  C   UNL     1      -7.562  17.742  66.882  1.00  0.00    -0.238 C  
HETATM   44  C   UNL     1      -8.323  20.078  67.197  1.00  0.00    -0.332 C  
HETATM   45  H   UNL     1     -11.331  18.695  68.564  1.00  0.00     0.000 HD 
HETATM   46  O   UNL     1     -10.770  18.066  68.125  1.00  0.00    -0.355 OA 
HETATM   47  C   UNL     1      -8.982  19.657  68.536  1.00  0.00    -0.305 C  
HETATM   48  O   UNL     1      -9.307  20.524  66.268  1.00  0.00    -0.619 OA 
HETATM   49  H   UNL     1      -8.502  19.684  70.451  1.00  0.00     0.000 HD 
HETATM   50  O   UNL     1      -8.097  19.942  69.631  1.00  0.00     0.104 OA 
HETATM   51  C   UNL     1      -9.417  18.187  68.619  1.00  0.00    -0.316 C  
HETATM   52  H   UNL     1      -9.830  21.190  66.699  1.00  0.00     0.000 HD 
BRANCH  42  53
HETATM   53  C   UNL     1      -6.610  19.518  65.393  1.00  0.00    -0.280 C  
HETATM   54  O   UNL     1      -7.097  20.724  64.814  1.00  0.00    -0.499 OA 
HETATM   55  H   UNL     1      -6.542  21.034  64.108  1.00  0.00     0.000 HD 
ENDBRANCH  42  53
ENDBRANCH  39  41
ENDBRANCH  31  39
ENDBRANCH  27  28
ENDBRANCH  23  27
ENDBRANCH  13  14
ENDBRANCH   4  13
ENDBRANCH   1   4
BRANCH   1  56
HETATM   56  C   UNL     1      -7.092   4.541  67.028  1.00  0.00    -0.068 C  
HETATM   57  O   UNL     1      -6.251   3.731  67.852  1.00  0.00    -0.031 OA 
HETATM   58  H   UNL     1      -5.795   3.102  67.304  1.00  0.00     0.000 HD 
ENDBRANCH   1  56
TORSDOF 12
ENDMDL
MODEL      171
REMARK 921   NORMALIZED FREE ENERGY PREDICTED BY IDOCK:   -4.07 KCAL/MOL
REMARK 922        TOTAL FREE ENERGY PREDICTED BY IDOCK:  -10.11 KCAL/MOL
REMARK 923 INTER-LIGAND FREE ENERGY PREDICTED BY IDOCK:   -7.49 KCAL/MOL
REMARK 924 INTRA-LIGAND FREE ENERGY PREDICTED BY IDOCK:   -2.62 KCAL/MOL
REMARK 927      BINDING AFFINITY PREDICTED BY RF-SCORE:    0.00 PKD
ROOT
HETATM    1  C   UNL     1     -12.010  12.928  67.398  1.00  0.00    -0.300 C  
HETATM    2  H   UNL     1     -12.798  12.247  65.763  1.00  0.00     0.000 HD 
HETATM    3  O   UNL     1     -12.423  13.077  66.033  1.00  0.00    -0.463 OA 
ENDROOT
BRANCH   1   4
HETATM    4  C   UNL     1     -11.053  11.717  67.610  1.00  0.00    -0.255 C  
BRANCH   4   5
HETATM    5  C   UNL     1     -11.327  10.962  68.949  1.00  0.00    -0.288 C  
HETATM    6  O   UNL     1     -11.390   9.542  68.749  1.00  0.00    -0.460 OA 
HETATM    7  H   UNL     1     -11.556   9.082  69.563  1.00  0.00     0.000 HD 
BRANCH   5   8
HETATM    8  C   UNL     1     -12.620  11.372  69.665  1.00  0.00     0.061 C  
HETATM    9  C   UNL     1     -12.326  12.179  70.910  1.00  0.00    -0.273 C  
HETATM   10  O   UNL     1     -13.306  10.170  70.052  1.00  0.00    -0.463 OA 
HETATM   11  O   UNL     1     -12.239  13.405  70.902  1.00  0.00    -0.354 OA 
HETATM   12  H   UNL     1     -14.107  10.424  70.495  1.00  0.00     0.000 HD 
ENDBRANCH   5   8
ENDBRANCH   4   5
BRANCH   4  13
HETATM   13  O   UNL     1      -9.656  12.091  67.548  1.00  0.00    -0.173 OA 
BRANCH  13  14
HETATM   14  C   UNL     1      -9.088  12.092  66.227  1.00  0.00    -0.165 C  
HETATM   15  H   UNL     1      -9.726   8.262  65.294  1.00  0.00     0.000 HD 
HETATM   16  O   UNL     1     -10.774  10.469  65.382  1.00  0.00    -0.139 OA 
HETATM   17  C   UNL     1      -9.373  10.755  65.523  1.00  0.00    -0.207 C  
HETATM   18  O   UNL     1      -7.684  12.303  66.210  1.00  0.00     0.337 OA 
HETATM   19  O   UNL     1      -8.810   8.418  65.495  1.00  0.00    -0.172 OA 
HETATM   20  C   UNL     1      -6.939  11.338  66.960  1.00  0.00    -0.126 C  
HETATM   21  H   UNL     1     -10.950   9.643  64.947  1.00  0.00     0.000 HD 
HETATM   22  C   UNL     1      -8.723   9.615  66.295  1.00  0.00    -0.142 C  
HETATM   23  C   UNL     1      -7.242   9.868  66.620  1.00  0.00    -0.091 C  
BRANCH  20  24
HETATM   24  C   UNL     1      -5.441  11.680  66.789  1.00  0.00    -0.125 C  
HETATM   25  O   UNL     1      -5.148  13.074  66.901  1.00  0.00    -0.234 OA 
HETATM   26  H   UNL     1      -4.227  13.284  66.796  1.00  0.00     0.000 HD 
ENDBRANCH  20  24
BRANCH  23  27
HETATM   27  O   UNL     1      -6.827   9.093  67.780  1.00  0.00    -0.074 OA 
BRANCH  27  28
HETATM   28  C   UNL     1      -7.443   9.520  69.001  1.00  0.00    -0.074 C  
HETATM   29  O   UNL     1      -8.500   8.643  69.361  1.00  0.00    -0.122 OA 
HETATM   30  C   UNL     1      -8.047   7.303  69.571  1.00  0.00    -0.129 C  
HETATM   31  C   UNL     1      -7.100   7.264  70.797  1.00  0.00    -0.065 C  
HETATM   32  C   UNL     1      -9.309   6.454  69.702  1.00  0.00    -0.148 C  
HETATM   33  C   UNL     1      -5.909   8.229  70.548  1.00  0.00    -0.028 C  
HETATM   34  H   UNL     1      -4.408   8.993  71.595  1.00  0.00     0.000 HD 
HETATM   35  C   UNL     1      -6.401   9.616  70.126  1.00  0.00    -0.069 C  
HETATM   36  O   UNL     1      -5.136   8.403  71.748  1.00  0.00    -0.033 OA 
HETATM   37  O   UNL     1      -5.285  10.443  69.750  1.00  0.00    -0.038 OA 
HETATM   38  H   UNL     1      -4.641  10.503  70.446  1.00  0.00     0.000 HD 
BRANCH  31  39
HETATM   39  N   UNL     1      -6.698   5.864  71.078  1.00  0.00    -0.058 NA 
HETATM   40  H   UNL     1      -6.224   5.288  70.382  1.00  0.00     0.000 HD 
BRANCH  39  41
HETATM   41  C   UNL     1      -7.029   5.348  72.439  1.00  0.00    -0.081 C  
HETATM   42  C   UNL     1      -9.273   5.895  73.476  1.00  0.00    -0.131 C  
HETATM   43  C   UNL     1      -8.043   6.238  73.091  1.00  0.00    -0.110 C  
HETATM   44  C   UNL     1      -9.755   4.473  73.382  1.00  0.00    -0.128 C  
HETATM   45  H   UNL     1      -8.058   2.688  70.781  1.00  0.00     0.000 HD 
HETATM   46  O   UNL     1      -7.785   3.593  70.883  1.00  0.00    -0.046 OA 
HETATM   47  C   UNL     1      -8.659   3.403  73.141  1.00  0.00    -0.081 C  
HETATM   48  O   UNL     1     -10.746   4.418  72.359  1.00  0.00    -0.150 OA 
HETATM   49  H   UNL     1      -7.481   2.271  74.250  1.00  0.00     0.000 HD 
HETATM   50  O   UNL     1      -8.152   2.927  74.398  1.00  0.00    -0.066 OA 
HETATM   51  C   UNL     1      -7.479   3.859  72.271  1.00  0.00    -0.065 C  
HETATM   52  H   UNL     1     -11.051   3.520  72.300  1.00  0.00     0.000 HD 
BRANCH  42  53
HETATM   53  C   UNL     1     -10.280   6.887  74.014  1.00  0.00    -0.350 C  
HETATM   54  O   UNL     1     -11.325   7.153  73.084  1.00  0.00    -0.534 OA 
HETATM   55  H   UNL     1     -11.957   7.777  73.422  1.00  0.00     0.000 HD 
ENDBRANCH  42  53
ENDBRANCH  39  41
ENDBRANCH  31  39
ENDBRANCH  27  28
ENDBRANCH  23  27
ENDBRANCH  13  14
ENDBRANCH   4  13
ENDBRANCH   1   4
BRANCH   1  56
HETATM   56  C   UNL     1     -11.405  14.265  67.833  1.00  0.00    -0.297 C  
HETATM   57  O   UNL     1     -12.348  14.953  68.660  1.00  0.00    -0.585 OA 
HETATM   58  H   UNL     1     -11.972  15.783  68.930  1.00  0.00     0.000 HD 
ENDBRANCH   1  56
TORSDOF 12
ENDMDL
MODEL      172
REMARK 921   NORMALIZED FREE ENERGY PREDICTED BY IDOCK:   -4.06 KCAL/MOL
REMARK 922        TOTAL FREE ENERGY PREDICTED BY IDOCK:  -10.11 KCAL/MOL
REMARK 923 INTER-LIGAND FREE ENERGY PREDICTED BY IDOCK:   -8.67 KCAL/MOL
REMARK 924 INTRA-LIGAND FREE ENERGY PREDICTED BY IDOCK:   -1.44 KCAL/MOL
REMARK 927      BINDING AFFINITY PREDICTED BY RF-SCORE:    0.00 PKD
ROOT
HETATM    1  C   UNL     1     -11.471  13.712  66.684  1.00  0.00    -0.343 C  
HETATM    2  H   UNL     1     -10.520  15.304  67.250  1.00  0.00     0.000 HD 
HETATM    3  O   UNL     1     -11.276  15.132  66.701  1.00  0.00    -0.328 OA 
ENDROOT
BRANCH   1   4
HETATM    4  C   UNL     1     -11.592  13.103  68.113  1.00  0.00    -0.339 C  
BRANCH   4   5
HETATM    5  C   UNL     1     -11.721  14.194  69.222  1.00  0.00    -0.323 C  
HETATM    6  O   UNL     1     -10.434  14.621  69.693  1.00  0.00    -0.394 OA 
HETATM    7  H   UNL     1     -10.512  15.285  70.368  1.00  0.00     0.000 HD 
BRANCH   5   8
HETATM    8  C   UNL     1     -12.531  13.767  70.453  1.00  0.00    -0.314 C  
HETATM    9  C   UNL     1     -12.366  14.753  71.588  1.00  0.00    -0.345 C  
HETATM   10  O   UNL     1     -12.034  12.490  70.882  1.00  0.00    -0.447 OA 
HETATM   11  O   UNL     1     -13.112  15.718  71.745  1.00  0.00    -0.462 OA 
HETATM   12  H   UNL     1     -12.535  12.225  71.644  1.00  0.00     0.000 HD 
ENDBRANCH   5   8
ENDBRANCH   4   5
BRANCH   4  13
HETATM   13  O   UNL     1     -10.493  12.217  68.437  1.00  0.00    -0.221 OA 
BRANCH  13  14
HETATM   14  C   UNL     1      -9.743  11.745  67.306  1.00  0.00    -0.178 C  
HETATM   15  H   UNL     1      -9.801   7.838  68.131  1.00  0.00     0.000 HD 
HETATM   16  O   UNL     1     -11.093   9.662  67.140  1.00  0.00    -0.250 OA 
HETATM   17  C   UNL     1      -9.769  10.208  67.252  1.00  0.00    -0.167 C  
HETATM   18  O   UNL     1      -8.383  12.157  67.310  1.00  0.00    -0.164 OA 
HETATM   19  O   UNL     1      -8.948   8.215  68.314  1.00  0.00    -0.136 OA 
HETATM   20  C   UNL     1      -7.652  11.746  68.470  1.00  0.00    -0.131 C  
HETATM   21  H   UNL     1     -11.109   8.713  67.107  1.00  0.00     0.000 HD 
HETATM   22  C   UNL     1      -9.114   9.635  68.501  1.00  0.00    -0.131 C  
HETATM   23  C   UNL     1      -7.735  10.245  68.798  1.00  0.00    -0.096 C  
BRANCH  20  24
HETATM   24  C   UNL     1      -6.194  12.225  68.286  1.00  0.00    -0.054 C  
HETATM   25  O   UNL     1      -5.862  12.569  66.939  1.00  0.00    -0.454 OA 
HETATM   26  H   UNL     1      -4.965  12.863  66.827  1.00  0.00     0.000 HD 
ENDBRANCH  20  24
BRANCH  23  27
HETATM   27  O   UNL     1      -7.408  10.123  70.211  1.00  0.00    -0.160 OA 
BRANCH  27  28
HETATM   28  C   UNL     1      -6.021   9.858  70.454  1.00  0.00    -0.075 C  
HETATM   29  O   UNL     1      -5.774   9.721  71.845  1.00  0.00    -0.227 OA 
HETATM   30  C   UNL     1      -6.511   8.641  72.424  1.00  0.00    -0.062 C  
HETATM   31  C   UNL     1      -6.016   7.299  71.827  1.00  0.00    -0.037 C  
HETATM   32  C   UNL     1      -6.334   8.781  73.934  1.00  0.00    -0.065 C  
HETATM   33  C   UNL     1      -6.190   7.337  70.284  1.00  0.00    -0.030 C  
HETATM   34  H   UNL     1      -5.638   6.240  68.727  1.00  0.00     0.000 HD 
HETATM   35  C   UNL     1      -5.569   8.603  69.689  1.00  0.00    -0.030 C  
HETATM   36  O   UNL     1      -5.531   6.216  69.670  1.00  0.00    -0.012 OA 
HETATM   37  O   UNL     1      -5.879   8.693  68.287  1.00  0.00    -0.041 OA 
HETATM   38  H   UNL     1      -5.600   7.919  67.814  1.00  0.00     0.000 HD 
BRANCH  31  39
HETATM   39  N   UNL     1      -6.711   6.168  72.488  1.00  0.00    -0.068 NA 
HETATM   40  H   UNL     1      -6.199   5.416  72.952  1.00  0.00     0.000 HD 
BRANCH  39  41
HETATM   41  C   UNL     1      -8.202   6.193  72.436  1.00  0.00    -0.108 C  
HETATM   42  C   UNL     1      -9.423   4.743  70.758  1.00  0.00    -0.228 C  
HETATM   43  C   UNL     1      -8.673   5.801  71.068  1.00  0.00    -0.135 C  
HETATM   44  C   UNL     1      -9.988   3.843  71.824  1.00  0.00    -0.163 C  
HETATM   45  H   UNL     1      -7.959   3.879  74.775  1.00  0.00     0.000 HD 
HETATM   46  O   UNL     1      -7.645   4.436  74.072  1.00  0.00    -0.082 OA 
HETATM   47  C   UNL     1      -9.937   4.397  73.271  1.00  0.00    -0.142 C  
HETATM   48  O   UNL     1      -9.312   2.591  71.739  1.00  0.00    -0.093 OA 
HETATM   49  H   UNL     1     -11.102   5.478  74.443  1.00  0.00     0.000 HD 
HETATM   50  O   UNL     1     -11.134   5.139  73.556  1.00  0.00    -0.309 OA 
HETATM   51  C   UNL     1      -8.720   5.276  73.594  1.00  0.00    -0.110 C  
HETATM   52  H   UNL     1      -9.670   2.024  72.412  1.00  0.00     0.000 HD 
BRANCH  42  53
HETATM   53  C   UNL     1      -9.751   4.348  69.335  1.00  0.00    -0.197 C  
HETATM   54  O   UNL     1      -9.286   5.305  68.389  1.00  0.00    -0.111 OA 
HETATM   55  H   UNL     1      -9.492   5.057  67.495  1.00  0.00     0.000 HD 
ENDBRANCH  42  53
ENDBRANCH  39  41
ENDBRANCH  31  39
ENDBRANCH  27  28
ENDBRANCH  23  27
ENDBRANCH  13  14
ENDBRANCH   4  13
ENDBRANCH   1   4
BRANCH   1  56
HETATM   56  C   UNL     1     -12.690  13.437  65.800  1.00  0.00    -0.318 C  
HETATM   57  O   UNL     1     -12.889  14.551  64.926  1.00  0.00    -0.588 OA 
HETATM   58  H   UNL     1     -13.646  14.380  64.376  1.00  0.00     0.000 HD 
ENDBRANCH   1  56
TORSDOF 12
ENDMDL
MODEL      173
REMARK 921   NORMALIZED FREE ENERGY PREDICTED BY IDOCK:   -4.03 KCAL/MOL
REMARK 922        TOTAL FREE ENERGY PREDICTED BY IDOCK:  -10.05 KCAL/MOL
REMARK 923 INTER-LIGAND FREE ENERGY PREDICTED BY IDOCK:   -7.92 KCAL/MOL
REMARK 924 INTRA-LIGAND FREE ENERGY PREDICTED BY IDOCK:   -2.13 KCAL/MOL
REMARK 927      BINDING AFFINITY PREDICTED BY RF-SCORE:    0.00 PKD
ROOT
HETATM    1  C   UNL     1     -10.580  14.603  68.832  1.00  0.00    -0.253 C  
HETATM    2  H   UNL     1     -11.778  16.033  68.303  1.00  0.00     0.000 HD 
HETATM    3  O   UNL     1     -11.166  15.465  67.848  1.00  0.00    -0.313 OA 
ENDROOT
BRANCH   1   4
HETATM    4  C   UNL     1     -11.644  13.827  69.665  1.00  0.00    -0.281 C  
BRANCH   4   5
HETATM    5  C   UNL     1     -11.825  14.411  71.102  1.00  0.00    -0.251 C  
HETATM    6  O   UNL     1     -12.265  13.406  72.027  1.00  0.00     0.065 OA 
HETATM    7  H   UNL     1     -12.375  13.761  72.901  1.00  0.00     0.000 HD 
BRANCH   5   8
HETATM    8  C   UNL     1     -12.815  15.579  71.202  1.00  0.00    -0.489 C  
HETATM    9  C   UNL     1     -13.946  15.259  72.155  1.00  0.00    -0.549 C  
HETATM   10  O   UNL     1     -13.368  15.796  69.894  1.00  0.00    -0.426 OA 
HETATM   11  O   UNL     1     -13.899  15.525  73.354  1.00  0.00    -0.267 OA 
HETATM   12  H   UNL     1     -13.981  16.519  69.956  1.00  0.00     0.000 HD 
ENDBRANCH   5   8
ENDBRANCH   4   5
BRANCH   4  13
HETATM   13  O   UNL     1     -11.359  12.410  69.756  1.00  0.00    -0.178 OA 
BRANCH  13  14
HETATM   14  C   UNL     1     -12.379  11.553  69.217  1.00  0.00    -0.056 C  
HETATM   15  H   UNL     1     -12.434   8.793  72.103  1.00  0.00     0.000 HD 
HETATM   16  O   UNL     1     -13.267  11.005  71.475  1.00  0.00    -0.388 OA 
HETATM   17  C   UNL     1     -12.762  10.471  70.241  1.00  0.00    -0.188 C  
HETATM   18  O   UNL     1     -11.998  10.899  68.015  1.00  0.00    -0.586 OA 
HETATM   19  O   UNL     1     -11.998   8.467  71.324  1.00  0.00    -0.285 OA 
HETATM   20  C   UNL     1     -10.823  10.090  68.137  1.00  0.00    -0.255 C  
HETATM   21  H   UNL     1     -13.504  10.337  72.108  1.00  0.00     0.000 HD 
HETATM   22  C   UNL     1     -11.553   9.599  70.549  1.00  0.00    -0.272 C  
HETATM   23  C   UNL     1     -10.847   9.071  69.290  1.00  0.00    -0.113 C  
BRANCH  20  24
HETATM   24  C   UNL     1     -10.587   9.415  66.766  1.00  0.00    -0.139 C  
HETATM   25  O   UNL     1     -10.183  10.319  65.736  1.00  0.00    -0.257 OA 
HETATM   26  H   UNL     1     -10.038   9.903  64.894  1.00  0.00     0.000 HD 
ENDBRANCH  20  24
BRANCH  23  27
HETATM   27  O   UNL     1      -9.456   8.751  69.573  1.00  0.00    -0.162 OA 
BRANCH  27  28
HETATM   28  C   UNL     1      -8.831   9.673  70.474  1.00  0.00    -0.113 C  
HETATM   29  O   UNL     1      -9.067   9.293  71.821  1.00  0.00    -0.303 OA 
HETATM   30  C   UNL     1      -8.540   7.998  72.121  1.00  0.00    -0.155 C  
HETATM   31  C   UNL     1      -6.995   8.031  72.012  1.00  0.00    -0.075 C  
HETATM   32  C   UNL     1      -9.083   7.640  73.503  1.00  0.00    -0.317 C  
HETATM   33  C   UNL     1      -6.599   8.482  70.579  1.00  0.00    -0.037 C  
HETATM   34  H   UNL     1      -4.947   9.029  69.628  1.00  0.00     0.000 HD 
HETATM   35  C   UNL     1      -7.324   9.771  70.186  1.00  0.00    -0.155 C  
HETATM   36  O   UNL     1      -5.188   8.753  70.504  1.00  0.00    -0.021 OA 
HETATM   37  O   UNL     1      -7.064  10.083  68.806  1.00  0.00    -0.068 OA 
HETATM   38  H   UNL     1      -6.134  10.144  68.628  1.00  0.00     0.000 HD 
BRANCH  31  39
HETATM   39  N   UNL     1      -6.435   6.716  72.411  1.00  0.00    -0.057 NA 
HETATM   40  H   UNL     1      -5.459   6.607  72.689  1.00  0.00     0.000 HD 
BRANCH  39  41
HETATM   41  C   UNL     1      -7.382   5.564  72.381  1.00  0.00    -0.095 C  
HETATM   42  C   UNL     1      -6.724   3.430  71.189  1.00  0.00    -0.031 C  
HETATM   43  C   UNL     1      -7.108   4.707  71.182  1.00  0.00    -0.043 C  
HETATM   44  C   UNL     1      -6.620   2.648  72.470  1.00  0.00    -0.018 C  
HETATM   45  H   UNL     1      -5.966   4.797  75.260  1.00  0.00     0.000 HD 
HETATM   46  O   UNL     1      -6.043   5.245  74.425  1.00  0.00    -0.054 OA 
HETATM   47  C   UNL     1      -7.296   3.291  73.709  1.00  0.00    -0.052 C  
HETATM   48  O   UNL     1      -5.238   2.404  72.719  1.00  0.00     0.000 OA 
HETATM   49  H   UNL     1      -9.077   3.255  74.561  1.00  0.00     0.000 HD 
HETATM   50  O   UNL     1      -8.663   2.861  73.802  1.00  0.00    -0.072 OA 
HETATM   51  C   UNL     1      -7.254   4.826  73.755  1.00  0.00    -0.078 C  
HETATM   52  H   UNL     1      -5.173   1.911  73.529  1.00  0.00     0.000 HD 
BRANCH  42  53
HETATM   53  C   UNL     1      -6.347   2.672  69.935  1.00  0.00    -0.028 C  
HETATM   54  O   UNL     1      -7.029   3.160  68.784  1.00  0.00    -0.047 OA 
HETATM   55  H   UNL     1      -6.792   2.683  67.996  1.00  0.00     0.000 HD 
ENDBRANCH  42  53
ENDBRANCH  39  41
ENDBRANCH  31  39
ENDBRANCH  27  28
ENDBRANCH  23  27
ENDBRANCH  13  14
ENDBRANCH   4  13
ENDBRANCH   1   4
BRANCH   1  56
HETATM   56  C   UNL     1      -9.596  13.688  68.099  1.00  0.00    -0.221 C  
HETATM   57  O   UNL     1     -10.274  13.058  67.009  1.00  0.00    -0.241 OA 
HETATM   58  H   UNL     1      -9.663  12.490  66.554  1.00  0.00     0.000 HD 
ENDBRANCH   1  56
TORSDOF 12
ENDMDL
MODEL      174
REMARK 921   NORMALIZED FREE ENERGY PREDICTED BY IDOCK:   -4.01 KCAL/MOL
REMARK 922        TOTAL FREE ENERGY PREDICTED BY IDOCK:  -10.02 KCAL/MOL
REMARK 923 INTER-LIGAND FREE ENERGY PREDICTED BY IDOCK:   -7.60 KCAL/MOL
REMARK 924 INTRA-LIGAND FREE ENERGY PREDICTED BY IDOCK:   -2.42 KCAL/MOL
REMARK 927      BINDING AFFINITY PREDICTED BY RF-SCORE:    0.00 PKD
ROOT
HETATM    1  C   UNL     1      -6.233   4.307  66.403  1.00  0.00    -0.032 C  
HETATM    2  H   UNL     1      -7.615   4.318  67.761  1.00  0.00     0.000 HD 
HETATM    3  O   UNL     1      -6.939   3.706  67.496  1.00  0.00    -0.053 OA 
ENDROOT
BRANCH   1   4
HETATM    4  C   UNL     1      -5.685   5.725  66.746  1.00  0.00    -0.017 C  
BRANCH   4   5
HETATM    5  C   UNL     1      -5.459   5.928  68.277  1.00  0.00    -0.004 C  
HETATM    6  O   UNL     1      -5.186   4.683  68.938  1.00  0.00    -0.003 OA 
HETATM    7  H   UNL     1      -5.048   4.806  69.870  1.00  0.00     0.000 HD 
BRANCH   5   8
HETATM    8  C   UNL     1      -6.632   6.582  69.019  1.00  0.00    -0.047 C  
HETATM    9  C   UNL     1      -6.151   7.382  70.210  1.00  0.00    -0.027 C  
HETATM   10  O   UNL     1      -7.491   5.532  69.491  1.00  0.00    -0.068 OA 
HETATM   11  O   UNL     1      -5.859   8.574  70.136  1.00  0.00    -0.027 OA 
HETATM   12  H   UNL     1      -8.217   5.938  69.951  1.00  0.00     0.000 HD 
ENDBRANCH   5   8
ENDBRANCH   4   5
BRANCH   4  13
HETATM   13  O   UNL     1      -6.530   6.788  66.241  1.00  0.00    -0.044 OA 
BRANCH  13  14
HETATM   14  C   UNL     1      -7.639   6.349  65.438  1.00  0.00    -0.089 C  
HETATM   15  H   UNL     1      -7.967   9.542  63.062  1.00  0.00     0.000 HD 
HETATM   16  O   UNL     1      -6.742   7.452  63.397  1.00  0.00    -0.052 OA 
HETATM   17  C   UNL     1      -7.873   7.324  64.273  1.00  0.00    -0.125 C  
HETATM   18  O   UNL     1      -8.856   6.234  66.161  1.00  0.00    -0.147 OA 
HETATM   19  O   UNL     1      -8.660   9.525  63.712  1.00  0.00    -0.185 OA 
HETATM   20  C   UNL     1      -9.279   7.447  66.790  1.00  0.00    -0.156 C  
HETATM   21  H   UNL     1      -6.886   8.055  62.677  1.00  0.00     0.000 HD 
HETATM   22  C   UNL     1      -8.224   8.703  64.815  1.00  0.00    -0.160 C  
HETATM   23  C   UNL     1      -9.345   8.676  65.866  1.00  0.00    -0.195 C  
BRANCH  20  24
HETATM   24  C   UNL     1     -10.634   7.160  67.478  1.00  0.00    -0.278 C  
HETATM   25  O   UNL     1     -11.588   6.516  66.632  1.00  0.00    -0.678 OA 
HETATM   26  H   UNL     1     -12.420   6.339  67.055  1.00  0.00     0.000 HD 
ENDBRANCH  20  24
BRANCH  23  27
HETATM   27  O   UNL     1      -9.267   9.840  66.736  1.00  0.00    -0.144 OA 
BRANCH  27  28
HETATM   28  C   UNL     1      -8.382  10.856  66.249  1.00  0.00    -0.164 C  
HETATM   29  O   UNL     1      -9.118  11.948  65.720  1.00  0.00    -0.163 OA 
HETATM   30  C   UNL     1      -9.958  12.563  66.699  1.00  0.00    -0.236 C  
HETATM   31  C   UNL     1      -9.080  13.209  67.801  1.00  0.00    -0.200 C  
HETATM   32  C   UNL     1     -10.848  13.536  65.930  1.00  0.00    -0.279 C  
HETATM   33  C   UNL     1      -8.181  12.114  68.438  1.00  0.00    -0.145 C  
HETATM   34  H   UNL     1      -6.639  12.036  69.683  1.00  0.00     0.000 HD 
HETATM   35  C   UNL     1      -7.431  11.322  67.363  1.00  0.00    -0.116 C  
HETATM   36  O   UNL     1      -7.188  12.706  69.294  1.00  0.00     0.010 OA 
HETATM   37  O   UNL     1      -6.730  10.218  67.963  1.00  0.00    -0.065 OA 
HETATM   38  H   UNL     1      -6.143  10.506  68.651  1.00  0.00     0.000 HD 
BRANCH  31  39
HETATM   39  N   UNL     1      -9.940  13.928  68.773  1.00  0.00    -0.366 NA 
HETATM   40  H   UNL     1     -10.743  13.482  69.217  1.00  0.00     0.000 HD 
BRANCH  39  41
HETATM   41  C   UNL     1      -9.562  15.343  69.061  1.00  0.00    -0.236 C  
HETATM   42  C   UNL     1      -8.406  16.719  67.278  1.00  0.00    -0.197 C  
HETATM   43  C   UNL     1      -8.409  15.751  68.194  1.00  0.00    -0.160 C  
HETATM   44  C   UNL     1      -9.597  17.618  67.083  1.00  0.00    -0.278 C  
HETATM   45  H   UNL     1     -12.635  15.987  68.050  1.00  0.00     0.000 HD 
HETATM   46  O   UNL     1     -11.852  15.460  68.158  1.00  0.00    -0.320 OA 
HETATM   47  C   UNL     1     -10.663  17.577  68.208  1.00  0.00    -0.309 C  
HETATM   48  O   UNL     1     -10.180  17.299  65.823  1.00  0.00    -0.533 OA 
HETATM   49  H   UNL     1     -11.008  18.529  69.903  1.00  0.00     0.000 HD 
HETATM   50  O   UNL     1     -10.354  18.554  69.215  1.00  0.00    -0.174 OA 
HETATM   51  C   UNL     1     -10.851  16.211  68.883  1.00  0.00    -0.305 C  
HETATM   52  H   UNL     1     -10.932  17.867  65.700  1.00  0.00     0.000 HD 
BRANCH  42  53
HETATM   53  C   UNL     1      -7.235  16.985  66.357  1.00  0.00    -0.276 C  
HETATM   54  O   UNL     1      -7.440  18.136  65.543  1.00  0.00    -0.540 OA 
HETATM   55  H   UNL     1      -6.705  18.302  64.964  1.00  0.00     0.000 HD 
ENDBRANCH  42  53
ENDBRANCH  39  41
ENDBRANCH  31  39
ENDBRANCH  27  28
ENDBRANCH  23  27
ENDBRANCH  13  14
ENDBRANCH   4  13
ENDBRANCH   1   4
BRANCH   1  56
HETATM   56  C   UNL     1      -5.143   3.321  65.975  1.00  0.00    -0.008 C  
HETATM   57  O   UNL     1      -5.190   2.178  66.833  1.00  0.00    -0.008 OA 
HETATM   58  H   UNL     1      -4.514   1.566  66.568  1.00  0.00     0.000 HD 
ENDBRANCH   1  56
TORSDOF 12
ENDMDL
MODEL      175
REMARK 921   NORMALIZED FREE ENERGY PREDICTED BY IDOCK:   -3.98 KCAL/MOL
REMARK 922        TOTAL FREE ENERGY PREDICTED BY IDOCK:   -9.97 KCAL/MOL
REMARK 923 INTER-LIGAND FREE ENERGY PREDICTED BY IDOCK:   -8.04 KCAL/MOL
REMARK 924 INTRA-LIGAND FREE ENERGY PREDICTED BY IDOCK:   -1.93 KCAL/MOL
REMARK 927      BINDING AFFINITY PREDICTED BY RF-SCORE:    0.00 PKD
ROOT
HETATM    1  C   UNL     1      -9.903   7.768  71.808  1.00  0.00    -0.167 C  
HETATM    2  H   UNL     1     -11.723   8.086  72.394  1.00  0.00     0.000 HD 
HETATM    3  O   UNL     1     -11.089   8.569  71.876  1.00  0.00    -0.279 OA 
ENDROOT
BRANCH   1   4
HETATM    4  C   UNL     1     -10.175   6.330  71.272  1.00  0.00    -0.200 C  
BRANCH   4   5
HETATM    5  C   UNL     1     -11.059   5.485  72.243  1.00  0.00    -0.237 C  
HETATM    6  O   UNL     1     -12.349   6.084  72.436  1.00  0.00    -0.516 OA 
HETATM    7  H   UNL     1     -12.887   5.569  73.026  1.00  0.00     0.000 HD 
BRANCH   5   8
HETATM    8  C   UNL     1     -10.454   5.262  73.635  1.00  0.00    -0.255 C  
HETATM    9  C   UNL     1     -11.132   4.116  74.352  1.00  0.00     0.312 C  
HETATM   10  O   UNL     1     -10.658   6.463  74.397  1.00  0.00    -0.402 OA 
HETATM   11  O   UNL     1     -10.738   2.955  74.271  1.00  0.00    -0.175 OA 
HETATM   12  H   UNL     1     -10.283   6.325  75.259  1.00  0.00     0.000 HD 
ENDBRANCH   5   8
ENDBRANCH   4   5
BRANCH   4  13
HETATM   13  O   UNL     1      -8.958   5.604  70.976  1.00  0.00    -0.138 OA 
BRANCH  13  14
HETATM   14  C   UNL     1      -9.108   4.530  70.032  1.00  0.00    -0.102 C  
HETATM   15  H   UNL     1      -5.472   4.659  68.387  1.00  0.00     0.000 HD 
HETATM   16  O   UNL     1      -6.740   3.816  70.300  1.00  0.00    -0.032 OA 
HETATM   17  C   UNL     1      -7.759   4.212  69.368  1.00  0.00    -0.053 C  
HETATM   18  O   UNL     1     -10.047   4.804  69.003  1.00  0.00    -0.175 OA 
HETATM   19  O   UNL     1      -6.126   5.026  67.804  1.00  0.00    -0.025 OA 
HETATM   20  C   UNL     1      -9.745   5.970  68.231  1.00  0.00    -0.124 C  
HETATM   21  H   UNL     1      -5.906   3.619  69.889  1.00  0.00     0.000 HD 
HETATM   22  C   UNL     1      -7.262   5.427  68.596  1.00  0.00    -0.066 C  
HETATM   23  C   UNL     1      -8.320   6.021  67.653  1.00  0.00    -0.108 C  
BRANCH  20  24
HETATM   24  C   UNL     1     -10.826   6.085  67.131  1.00  0.00    -0.329 C  
HETATM   25  O   UNL     1     -11.160   7.431  66.785  1.00  0.00    -0.507 OA 
HETATM   26  H   UNL     1     -11.824   7.501  66.109  1.00  0.00     0.000 HD 
ENDBRANCH  20  24
BRANCH  23  27
HETATM   27  O   UNL     1      -8.044   7.425  67.385  1.00  0.00    -0.110 OA 
BRANCH  27  28
HETATM   28  C   UNL     1      -6.773   7.647  66.763  1.00  0.00    -0.066 C  
HETATM   29  O   UNL     1      -6.866   7.471  65.358  1.00  0.00    -0.047 OA 
HETATM   30  C   UNL     1      -7.788   8.382  64.755  1.00  0.00    -0.128 C  
HETATM   31  C   UNL     1      -7.259   9.831  64.912  1.00  0.00    -0.129 C  
HETATM   32  C   UNL     1      -7.957   7.908  63.314  1.00  0.00    -0.125 C  
HETATM   33  C   UNL     1      -7.067  10.139  66.422  1.00  0.00    -0.107 C  
HETATM   34  H   UNL     1      -6.243  11.566  67.525  1.00  0.00     0.000 HD 
HETATM   35  C   UNL     1      -6.241   9.048  67.107  1.00  0.00    -0.059 C  
HETATM   36  O   UNL     1      -6.360  11.378  66.601  1.00  0.00    -0.134 OA 
HETATM   37  O   UNL     1      -6.210   9.272  68.528  1.00  0.00    -0.048 OA 
HETATM   38  H   UNL     1      -5.881  10.137  68.741  1.00  0.00     0.000 HD 
BRANCH  31  39
HETATM   39  N   UNL     1      -8.162  10.775  64.209  1.00  0.00    -0.368 NA 
HETATM   40  H   UNL     1      -7.818  11.433  63.510  1.00  0.00     0.000 HD 
BRANCH  39  41
HETATM   41  C   UNL     1      -9.605  10.704  64.586  1.00  0.00    -0.280 C  
HETATM   42  C   UNL     1     -10.544  12.354  66.262  1.00  0.00    -0.277 C  
HETATM   43  C   UNL     1      -9.805  11.287  65.952  1.00  0.00    -0.272 C  
HETATM   44  C   UNL     1     -11.379  13.056  65.226  1.00  0.00    -0.295 C  
HETATM   45  H   UNL     1     -10.013  12.634  61.942  1.00  0.00     0.000 HD 
HETATM   46  O   UNL     1      -9.522  12.205  62.633  1.00  0.00     0.030 OA 
HETATM   47  C   UNL     1     -11.594  12.286  63.897  1.00  0.00    -0.444 C  
HETATM   48  O   UNL     1     -10.787  14.329  64.981  1.00  0.00    -0.355 OA 
HETATM   49  H   UNL     1     -12.902  10.996  63.173  1.00  0.00     0.000 HD 
HETATM   50  O   UNL     1     -12.771  11.467  63.988  1.00  0.00    -0.075 OA 
HETATM   51  C   UNL     1     -10.414  11.412  63.449  1.00  0.00    -0.390 C  
HETATM   52  H   UNL     1     -11.315  14.772  64.327  1.00  0.00     0.000 HD 
BRANCH  42  53
HETATM   53  C   UNL     1     -10.594  12.953  67.650  1.00  0.00    -0.223 C  
HETATM   54  O   UNL     1     -11.714  13.813  67.826  1.00  0.00    -0.318 OA 
HETATM   55  H   UNL     1     -11.745  14.190  68.698  1.00  0.00     0.000 HD 
ENDBRANCH  42  53
ENDBRANCH  39  41
ENDBRANCH  31  39
ENDBRANCH  27  28
ENDBRANCH  23  27
ENDBRANCH  13  14
ENDBRANCH   4  13
ENDBRANCH   1   4
BRANCH   1  56
HETATM   56  C   UNL     1      -8.882   8.545  70.974  1.00  0.00    -0.175 C  
HETATM   57  O   UNL     1      -7.570   8.077  71.292  1.00  0.00    -0.072 OA 
HETATM   58  H   UNL     1      -6.936   8.559  70.774  1.00  0.00     0.000 HD 
ENDBRANCH   1  56
TORSDOF 12
ENDMDL
MODEL      176
REMARK 921   NORMALIZED FREE ENERGY PREDICTED BY IDOCK:   -3.93 KCAL/MOL
REMARK 922        TOTAL FREE ENERGY PREDICTED BY IDOCK:   -9.88 KCAL/MOL
REMARK 923 INTER-LIGAND FREE ENERGY PREDICTED BY IDOCK:   -8.47 KCAL/MOL
REMARK 924 INTRA-LIGAND FREE ENERGY PREDICTED BY IDOCK:   -1.41 KCAL/MOL
REMARK 927      BINDING AFFINITY PREDICTED BY RF-SCORE:    0.00 PKD
ROOT
HETATM    1  C   UNL     1      -5.898   9.264  66.740  1.00  0.00    -0.055 C  
HETATM    2  H   UNL     1      -4.985   7.854  65.772  1.00  0.00     0.000 HD 
HETATM    3  O   UNL     1      -5.220   8.003  66.681  1.00  0.00    -0.027 OA 
ENDROOT
BRANCH   1   4
HETATM    4  C   UNL     1      -7.112   9.342  65.766  1.00  0.00    -0.091 C  
BRANCH   4   5
HETATM    5  C   UNL     1      -6.724   9.917  64.367  1.00  0.00    -0.125 C  
HETATM    6  O   UNL     1      -7.759  10.759  63.839  1.00  0.00    -0.353 OA 
HETATM    7  H   UNL     1      -7.522  11.109  62.988  1.00  0.00     0.000 HD 
BRANCH   5   8
HETATM    8  C   UNL     1      -6.417   8.858  63.300  1.00  0.00    -0.090 C  
HETATM    9  C   UNL     1      -7.542   7.854  63.184  1.00  0.00    -0.126 C  
HETATM   10  O   UNL     1      -5.225   8.164  63.702  1.00  0.00    -0.047 OA 
HETATM   11  O   UNL     1      -8.485   7.999  62.409  1.00  0.00    -0.157 OA 
HETATM   12  H   UNL     1      -5.035   7.509  63.041  1.00  0.00     0.000 HD 
ENDBRANCH   5   8
ENDBRANCH   4   5
BRANCH   4  13
HETATM   13  O   UNL     1      -8.216  10.107  66.309  1.00  0.00    -0.121 OA 
BRANCH  13  14
HETATM   14  C   UNL     1      -9.485   9.865  65.680  1.00  0.00    -0.235 C  
HETATM   15  H   UNL     1     -11.816  11.851  68.244  1.00  0.00     0.000 HD 
HETATM   16  O   UNL     1     -10.348  12.113  66.307  1.00  0.00    -0.215 OA 
HETATM   17  C   UNL     1     -10.585  10.698  66.361  1.00  0.00    -0.175 C  
HETATM   18  O   UNL     1      -9.888   8.504  65.711  1.00  0.00    -0.070 OA 
HETATM   19  O   UNL     1     -11.897  10.911  68.363  1.00  0.00    -0.498 OA 
HETATM   20  C   UNL     1      -9.987   7.954  67.029  1.00  0.00    -0.252 C  
HETATM   21  H   UNL     1     -11.027  12.627  66.728  1.00  0.00     0.000 HD 
HETATM   22  C   UNL     1     -10.716  10.285  67.821  1.00  0.00    -0.275 C  
HETATM   23  C   UNL     1     -10.847   8.766  68.014  1.00  0.00     0.008 C  
BRANCH  20  24
HETATM   24  C   UNL     1     -10.486   6.498  66.882  1.00  0.00    -0.277 C  
HETATM   25  O   UNL     1     -11.327   6.062  67.951  1.00  0.00    -0.346 OA 
HETATM   26  H   UNL     1     -11.633   5.167  67.860  1.00  0.00     0.000 HD 
ENDBRANCH  20  24
BRANCH  23  27
HETATM   27  O   UNL     1     -10.412   8.374  69.346  1.00  0.00    -0.217 OA 
BRANCH  27  28
HETATM   28  C   UNL     1     -10.798   9.302  70.367  1.00  0.00    -0.254 C  
HETATM   29  O   UNL     1     -12.116   9.030  70.817  1.00  0.00    -0.242 OA 
HETATM   30  C   UNL     1     -12.240   7.721  71.378  1.00  0.00    -0.319 C  
HETATM   31  C   UNL     1     -11.383   7.627  72.666  1.00  0.00    -0.370 C  
HETATM   32  C   UNL     1     -13.737   7.496  71.580  1.00  0.00    -0.460 C  
HETATM   33  C   UNL     1      -9.905   7.952  72.315  1.00  0.00    -0.215 C  
HETATM   34  H   UNL     1      -8.218   8.306  73.295  1.00  0.00     0.000 HD 
HETATM   35  C   UNL     1      -9.799   9.265  71.535  1.00  0.00    -0.175 C  
HETATM   36  O   UNL     1      -9.121   8.107  73.510  1.00  0.00    -0.260 OA 
HETATM   37  O   UNL     1      -8.447   9.465  71.087  1.00  0.00    -0.303 OA 
HETATM   38  H   UNL     1      -7.830   9.442  71.808  1.00  0.00     0.000 HD 
BRANCH  31  39
HETATM   39  N   UNL     1     -11.578   6.302  73.304  1.00  0.00    -0.358 NA 
HETATM   40  H   UNL     1     -11.837   6.208  74.286  1.00  0.00     0.000 HD 
BRANCH  39  41
HETATM   41  C   UNL     1     -11.372   5.114  72.424  1.00  0.00    -0.058 C  
HETATM   42  C   UNL     1      -9.327   4.994  70.937  1.00  0.00    -0.204 C  
HETATM   43  C   UNL     1     -10.525   5.490  71.246  1.00  0.00    -0.306 C  
HETATM   44  C   UNL     1      -8.715   3.870  71.729  1.00  0.00    -0.099 C  
HETATM   45  H   UNL     1      -9.924   3.840  75.100  1.00  0.00     0.000 HD 
HETATM   46  O   UNL     1     -10.284   4.532  74.557  1.00  0.00    -0.199 OA 
HETATM   47  C   UNL     1      -9.678   3.114  72.681  1.00  0.00    -0.135 C  
HETATM   48  O   UNL     1      -7.606   4.400  72.450  1.00  0.00    -0.075 OA 
HETATM   49  H   UNL     1     -10.881   1.552  72.572  1.00  0.00     0.000 HD 
HETATM   50  O   UNL     1     -10.291   2.015  71.988  1.00  0.00    -0.157 OA 
HETATM   51  C   UNL     1     -10.778   3.975  73.318  1.00  0.00    -0.201 C  
HETATM   52  H   UNL     1      -7.221   3.689  72.950  1.00  0.00     0.000 HD 
BRANCH  42  53
HETATM   53  C   UNL     1      -8.482   5.519  69.797  1.00  0.00    -0.105 C  
HETATM   54  O   UNL     1      -7.532   6.488  70.231  1.00  0.00    -0.089 OA 
HETATM   55  H   UNL     1      -7.002   6.818  69.515  1.00  0.00     0.000 HD 
ENDBRANCH  42  53
ENDBRANCH  39  41
ENDBRANCH  31  39
ENDBRANCH  27  28
ENDBRANCH  23  27
ENDBRANCH  13  14
ENDBRANCH   4  13
ENDBRANCH   1   4
BRANCH   1  56
HETATM   56  C   UNL     1      -6.276   9.503  68.204  1.00  0.00    -0.056 C  
HETATM   57  O   UNL     1      -7.514   8.842  68.477  1.00  0.00    -0.083 OA 
HETATM   58  H   UNL     1      -7.749   8.990  69.386  1.00  0.00     0.000 HD 
ENDBRANCH   1  56
TORSDOF 12
ENDMDL
MODEL      177
REMARK 921   NORMALIZED FREE ENERGY PREDICTED BY IDOCK:   -3.86 KCAL/MOL
REMARK 922        TOTAL FREE ENERGY PREDICTED BY IDOCK:   -9.76 KCAL/MOL
REMARK 923 INTER-LIGAND FREE ENERGY PREDICTED BY IDOCK:   -9.70 KCAL/MOL
REMARK 924 INTRA-LIGAND FREE ENERGY PREDICTED BY IDOCK:   -0.06 KCAL/MOL
REMARK 927      BINDING AFFINITY PREDICTED BY RF-SCORE:    0.00 PKD
ROOT
HETATM    1  C   UNL     1      -7.300  13.137  67.959  1.00  0.00    -0.125 C  
HETATM    2  H   UNL     1      -8.081  12.463  69.600  1.00  0.00     0.000 HD 
HETATM    3  O   UNL     1      -7.197  12.556  69.265  1.00  0.00     0.005 OA 
ENDROOT
BRANCH   1   4
HETATM    4  C   UNL     1      -8.109  14.468  67.953  1.00  0.00    -0.148 C  
BRANCH   4   5
HETATM    5  C   UNL     1      -7.193  15.729  68.048  1.00  0.00    -0.130 C  
HETATM    6  O   UNL     1      -7.236  16.313  69.359  1.00  0.00    -0.225 OA 
HETATM    7  H   UNL     1      -6.679  17.079  69.418  1.00  0.00     0.000 HD 
BRANCH   5   8
HETATM    8  C   UNL     1      -7.526  16.844  67.049  1.00  0.00    -0.196 C  
HETATM    9  C   UNL     1      -8.210  18.007  67.732  1.00  0.00    -0.238 C  
HETATM   10  O   UNL     1      -8.423  16.298  66.068  1.00  0.00    -0.324 OA 
HETATM   11  O   UNL     1      -7.591  18.959  68.202  1.00  0.00    -0.260 OA 
HETATM   12  H   UNL     1      -8.629  16.989  65.449  1.00  0.00     0.000 HD 
ENDBRANCH   5   8
ENDBRANCH   4   5
BRANCH   4  13
HETATM   13  O   UNL     1      -9.108  14.520  69.001  1.00  0.00    -0.155 OA 
BRANCH  13  14
HETATM   14  C   UNL     1     -10.290  15.269  68.673  1.00  0.00    -0.232 C  
HETATM   15  H   UNL     1     -12.856  13.454  71.136  1.00  0.00     0.000 HD 
HETATM   16  O   UNL     1     -11.129  15.181  71.013  1.00  0.00    -0.455 OA 
HETATM   17  C   UNL     1     -11.433  14.909  69.636  1.00  0.00    -0.294 C  
HETATM   18  O   UNL     1     -10.753  15.053  67.347  1.00  0.00    -0.276 OA 
HETATM   19  O   UNL     1     -12.994  13.183  70.236  1.00  0.00     0.110 OA 
HETATM   20  C   UNL     1     -11.054  13.687  67.049  1.00  0.00    -0.301 C  
HETATM   21  H   UNL     1     -11.835  14.958  71.608  1.00  0.00     0.000 HD 
HETATM   22  C   UNL     1     -11.780  13.433  69.499  1.00  0.00    -0.324 C  
HETATM   23  C   UNL     1     -12.002  12.993  68.044  1.00  0.00    -0.290 C  
BRANCH  20  24
HETATM   24  C   UNL     1     -11.592  13.641  65.601  1.00  0.00    -0.328 C  
HETATM   25  O   UNL     1     -12.599  12.650  65.387  1.00  0.00    -0.641 OA 
HETATM   26  H   UNL     1     -12.929  12.622  64.496  1.00  0.00     0.000 HD 
ENDBRANCH  20  24
BRANCH  23  27
HETATM   27  O   UNL     1     -11.769  11.565  67.893  1.00  0.00    -0.489 OA 
BRANCH  27  28
HETATM   28  C   UNL     1     -10.398  11.190  68.069  1.00  0.00    -0.185 C  
HETATM   29  O   UNL     1     -10.172  10.724  69.391  1.00  0.00    -0.217 OA 
HETATM   30  C   UNL     1     -10.960   9.573  69.703  1.00  0.00    -0.212 C  
HETATM   31  C   UNL     1     -10.516   8.385  68.812  1.00  0.00    -0.178 C  
HETATM   32  C   UNL     1     -10.794   9.352  71.205  1.00  0.00    -0.427 C  
HETATM   33  C   UNL     1     -10.672   8.787  67.320  1.00  0.00    -0.147 C  
HETATM   34  H   UNL     1     -10.149   8.057  65.551  1.00  0.00     0.000 HD 
HETATM   35  C   UNL     1      -9.991  10.128  67.035  1.00  0.00    -0.199 C  
HETATM   36  O   UNL     1     -10.053   7.810  66.464  1.00  0.00    -0.233 OA 
HETATM   37  O   UNL     1     -10.281  10.553  65.692  1.00  0.00    -0.262 OA 
HETATM   38  H   UNL     1     -10.030   9.898  65.053  1.00  0.00     0.000 HD 
BRANCH  31  39
HETATM   39  N   UNL     1     -11.265   7.163  69.193  1.00  0.00    -0.472 NA 
HETATM   40  H   UNL     1     -12.263   7.184  69.404  1.00  0.00     0.000 HD 
BRANCH  39  41
HETATM   41  C   UNL     1     -10.473   5.900  69.250  1.00  0.00    -0.274 C  
HETATM   42  C   UNL     1      -9.353   5.027  67.153  1.00  0.00    -0.132 C  
HETATM   43  C   UNL     1     -10.437   5.257  67.896  1.00  0.00    -0.154 C  
HETATM   44  C   UNL     1      -7.971   5.312  67.674  1.00  0.00    -0.100 C  
HETATM   45  H   UNL     1      -8.014   7.912  70.136  1.00  0.00     0.000 HD 
HETATM   46  O   UNL     1      -8.866   7.692  69.779  1.00  0.00    -0.139 OA 
HETATM   47  C   UNL     1      -7.862   5.558  69.201  1.00  0.00    -0.091 C  
HETATM   48  O   UNL     1      -7.454   6.423  66.946  1.00  0.00    -0.081 OA 
HETATM   49  H   UNL     1      -7.569   4.466  70.820  1.00  0.00     0.000 HD 
HETATM   50  O   UNL     1      -7.635   4.315  69.884  1.00  0.00    -0.052 OA 
HETATM   51  C   UNL     1      -9.069   6.262  69.838  1.00  0.00    -0.144 C  
HETATM   52  H   UNL     1      -6.581   6.603  67.275  1.00  0.00     0.000 HD 
BRANCH  42  53
HETATM   53  C   UNL     1      -9.416   4.486  65.742  1.00  0.00    -0.172 C  
HETATM   54  O   UNL     1      -8.132   4.125  65.245  1.00  0.00    -0.099 OA 
HETATM   55  H   UNL     1      -8.171   3.785  64.358  1.00  0.00     0.000 HD 
ENDBRANCH  42  53
ENDBRANCH  39  41
ENDBRANCH  31  39
ENDBRANCH  27  28
ENDBRANCH  23  27
ENDBRANCH  13  14
ENDBRANCH   4  13
ENDBRANCH   1   4
BRANCH   1  56
HETATM   56  C   UNL     1      -5.875  13.288  67.420  1.00  0.00     0.063 C  
HETATM   57  O   UNL     1      -5.629  12.252  66.465  1.00  0.00    -0.477 OA 
HETATM   58  H   UNL     1      -4.744  12.346  66.131  1.00  0.00     0.000 HD 
ENDBRANCH   1  56
TORSDOF 12
ENDMDL
MODEL      178
REMARK 921   NORMALIZED FREE ENERGY PREDICTED BY IDOCK:   -3.84 KCAL/MOL
REMARK 922        TOTAL FREE ENERGY PREDICTED BY IDOCK:   -9.73 KCAL/MOL
REMARK 923 INTER-LIGAND FREE ENERGY PREDICTED BY IDOCK:   -8.12 KCAL/MOL
REMARK 924 INTRA-LIGAND FREE ENERGY PREDICTED BY IDOCK:   -1.62 KCAL/MOL
REMARK 927      BINDING AFFINITY PREDICTED BY RF-SCORE:    0.00 PKD
ROOT
HETATM    1  C   UNL     1     -10.962  15.741  67.375  1.00  0.00    -0.279 C  
HETATM    2  H   UNL     1     -12.670  15.388  66.528  1.00  0.00     0.000 HD 
HETATM    3  O   UNL     1     -12.227  16.165  66.851  1.00  0.00     1.227 OA 
ENDROOT
BRANCH   1   4
HETATM    4  C   UNL     1     -10.121  14.933  66.342  1.00  0.00    -0.284 C  
BRANCH   4   5
HETATM    5  C   UNL     1     -10.715  15.000  64.900  1.00  0.00    -0.397 C  
HETATM    6  O   UNL     1     -10.800  16.354  64.429  1.00  0.00    -0.996 OA 
HETATM    7  H   UNL     1     -11.162  16.395  63.551  1.00  0.00     0.000 HD 
BRANCH   5   8
HETATM    8  C   UNL     1     -12.112  14.384  64.750  1.00  0.00    -0.452 C  
HETATM    9  C   UNL     1     -12.037  12.986  64.176  1.00  0.00    -0.427 C  
HETATM   10  O   UNL     1     -12.859  15.210  63.843  1.00  0.00    -0.678 OA 
HETATM   11  O   UNL     1     -11.945  11.983  64.881  1.00  0.00    -0.316 OA 
HETATM   12  H   UNL     1     -13.724  14.828  63.750  1.00  0.00     0.000 HD 
ENDBRANCH   5   8
ENDBRANCH   4   5
BRANCH   4  13
HETATM   13  O   UNL     1      -9.948  13.547  66.725  1.00  0.00    -0.255 OA 
BRANCH  13  14
HETATM   14  C   UNL     1      -9.318  13.346  68.001  1.00  0.00    -0.217 C  
HETATM   15  H   UNL     1      -5.596  12.644  66.733  1.00  0.00     0.000 HD 
HETATM   16  O   UNL     1      -7.201  14.416  67.248  1.00  0.00    -0.259 OA 
HETATM   17  C   UNL     1      -7.792  13.245  67.833  1.00  0.00    -0.152 C  
HETATM   18  O   UNL     1      -9.760  12.179  68.679  1.00  0.00    -0.178 OA 
HETATM   19  O   UNL     1      -6.020  11.842  67.016  1.00  0.00    -0.127 OA 
HETATM   20  C   UNL     1      -9.562  10.967  67.945  1.00  0.00    -0.172 C  
HETATM   21  H   UNL     1      -6.259  14.353  67.144  1.00  0.00     0.000 HD 
HETATM   22  C   UNL     1      -7.447  12.043  66.963  1.00  0.00    -0.106 C  
HETATM   23  C   UNL     1      -8.132  10.745  67.420  1.00  0.00    -0.112 C  
BRANCH  20  24
HETATM   24  C   UNL     1     -10.041   9.803  68.842  1.00  0.00    -0.183 C  
HETATM   25  O   UNL     1     -11.429   9.864  69.179  1.00  0.00    -0.444 OA 
HETATM   26  H   UNL     1     -11.723   9.149  69.731  1.00  0.00     0.000 HD 
ENDBRANCH  20  24
BRANCH  23  27
HETATM   27  O   UNL     1      -8.250   9.806  66.315  1.00  0.00    -0.115 OA 
BRANCH  27  28
HETATM   28  C   UNL     1      -7.229   9.964  65.322  1.00  0.00    -0.131 C  
HETATM   29  O   UNL     1      -6.089   9.182  65.648  1.00  0.00    -0.054 OA 
HETATM   30  C   UNL     1      -6.389   7.786  65.716  1.00  0.00    -0.042 C  
HETATM   31  C   UNL     1      -6.798   7.276  64.311  1.00  0.00    -0.048 C  
HETATM   32  C   UNL     1      -5.147   7.124  66.308  1.00  0.00    -0.023 C  
HETATM   33  C   UNL     1      -8.023   8.092  63.813  1.00  0.00    -0.123 C  
HETATM   34  H   UNL     1      -9.036   8.315  62.123  1.00  0.00     0.000 HD 
HETATM   35  C   UNL     1      -7.768   9.596  63.931  1.00  0.00    -0.131 C  
HETATM   36  O   UNL     1      -8.288   7.816  62.427  1.00  0.00    -0.153 OA 
HETATM   37  O   UNL     1      -8.967  10.326  63.614  1.00  0.00    -0.196 OA 
HETATM   38  H   UNL     1      -9.301  10.099  62.754  1.00  0.00     0.000 HD 
BRANCH  31  39
HETATM   39  N   UNL     1      -7.022   5.810  64.353  1.00  0.00    -0.050 NA 
HETATM   40  H   UNL     1      -6.384   5.153  63.904  1.00  0.00     0.000 HD 
BRANCH  39  41
HETATM   41  C   UNL     1      -8.236   5.354  65.093  1.00  0.00    -0.138 C  
HETATM   42  C   UNL     1      -9.677   3.514  64.120  1.00  0.00    -0.168 C  
HETATM   43  C   UNL     1      -9.229   4.770  64.134  1.00  0.00    -0.010 C  
HETATM   44  C   UNL     1      -9.286   2.529  65.188  1.00  0.00    -0.082 C  
HETATM   45  H   UNL     1      -6.105   3.348  66.616  1.00  0.00     0.000 HD 
HETATM   46  O   UNL     1      -6.399   3.944  65.936  1.00  0.00    -0.031 OA 
HETATM   47  C   UNL     1      -8.629   3.135  66.455  1.00  0.00    -0.119 C  
HETATM   48  O   UNL     1      -8.431   1.558  64.592  1.00  0.00    -0.074 OA 
HETATM   49  H   UNL     1      -9.235   3.836  68.199  1.00  0.00     0.000 HD 
HETATM   50  O   UNL     1      -9.639   3.465  67.423  1.00  0.00    -0.208 OA 
HETATM   51  C   UNL     1      -7.752   4.371  66.211  1.00  0.00    -0.094 C  
HETATM   52  H   UNL     1      -8.184   0.937  65.267  1.00  0.00     0.000 HD 
BRANCH  42  53
HETATM   53  C   UNL     1     -10.587   2.971  63.040  1.00  0.00    -0.198 C  
HETATM   54  O   UNL     1     -11.512   2.013  63.544  1.00  0.00    -0.595 OA 
HETATM   55  H   UNL     1     -12.083   1.672  62.865  1.00  0.00     0.000 HD 
ENDBRANCH  42  53
ENDBRANCH  39  41
ENDBRANCH  31  39
ENDBRANCH  27  28
ENDBRANCH  23  27
ENDBRANCH  13  14
ENDBRANCH   4  13
ENDBRANCH   1   4
BRANCH   1  56
HETATM   56  C   UNL     1     -10.250  16.992  67.894  1.00  0.00    -0.317 C  
HETATM   57  O   UNL     1      -8.917  17.014  67.377  1.00  0.00    -0.208 OA 
HETATM   58  H   UNL     1      -8.474  17.791  67.699  1.00  0.00     0.000 HD 
ENDBRANCH   1  56
TORSDOF 12
ENDMDL
MODEL      179
REMARK 921   NORMALIZED FREE ENERGY PREDICTED BY IDOCK:   -3.78 KCAL/MOL
REMARK 922        TOTAL FREE ENERGY PREDICTED BY IDOCK:   -9.62 KCAL/MOL
REMARK 923 INTER-LIGAND FREE ENERGY PREDICTED BY IDOCK:   -8.02 KCAL/MOL
REMARK 924 INTRA-LIGAND FREE ENERGY PREDICTED BY IDOCK:   -1.60 KCAL/MOL
REMARK 927      BINDING AFFINITY PREDICTED BY RF-SCORE:    0.00 PKD
ROOT
HETATM    1  C   UNL     1      -9.851   7.126  73.151  1.00  0.00    -0.211 C  
HETATM    2  H   UNL     1     -11.660   6.631  73.639  1.00  0.00     0.000 HD 
HETATM    3  O   UNL     1     -11.141   7.425  73.698  1.00  0.00    -0.258 OA 
ENDROOT
BRANCH   1   4
HETATM    4  C   UNL     1      -9.928   6.541  71.708  1.00  0.00    -0.176 C  
BRANCH   4   5
HETATM    5  C   UNL     1      -9.253   5.138  71.592  1.00  0.00    -0.145 C  
HETATM    6  O   UNL     1     -10.048   4.119  72.216  1.00  0.00    -0.170 OA 
HETATM    7  H   UNL     1      -9.637   3.265  72.146  1.00  0.00     0.000 HD 
BRANCH   5   8
HETATM    8  C   UNL     1      -7.848   5.048  72.201  1.00  0.00    -0.110 C  
HETATM    9  C   UNL     1      -6.810   4.738  71.145  1.00  0.00    -0.039 C  
HETATM   10  O   UNL     1      -7.855   3.980  73.162  1.00  0.00    -0.081 OA 
HETATM   11  O   UNL     1      -6.211   5.614  70.524  1.00  0.00    -0.028 OA 
HETATM   12  H   UNL     1      -6.985   3.924  73.539  1.00  0.00     0.000 HD 
ENDBRANCH   5   8
ENDBRANCH   4   5
BRANCH   4  13
HETATM   13  O   UNL     1      -9.362   7.430  70.714  1.00  0.00    -0.159 OA 
BRANCH  13  14
HETATM   14  C   UNL     1     -10.025   7.410  69.439  1.00  0.00    -0.176 C  
HETATM   15  H   UNL     1      -6.847   8.017  67.098  1.00  0.00     0.000 HD 
HETATM   16  O   UNL     1      -8.091   6.308  68.327  1.00  0.00    -0.110 OA 
HETATM   17  C   UNL     1      -8.991   7.427  68.300  1.00  0.00    -0.130 C  
HETATM   18  O   UNL     1     -10.911   8.502  69.239  1.00  0.00    -0.175 OA 
HETATM   19  O   UNL     1      -7.380   8.801  67.163  1.00  0.00    -0.079 OA 
HETATM   20  C   UNL     1     -10.288   9.786  69.342  1.00  0.00    -0.217 C  
HETATM   21  H   UNL     1      -7.452   6.319  67.624  1.00  0.00     0.000 HD 
HETATM   22  C   UNL     1      -8.171   8.709  68.365  1.00  0.00    -0.122 C  
HETATM   23  C   UNL     1      -9.033   9.977  68.471  1.00  0.00    -0.124 C  
BRANCH  20  24
HETATM   24  C   UNL     1     -11.372  10.847  69.045  1.00  0.00    -0.281 C  
HETATM   25  O   UNL     1     -12.167  10.557  67.893  1.00  0.00    -0.312 OA 
HETATM   26  H   UNL     1     -12.833  11.210  67.711  1.00  0.00     0.000 HD 
ENDBRANCH  20  24
BRANCH  23  27
HETATM   27  O   UNL     1      -8.282  11.064  69.080  1.00  0.00    -0.150 OA 
BRANCH  27  28
HETATM   28  C   UNL     1      -7.320  11.656  68.198  1.00  0.00    -0.092 C  
HETATM   29  O   UNL     1      -7.935  12.049  66.980  1.00  0.00    -0.163 OA 
HETATM   30  C   UNL     1      -8.966  13.018  67.179  1.00  0.00    -0.223 C  
HETATM   31  C   UNL     1      -8.344  14.331  67.721  1.00  0.00    -0.171 C  
HETATM   32  C   UNL     1      -9.680  13.147  65.836  1.00  0.00    -0.190 C  
HETATM   33  C   UNL     1      -7.593  14.026  69.045  1.00  0.00    -0.027 C  
HETATM   34  H   UNL     1      -6.348  14.972  70.266  1.00  0.00     0.000 HD 
HETATM   35  C   UNL     1      -6.629  12.849  68.875  1.00  0.00    -0.095 C  
HETATM   36  O   UNL     1      -6.807  15.159  69.456  1.00  0.00    -0.151 OA 
HETATM   37  O   UNL     1      -6.064  12.486  70.147  1.00  0.00    -0.223 OA 
HETATM   38  H   UNL     1      -5.636  13.224  70.566  1.00  0.00     0.000 HD 
BRANCH  31  39
HETATM   39  N   UNL     1      -9.394  15.371  67.843  1.00  0.00    -0.192 NA 
HETATM   40  H   UNL     1     -10.372  15.180  67.625  1.00  0.00     0.000 HD 
BRANCH  39  41
HETATM   41  C   UNL     1      -8.935  16.714  68.305  1.00  0.00    -0.214 C  
HETATM   42  C   UNL     1      -8.172  18.430  66.606  1.00  0.00    -0.283 C  
HETATM   43  C   UNL     1      -7.992  17.306  67.300  1.00  0.00    -0.207 C  
HETATM   44  C   UNL     1      -9.360  19.321  66.851  1.00  0.00    -0.318 C  
HETATM   45  H   UNL     1     -12.142  17.466  68.133  1.00  0.00     0.000 HD 
HETATM   46  O   UNL     1     -11.364  16.946  67.964  1.00  0.00    -0.190 OA 
HETATM   47  C   UNL     1     -10.154  19.043  68.153  1.00  0.00    -0.395 C  
HETATM   48  O   UNL     1     -10.211  19.233  65.712  1.00  0.00    -0.473 OA 
HETATM   49  H   UNL     1     -10.100  19.648  70.032  1.00  0.00     0.000 HD 
HETATM   50  O   UNL     1      -9.613  19.819  69.235  1.00  0.00    -0.309 OA 
HETATM   51  C   UNL     1     -10.215  17.570  68.582  1.00  0.00    -0.373 C  
HETATM   52  H   UNL     1     -10.961  19.796  65.868  1.00  0.00     0.000 HD 
BRANCH  42  53
HETATM   53  C   UNL     1      -7.228  18.893  65.518  1.00  0.00    -0.060 C  
HETATM   54  O   UNL     1      -5.906  18.399  65.706  1.00  0.00    -0.169 OA 
HETATM   55  H   UNL     1      -5.312  18.690  65.023  1.00  0.00     0.000 HD 
ENDBRANCH  42  53
ENDBRANCH  39  41
ENDBRANCH  31  39
ENDBRANCH  27  28
ENDBRANCH  23  27
ENDBRANCH  13  14
ENDBRANCH   4  13
ENDBRANCH   1   4
BRANCH   1  56
HETATM   56  C   UNL     1      -9.015   8.405  73.245  1.00  0.00    -0.124 C  
HETATM   57  O   UNL     1      -7.633   8.066  73.114  1.00  0.00    -0.126 OA 
HETATM   58  H   UNL     1      -7.114   8.860  73.172  1.00  0.00     0.000 HD 
ENDBRANCH   1  56
TORSDOF 12
ENDMDL
MODEL      180
REMARK 921   NORMALIZED FREE ENERGY PREDICTED BY IDOCK:   -3.77 KCAL/MOL
REMARK 922        TOTAL FREE ENERGY PREDICTED BY IDOCK:   -9.60 KCAL/MOL
REMARK 923 INTER-LIGAND FREE ENERGY PREDICTED BY IDOCK:   -8.65 KCAL/MOL
REMARK 924 INTRA-LIGAND FREE ENERGY PREDICTED BY IDOCK:   -0.95 KCAL/MOL
REMARK 927      BINDING AFFINITY PREDICTED BY RF-SCORE:    0.00 PKD
ROOT
HETATM    1  C   UNL     1     -12.022  14.529  65.790  1.00  0.00    -0.306 C  
HETATM    2  H   UNL     1     -12.637  13.098  66.944  1.00  0.00     0.000 HD 
HETATM    3  O   UNL     1     -12.469  13.185  66.013  1.00  0.00    -0.402 OA 
ENDROOT
BRANCH   1   4
HETATM    4  C   UNL     1     -10.803  14.916  66.680  1.00  0.00    -0.319 C  
BRANCH   4   5
HETATM    5  C   UNL     1     -10.200  16.305  66.303  1.00  0.00    -0.327 C  
HETATM    6  O   UNL     1      -9.152  16.177  65.330  1.00  0.00    -0.248 OA 
HETATM    7  H   UNL     1      -8.785  17.023  65.100  1.00  0.00     0.000 HD 
BRANCH   5   8
HETATM    8  C   UNL     1      -9.624  17.099  67.483  1.00  0.00    -0.254 C  
HETATM    9  C   UNL     1     -10.008  18.559  67.402  1.00  0.00    -0.330 C  
HETATM   10  O   UNL     1      -8.193  16.999  67.419  1.00  0.00    -0.179 OA 
HETATM   11  O   UNL     1     -11.027  19.009  67.923  1.00  0.00    -0.290 OA 
HETATM   12  H   UNL     1      -7.836  17.490  68.150  1.00  0.00     0.000 HD 
ENDBRANCH   5   8
ENDBRANCH   4   5
BRANCH   4  13
HETATM   13  O   UNL     1      -9.756  13.916  66.657  1.00  0.00    -0.270 OA 
BRANCH  13  14
HETATM   14  C   UNL     1      -9.131  13.665  67.928  1.00  0.00    -0.198 C  
HETATM   15  H   UNL     1      -5.550  12.481  66.617  1.00  0.00     0.000 HD 
HETATM   16  O   UNL     1      -6.914  14.449  67.117  1.00  0.00    -0.367 OA 
HETATM   17  C   UNL     1      -7.634  13.372  67.737  1.00  0.00    -0.157 C  
HETATM   18  O   UNL     1      -9.702  12.576  68.638  1.00  0.00    -0.163 OA 
HETATM   19  O   UNL     1      -6.064  11.744  66.924  1.00  0.00    -0.141 OA 
HETATM   20  C   UNL     1      -9.669  11.334  67.929  1.00  0.00    -0.177 C  
HETATM   21  H   UNL     1      -5.988  14.267  66.999  1.00  0.00     0.000 HD 
HETATM   22  C   UNL     1      -7.456  12.119  66.890  1.00  0.00    -0.019 C  
HETATM   23  C   UNL     1      -8.287  10.926  67.387  1.00  0.00    -0.117 C  
BRANCH  20  24
HETATM   24  C   UNL     1     -10.272  10.257  68.860  1.00  0.00    -0.205 C  
HETATM   25  O   UNL     1     -11.678  10.393  69.070  1.00  0.00    -0.462 OA 
HETATM   26  H   UNL     1     -12.049   9.731  69.642  1.00  0.00     0.000 HD 
ENDBRANCH  20  24
BRANCH  23  27
HETATM   27  O   UNL     1      -8.541   9.986  66.305  1.00  0.00    -0.127 OA 
BRANCH  27  28
HETATM   28  C   UNL     1      -7.506   9.007  66.147  1.00  0.00    -0.091 C  
HETATM   29  O   UNL     1      -6.831   8.790  67.377  1.00  0.00    -0.069 OA 
HETATM   30  C   UNL     1      -7.706   8.308  68.400  1.00  0.00    -0.105 C  
HETATM   31  C   UNL     1      -8.228   6.901  68.011  1.00  0.00    -0.115 C  
HETATM   32  C   UNL     1      -6.899   8.363  69.695  1.00  0.00    -0.044 C  
HETATM   33  C   UNL     1      -8.957   6.992  66.643  1.00  0.00    -0.142 C  
HETATM   34  H   UNL     1      -9.695   5.735  65.298  1.00  0.00     0.000 HD 
HETATM   35  C   UNL     1      -8.085   7.693  65.599  1.00  0.00    -0.127 C  
HETATM   36  O   UNL     1      -9.249   5.679  66.135  1.00  0.00    -0.155 OA 
HETATM   37  O   UNL     1      -8.836   7.905  64.390  1.00  0.00    -0.324 OA 
HETATM   38  H   UNL     1      -9.194   7.094  64.051  1.00  0.00     0.000 HD 
BRANCH  31  39
HETATM   39  N   UNL     1      -9.063   6.354  69.109  1.00  0.00    -0.132 NA 
HETATM   40  H   UNL     1     -10.074   6.250  69.018  1.00  0.00     0.000 HD 
BRANCH  39  41
HETATM   41  C   UNL     1      -8.337   5.966  70.353  1.00  0.00    -0.123 C  
HETATM   42  C   UNL     1      -9.613   5.731  72.528  1.00  0.00    -0.168 C  
HETATM   43  C   UNL     1      -9.076   6.470  71.556  1.00  0.00    -0.144 C  
HETATM   44  C   UNL     1      -9.430   4.238  72.569  1.00  0.00    -0.130 C  
HETATM   45  H   UNL     1      -8.907   2.895  69.291  1.00  0.00     0.000 HD 
HETATM   46  O   UNL     1      -9.025   3.838  69.318  1.00  0.00    -0.090 OA 
HETATM   47  C   UNL     1      -8.330   3.667  71.638  1.00  0.00    -0.069 C  
HETATM   48  O   UNL     1     -10.692   3.639  72.286  1.00  0.00     0.013 OA 
HETATM   49  H   UNL     1      -6.397   3.280  71.759  1.00  0.00     0.000 HD 
HETATM   50  O   UNL     1      -7.071   3.630  72.330  1.00  0.00    -0.044 OA 
HETATM   51  C   UNL     1      -8.144   4.413  70.309  1.00  0.00    -0.062 C  
HETATM   52  H   UNL     1     -10.576   2.696  72.312  1.00  0.00     0.000 HD 
BRANCH  42  53
HETATM   53  C   UNL     1     -10.452   6.313  73.644  1.00  0.00    -0.284 C  
HETATM   54  O   UNL     1     -10.940   5.312  74.530  1.00  0.00    -0.367 OA 
HETATM   55  H   UNL     1     -11.467   5.678  75.231  1.00  0.00     0.000 HD 
ENDBRANCH  42  53
ENDBRANCH  39  41
ENDBRANCH  31  39
ENDBRANCH  27  28
ENDBRANCH  23  27
ENDBRANCH  13  14
ENDBRANCH   4  13
ENDBRANCH   1   4
BRANCH   1  56
HETATM   56  C   UNL     1     -11.750  14.670  64.291  1.00  0.00    -0.275 C  
HETATM   57  O   UNL     1     -10.926  13.582  63.866  1.00  0.00    -0.547 OA 
HETATM   58  H   UNL     1     -10.757  13.668  62.934  1.00  0.00     0.000 HD 
ENDBRANCH   1  56
TORSDOF 12
ENDMDL
MODEL      181
REMARK 921   NORMALIZED FREE ENERGY PREDICTED BY IDOCK:   -3.71 KCAL/MOL
REMARK 922        TOTAL FREE ENERGY PREDICTED BY IDOCK:   -9.50 KCAL/MOL
REMARK 923 INTER-LIGAND FREE ENERGY PREDICTED BY IDOCK:   -9.02 KCAL/MOL
REMARK 924 INTRA-LIGAND FREE ENERGY PREDICTED BY IDOCK:   -0.47 KCAL/MOL
REMARK 927      BINDING AFFINITY PREDICTED BY RF-SCORE:    0.00 PKD
ROOT
HETATM    1  C   UNL     1     -10.629   8.594  70.322  1.00  0.00    -0.223 C  
HETATM    2  H   UNL     1     -12.137   7.384  70.189  1.00  0.00     0.000 HD 
HETATM    3  O   UNL     1     -12.034   8.328  70.226  1.00  0.00     0.069 OA 
ENDROOT
BRANCH   1   4
HETATM    4  C   UNL     1      -9.809   7.925  69.179  1.00  0.00    -0.174 C  
BRANCH   4   5
HETATM    5  C   UNL     1      -8.975   6.701  69.675  1.00  0.00    -0.142 C  
HETATM    6  O   UNL     1      -7.849   6.451  68.820  1.00  0.00    -0.106 OA 
HETATM    7  H   UNL     1      -7.341   5.707  69.122  1.00  0.00     0.000 HD 
BRANCH   5   8
HETATM    8  C   UNL     1      -9.761   5.387  69.779  1.00  0.00    -0.184 C  
HETATM    9  C   UNL     1     -10.145   5.089  71.211  1.00  0.00    -0.206 C  
HETATM   10  O   UNL     1      -8.910   4.331  69.305  1.00  0.00    -0.084 OA 
HETATM   11  O   UNL     1     -11.203   5.469  71.708  1.00  0.00    -0.206 OA 
HETATM   12  H   UNL     1      -9.397   3.518  69.369  1.00  0.00     0.000 HD 
ENDBRANCH   5   8
ENDBRANCH   4   5
BRANCH   4  13
HETATM   13  O   UNL     1      -8.934   8.857  68.499  1.00  0.00    -0.134 OA 
BRANCH  13  14
HETATM   14  C   UNL     1      -8.626   8.515  67.137  1.00  0.00    -0.122 C  
HETATM   15  H   UNL     1      -5.510  10.952  66.591  1.00  0.00     0.000 HD 
HETATM   16  O   UNL     1      -6.181   8.785  67.505  1.00  0.00    -0.051 OA 
HETATM   17  C   UNL     1      -7.308   9.177  66.705  1.00  0.00    -0.086 C  
HETATM   18  O   UNL     1      -9.632   8.901  66.211  1.00  0.00    -0.219 OA 
HETATM   19  O   UNL     1      -6.284  11.279  66.147  1.00  0.00    -0.115 OA 
HETATM   20  C   UNL     1      -9.919  10.303  66.212  1.00  0.00    -0.235 C  
HETATM   21  H   UNL     1      -5.366   9.195  67.238  1.00  0.00     0.000 HD 
HETATM   22  C   UNL     1      -7.444  10.693  66.772  1.00  0.00    -0.120 C  
HETATM   23  C   UNL     1      -8.695  11.222  66.054  1.00  0.00    -0.164 C  
BRANCH  20  24
HETATM   24  C   UNL     1     -10.983  10.553  65.118  1.00  0.00     0.416 C  
HETATM   25  O   UNL     1     -10.532  10.263  63.793  1.00  0.00    -0.411 OA 
HETATM   26  H   UNL     1     -11.186  10.417  63.121  1.00  0.00     0.000 HD 
ENDBRANCH  20  24
BRANCH  23  27
HETATM   27  O   UNL     1      -9.091  12.515  66.591  1.00  0.00    -0.220 OA 
BRANCH  27  28
HETATM   28  C   UNL     1     -10.460  12.847  66.326  1.00  0.00    -0.270 C  
HETATM   29  O   UNL     1     -11.093  13.333  67.500  1.00  0.00    -0.257 OA 
HETATM   30  C   UNL     1     -10.469  14.517  68.003  1.00  0.00    -0.236 C  
HETATM   31  C   UNL     1     -10.648  15.669  66.982  1.00  0.00    -0.311 C  
HETATM   32  C   UNL     1     -11.095  14.765  69.374  1.00  0.00    -0.302 C  
HETATM   33  C   UNL     1     -10.030  15.241  65.623  1.00  0.00    -0.364 C  
HETATM   34  H   UNL     1     -10.003  15.915  63.758  1.00  0.00     0.000 HD 
HETATM   35  C   UNL     1     -10.556  13.872  65.185  1.00  0.00    -0.379 C  
HETATM   36  O   UNL     1     -10.380  16.177  64.589  1.00  0.00    -0.425 OA 
HETATM   37  O   UNL     1      -9.856  13.428  64.009  1.00  0.00    -0.724 OA 
HETATM   38  H   UNL     1      -9.915  14.060  63.304  1.00  0.00     0.000 HD 
BRANCH  31  39
HETATM   39  N   UNL     1     -10.084  16.925  67.536  1.00  0.00    -0.274 NA 
HETATM   40  H   UNL     1     -10.668  17.738  67.735  1.00  0.00     0.000 HD 
BRANCH  39  41
HETATM   41  C   UNL     1      -8.613  16.928  67.786  1.00  0.00    -0.208 C  
HETATM   42  C   UNL     1      -7.097  18.340  66.330  1.00  0.00    -0.293 C  
HETATM   43  C   UNL     1      -7.881  17.279  66.526  1.00  0.00    -0.322 C  
HETATM   44  C   UNL     1      -6.770  19.290  67.449  1.00  0.00    -0.197 C  
HETATM   45  H   UNL     1      -9.351  19.322  69.931  1.00  0.00     0.000 HD 
HETATM   46  O   UNL     1      -9.511  18.733  69.203  1.00  0.00    -0.237 OA 
HETATM   47  C   UNL     1      -7.105  18.790  68.878  1.00  0.00    -0.305 C  
HETATM   48  O   UNL     1      -7.430  20.524  67.179  1.00  0.00    -0.300 OA 
HETATM   49  H   UNL     1      -6.186  17.779  70.304  1.00  0.00     0.000 HD 
HETATM   50  O   UNL     1      -5.980  18.085  69.428  1.00  0.00    -0.219 OA 
HETATM   51  C   UNL     1      -8.350  17.899  68.985  1.00  0.00    -0.020 C  
HETATM   52  H   UNL     1      -7.224  21.123  67.886  1.00  0.00     0.000 HD 
BRANCH  42  53
HETATM   53  C   UNL     1      -6.494  18.688  64.986  1.00  0.00    -0.071 C  
HETATM   54  O   UNL     1      -5.472  19.672  65.093  1.00  0.00    -0.159 OA 
HETATM   55  H   UNL     1      -5.093  19.891  64.249  1.00  0.00     0.000 HD 
ENDBRANCH  42  53
ENDBRANCH  39  41
ENDBRANCH  31  39
ENDBRANCH  27  28
ENDBRANCH  23  27
ENDBRANCH  13  14
ENDBRANCH   4  13
ENDBRANCH   1   4
BRANCH   1  56
HETATM   56  C   UNL     1     -10.463  10.114  70.381  1.00  0.00    -0.173 C  
HETATM   57  O   UNL     1     -11.578  10.728  69.729  1.00  0.00    -0.263 OA 
HETATM   58  H   UNL     1     -11.475  11.672  69.765  1.00  0.00     0.000 HD 
ENDBRANCH   1  56
TORSDOF 12
ENDMDL
MODEL      182
REMARK 921   NORMALIZED FREE ENERGY PREDICTED BY IDOCK:   -3.68 KCAL/MOL
REMARK 922        TOTAL FREE ENERGY PREDICTED BY IDOCK:   -9.45 KCAL/MOL
REMARK 923 INTER-LIGAND FREE ENERGY PREDICTED BY IDOCK:   -7.89 KCAL/MOL
REMARK 924 INTRA-LIGAND FREE ENERGY PREDICTED BY IDOCK:   -1.56 KCAL/MOL
REMARK 927      BINDING AFFINITY PREDICTED BY RF-SCORE:    0.00 PKD
ROOT
HETATM    1  C   UNL     1      -9.623  14.080  67.010  1.00  0.00    -0.253 C  
HETATM    2  H   UNL     1     -11.218  14.005  68.108  1.00  0.00     0.000 HD 
HETATM    3  O   UNL     1     -10.820  14.659  67.546  1.00  0.00    -0.274 OA 
ENDROOT
BRANCH   1   4
HETATM    4  C   UNL     1      -9.879  12.721  66.294  1.00  0.00    -0.267 C  
BRANCH   4   5
HETATM    5  C   UNL     1     -11.366  12.257  66.398  1.00  0.00    -0.354 C  
HETATM    6  O   UNL     1     -11.461  10.845  66.641  1.00  0.00    -0.233 OA 
HETATM    7  H   UNL     1     -12.366  10.563  66.705  1.00  0.00     0.000 HD 
BRANCH   5   8
HETATM    8  C   UNL     1     -12.222  12.559  65.161  1.00  0.00    -0.448 C  
HETATM    9  C   UNL     1     -11.385  12.563  63.901  1.00  0.00    -0.438 C  
HETATM   10  O   UNL     1     -12.793  13.866  65.334  1.00  0.00    -0.662 OA 
HETATM   11  O   UNL     1     -11.205  11.556  63.220  1.00  0.00    -0.329 OA 
HETATM   12  H   UNL     1     -13.324  14.052  64.568  1.00  0.00     0.000 HD 
ENDBRANCH   5   8
ENDBRANCH   4   5
BRANCH   4  13
HETATM   13  O   UNL     1      -9.012  11.664  66.774  1.00  0.00    -0.176 OA 
BRANCH  13  14
HETATM   14  C   UNL     1      -8.190  12.021  67.898  1.00  0.00    -0.153 C  
HETATM   15  H   UNL     1      -4.852  10.102  66.838  1.00  0.00     0.000 HD 
HETATM   16  O   UNL     1      -6.139  12.153  66.497  1.00  0.00    -0.492 OA 
HETATM   17  C   UNL     1      -6.740  11.568  67.663  1.00  0.00    -0.079 C  
HETATM   18  O   UNL     1      -8.629  11.458  69.127  1.00  0.00     0.006 OA 
HETATM   19  O   UNL     1      -5.303   9.645  67.539  1.00  0.00    -0.036 OA 
HETATM   20  C   UNL     1      -8.697  10.029  69.123  1.00  0.00    -0.167 C  
HETATM   21  H   UNL     1      -5.243  11.873  66.352  1.00  0.00     0.000 HD 
HETATM   22  C   UNL     1      -6.687  10.052  67.526  1.00  0.00    -0.072 C  
HETATM   23  C   UNL     1      -7.416   9.313  68.659  1.00  0.00    -0.080 C  
BRANCH  20  24
HETATM   24  C   UNL     1      -9.132   9.587  70.540  1.00  0.00    -0.219 C  
HETATM   25  O   UNL     1     -10.453   9.999  70.895  1.00  0.00    -0.361 OA 
HETATM   26  H   UNL     1     -10.720   9.727  71.766  1.00  0.00     0.000 HD 
ENDBRANCH  20  24
BRANCH  23  27
HETATM   27  O   UNL     1      -7.829   7.986  68.230  1.00  0.00    -0.117 OA 
BRANCH  27  28
HETATM   28  C   UNL     1      -7.402   6.942  69.113  1.00  0.00    -0.093 C  
HETATM   29  O   UNL     1      -8.520   6.300  69.706  1.00  0.00    -0.123 OA 
HETATM   30  C   UNL     1      -9.378   5.695  68.735  1.00  0.00    -0.123 C  
HETATM   31  C   UNL     1      -8.622   4.543  68.025  1.00  0.00    -0.102 C  
HETATM   32  C   UNL     1     -10.633   5.274  69.495  1.00  0.00    -0.244 C  
HETATM   33  C   UNL     1      -7.336   5.112  67.365  1.00  0.00    -0.082 C  
HETATM   34  H   UNL     1      -5.703   4.395  66.497  1.00  0.00     0.000 HD 
HETATM   35  C   UNL     1      -6.518   5.931  68.367  1.00  0.00    -0.046 C  
HETATM   36  O   UNL     1      -6.490   4.047  66.900  1.00  0.00    -0.039 OA 
HETATM   37  O   UNL     1      -5.419   6.575  67.697  1.00  0.00    -0.005 OA 
HETATM   38  H   UNL     1      -4.873   5.950  67.236  1.00  0.00     0.000 HD 
BRANCH  31  39
HETATM   39  N   UNL     1      -9.534   3.851  67.080  1.00  0.00    -0.192 NA 
HETATM   40  H   UNL     1      -9.922   2.930  67.282  1.00  0.00     0.000 HD 
BRANCH  39  41
HETATM   41  C   UNL     1      -9.849   4.583  65.819  1.00  0.00    -0.222 C  
HETATM   42  C   UNL     1      -8.136   6.159  64.822  1.00  0.00    -0.132 C  
HETATM   43  C   UNL     1      -9.046   5.847  65.746  1.00  0.00    -0.101 C  
HETATM   44  C   UNL     1      -7.885   5.268  63.636  1.00  0.00    -0.088 C  
HETATM   45  H   UNL     1      -8.684   1.856  64.375  1.00  0.00     0.000 HD 
HETATM   46  O   UNL     1      -8.829   2.460  65.094  1.00  0.00    -0.111 OA 
HETATM   47  C   UNL     1      -8.953   4.173  63.377  1.00  0.00    -0.127 C  
HETATM   48  O   UNL     1      -6.594   4.685  63.796  1.00  0.00    -0.039 OA 
HETATM   49  H   UNL     1     -10.634   4.013  62.353  1.00  0.00     0.000 HD 
HETATM   50  O   UNL     1      -9.980   4.684  62.512  1.00  0.00    -0.044 OA 
HETATM   51  C   UNL     1      -9.609   3.588  64.635  1.00  0.00    -0.168 C  
HETATM   52  H   UNL     1      -6.436   4.122  63.047  1.00  0.00     0.000 HD 
BRANCH  42  53
HETATM   53  C   UNL     1      -7.278   7.403  64.891  1.00  0.00    -0.067 C  
HETATM   54  O   UNL     1      -5.891   7.110  64.761  1.00  0.00    -0.035 OA 
HETATM   55  H   UNL     1      -5.352   7.891  64.805  1.00  0.00     0.000 HD 
ENDBRANCH  42  53
ENDBRANCH  39  41
ENDBRANCH  31  39
ENDBRANCH  27  28
ENDBRANCH  23  27
ENDBRANCH  13  14
ENDBRANCH   4  13
ENDBRANCH   1   4
BRANCH   1  56
HETATM   56  C   UNL     1      -8.981  15.134  66.104  1.00  0.00    -0.166 C  
HETATM   57  O   UNL     1      -9.987  15.686  65.250  1.00  0.00    -0.335 OA 
HETATM   58  H   UNL     1      -9.589  16.340  64.688  1.00  0.00     0.000 HD 
ENDBRANCH   1  56
TORSDOF 12
ENDMDL
MODEL      183
REMARK 921   NORMALIZED FREE ENERGY PREDICTED BY IDOCK:   -3.66 KCAL/MOL
REMARK 922        TOTAL FREE ENERGY PREDICTED BY IDOCK:   -9.41 KCAL/MOL
REMARK 923 INTER-LIGAND FREE ENERGY PREDICTED BY IDOCK:   -8.61 KCAL/MOL
REMARK 924 INTRA-LIGAND FREE ENERGY PREDICTED BY IDOCK:   -0.80 KCAL/MOL
REMARK 927      BINDING AFFINITY PREDICTED BY RF-SCORE:    0.00 PKD
ROOT
HETATM    1  C   UNL     1     -11.733  14.736  65.993  1.00  0.00    -0.248 C  
HETATM    2  H   UNL     1     -13.532  14.270  66.545  1.00  0.00     0.000 HD 
HETATM    3  O   UNL     1     -12.924  13.946  65.890  1.00  0.00    -0.436 OA 
ENDROOT
BRANCH   1   4
HETATM    4  C   UNL     1     -11.141  14.751  67.434  1.00  0.00    -0.324 C  
BRANCH   4   5
HETATM    5  C   UNL     1      -9.882  15.666  67.558  1.00  0.00    -0.228 C  
HETATM    6  O   UNL     1      -9.108  15.341  68.722  1.00  0.00    -0.179 OA 
HETATM    7  H   UNL     1      -8.342  15.898  68.797  1.00  0.00     0.000 HD 
BRANCH   5   8
HETATM    8  C   UNL     1     -10.184  17.169  67.624  1.00  0.00    -0.329 C  
HETATM    9  C   UNL     1      -9.787  17.865  66.341  1.00  0.00    -0.337 C  
HETATM   10  O   UNL     1      -9.412  17.723  68.701  1.00  0.00    -0.285 OA 
HETATM   11  O   UNL     1     -10.559  18.008  65.395  1.00  0.00    -0.648 OA 
HETATM   12  H   UNL     1      -9.599  18.653  68.742  1.00  0.00     0.000 HD 
ENDBRANCH   5   8
ENDBRANCH   4   5
BRANCH   4  13
HETATM   13  O   UNL     1     -10.819  13.425  67.919  1.00  0.00    -0.238 OA 
BRANCH  13  14
HETATM   14  C   UNL     1     -11.903  12.482  67.865  1.00  0.00    -0.323 C  
HETATM   15  H   UNL     1     -11.539  10.933  71.528  1.00  0.00     0.000 HD 
HETATM   16  O   UNL     1     -12.459  12.815  70.267  1.00  0.00    -0.219 OA 
HETATM   17  C   UNL     1     -12.134  11.854  69.250  1.00  0.00    -0.210 C  
HETATM   18  O   UNL     1     -11.694  11.426  66.938  1.00  0.00    -0.507 OA 
HETATM   19  O   UNL     1     -11.217  10.331  70.867  1.00  0.00    -0.336 OA 
HETATM   20  C   UNL     1     -10.512  10.658  67.183  1.00  0.00    -0.245 C  
HETATM   21  H   UNL     1     -12.602  12.427  71.123  1.00  0.00     0.000 HD 
HETATM   22  C   UNL     1     -10.890  11.091  69.686  1.00  0.00    -0.183 C  
HETATM   23  C   UNL     1     -10.369  10.117  68.617  1.00  0.00    -0.188 C  
BRANCH  20  24
HETATM   24  C   UNL     1     -10.471   9.529  66.127  1.00  0.00    -0.007 C  
HETATM   25  O   UNL     1      -9.160   9.240  65.638  1.00  0.00    -0.186 OA 
HETATM   26  H   UNL     1      -9.136   8.547  64.989  1.00  0.00     0.000 HD 
ENDBRANCH  20  24
BRANCH  23  27
HETATM   27  O   UNL     1      -8.951   9.851  68.807  1.00  0.00    -0.130 OA 
BRANCH  27  28
HETATM   28  C   UNL     1      -8.691   8.720  69.647  1.00  0.00    -0.136 C  
HETATM   29  O   UNL     1      -9.731   7.761  69.530  1.00  0.00    -0.164 OA 
HETATM   30  C   UNL     1      -9.865   7.265  68.196  1.00  0.00    -0.149 C  
HETATM   31  C   UNL     1      -8.589   6.476  67.808  1.00  0.00    -0.117 C  
HETATM   32  C   UNL     1     -11.157   6.451  68.185  1.00  0.00    -0.358 C  
HETATM   33  C   UNL     1      -7.356   7.411  67.939  1.00  0.00    -0.093 C  
HETATM   34  H   UNL     1      -5.381   7.234  67.899  1.00  0.00     0.000 HD 
HETATM   35  C   UNL     1      -7.328   8.097  69.307  1.00  0.00    -0.077 C  
HETATM   36  O   UNL     1      -6.135   6.662  67.818  1.00  0.00    -0.025 OA 
HETATM   37  O   UNL     1      -6.271   9.072  69.349  1.00  0.00    -0.040 OA 
HETATM   38  H   UNL     1      -5.428   8.688  69.139  1.00  0.00     0.000 HD 
BRANCH  31  39
HETATM   39  N   UNL     1      -8.758   5.880  66.459  1.00  0.00    -0.122 NA 
HETATM   40  H   UNL     1      -9.436   6.243  65.789  1.00  0.00     0.000 HD 
BRANCH  39  41
HETATM   41  C   UNL     1      -7.877   4.718  66.142  1.00  0.00    -0.099 C  
HETATM   42  C   UNL     1      -8.842   2.703  64.951  1.00  0.00    -0.121 C  
HETATM   43  C   UNL     1      -8.698   3.469  66.033  1.00  0.00    -0.122 C  
HETATM   44  C   UNL     1      -8.069   2.975  63.689  1.00  0.00    -0.082 C  
HETATM   45  H   UNL     1      -7.207   6.440  63.409  1.00  0.00     0.000 HD 
HETATM   46  O   UNL     1      -7.695   6.216  64.193  1.00  0.00    -0.093 OA 
HETATM   47  C   UNL     1      -6.878   3.958  63.827  1.00  0.00    -0.044 C  
HETATM   48  O   UNL     1      -8.992   3.435  62.706  1.00  0.00    -0.091 OA 
HETATM   49  H   UNL     1      -4.951   3.840  64.240  1.00  0.00     0.000 HD 
HETATM   50  O   UNL     1      -5.680   3.237  64.156  1.00  0.00    -0.009 OA 
HETATM   51  C   UNL     1      -7.075   5.087  64.850  1.00  0.00    -0.062 C  
HETATM   52  H   UNL     1      -8.503   3.608  61.909  1.00  0.00     0.000 HD 
BRANCH  42  53
HETATM   53  C   UNL     1      -9.790   1.525  64.890  1.00  0.00     0.246 C  
HETATM   54  O   UNL     1     -10.962   1.815  64.136  1.00  0.00    -0.289 OA 
HETATM   55  H   UNL     1     -11.558   1.076  64.098  1.00  0.00     0.000 HD 
ENDBRANCH  42  53
ENDBRANCH  39  41
ENDBRANCH  31  39
ENDBRANCH  27  28
ENDBRANCH  23  27
ENDBRANCH  13  14
ENDBRANCH   4  13
ENDBRANCH   1   4
BRANCH   1  56
HETATM   56  C   UNL     1     -10.755  14.214  64.938  1.00  0.00    -0.428 C  
HETATM   57  O   UNL     1     -11.347  13.097  64.270  1.00  0.00    -0.355 OA 
HETATM   58  H   UNL     1     -10.740  12.773  63.614  1.00  0.00     0.000 HD 
ENDBRANCH   1  56
TORSDOF 12
ENDMDL
MODEL      184
REMARK 921   NORMALIZED FREE ENERGY PREDICTED BY IDOCK:   -3.63 KCAL/MOL
REMARK 922        TOTAL FREE ENERGY PREDICTED BY IDOCK:   -9.37 KCAL/MOL
REMARK 923 INTER-LIGAND FREE ENERGY PREDICTED BY IDOCK:   -9.41 KCAL/MOL
REMARK 924 INTRA-LIGAND FREE ENERGY PREDICTED BY IDOCK:    0.04 KCAL/MOL
REMARK 927      BINDING AFFINITY PREDICTED BY RF-SCORE:    0.00 PKD
ROOT
HETATM    1  C   UNL     1     -10.357  18.350  66.208  1.00  0.00    -0.415 C  
HETATM    2  H   UNL     1     -10.374  16.562  65.459  1.00  0.00     0.000 HD 
HETATM    3  O   UNL     1     -10.524  17.436  65.117  1.00  0.00    -0.619 OA 
ENDROOT
BRANCH   1   4
HETATM    4  C   UNL     1      -8.981  18.191  66.923  1.00  0.00    -0.271 C  
BRANCH   4   5
HETATM    5  C   UNL     1      -7.786  18.665  66.038  1.00  0.00    -0.181 C  
HETATM    6  O   UNL     1      -6.973  17.559  65.617  1.00  0.00    -0.317 OA 
HETATM    7  H   UNL     1      -6.245  17.847  65.078  1.00  0.00     0.000 HD 
BRANCH   5   8
HETATM    8  C   UNL     1      -6.851  19.680  66.709  1.00  0.00    -0.194 C  
HETATM    9  C   UNL     1      -6.919  19.576  68.216  1.00  0.00    -0.293 C  
HETATM   10  O   UNL     1      -7.283  20.994  66.321  1.00  0.00    -0.515 OA 
HETATM   11  O   UNL     1      -6.177  18.843  68.866  1.00  0.00    -0.222 OA 
HETATM   12  H   UNL     1      -6.704  21.622  66.736  1.00  0.00     0.000 HD 
ENDBRANCH   5   8
ENDBRANCH   4   5
BRANCH   4  13
HETATM   13  O   UNL     1      -8.738  16.836  67.373  1.00  0.00    -0.189 OA 
BRANCH  13  14
HETATM   14  C   UNL     1      -9.185  16.553  68.709  1.00  0.00    -0.252 C  
HETATM   15  H   UNL     1      -6.911  13.353  69.441  1.00  0.00     0.000 HD 
HETATM   16  O   UNL     1      -6.925  15.798  69.424  1.00  0.00    -0.179 OA 
HETATM   17  C   UNL     1      -8.317  15.452  69.340  1.00  0.00    -0.250 C  
HETATM   18  O   UNL     1     -10.540  16.133  68.780  1.00  0.00    -0.248 OA 
HETATM   19  O   UNL     1      -7.813  13.103  69.277  1.00  0.00     0.270 OA 
HETATM   20  C   UNL     1     -10.831  14.963  68.009  1.00  0.00    -0.263 C  
HETATM   21  H   UNL     1      -6.388  15.118  69.813  1.00  0.00     0.000 HD 
HETATM   22  C   UNL     1      -8.448  14.165  68.536  1.00  0.00    -0.157 C  
HETATM   23  C   UNL     1      -9.906  13.761  68.270  1.00  0.00    -0.232 C  
BRANCH  20  24
HETATM   24  C   UNL     1     -12.319  14.617  68.244  1.00  0.00     0.076 C  
HETATM   25  O   UNL     1     -12.772  14.874  69.575  1.00  0.00    -0.582 OA 
HETATM   26  H   UNL     1     -13.687  14.661  69.718  1.00  0.00     0.000 HD 
ENDBRANCH  20  24
BRANCH  23  27
HETATM   27  O   UNL     1     -10.002  12.916  67.090  1.00  0.00    -0.233 OA 
BRANCH  27  28
HETATM   28  C   UNL     1     -10.908  11.817  67.248  1.00  0.00    -0.253 C  
HETATM   29  O   UNL     1     -10.641  10.807  66.286  1.00  0.00    -0.246 OA 
HETATM   30  C   UNL     1      -9.319  10.276  66.408  1.00  0.00    -0.165 C  
HETATM   31  C   UNL     1      -9.181   9.540  67.765  1.00  0.00    -0.124 C  
HETATM   32  C   UNL     1      -9.109   9.401  65.174  1.00  0.00    -0.280 C  
HETATM   33  C   UNL     1      -9.496  10.536  68.914  1.00  0.00    -0.193 C  
HETATM   34  H   UNL     1      -9.804  10.452  70.872  1.00  0.00     0.000 HD 
HETATM   35  C   UNL     1     -10.828  11.252  68.675  1.00  0.00    -0.204 C  
HETATM   36  O   UNL     1      -9.611   9.843  70.170  1.00  0.00    -0.245 OA 
HETATM   37  O   UNL     1     -11.022  12.277  69.665  1.00  0.00    -0.465 OA 
HETATM   38  H   UNL     1     -10.973  11.929  70.547  1.00  0.00     0.000 HD 
BRANCH  31  39
HETATM   39  N   UNL     1      -7.843   8.908  67.860  1.00  0.00    -0.101 NA 
HETATM   40  H   UNL     1      -7.077   9.169  67.238  1.00  0.00     0.000 HD 
BRANCH  39  41
HETATM   41  C   UNL     1      -7.683   7.867  68.918  1.00  0.00    -0.105 C  
HETATM   42  C   UNL     1      -9.134   5.793  68.865  1.00  0.00    -0.121 C  
HETATM   43  C   UNL     1      -8.960   7.099  69.076  1.00  0.00    -0.134 C  
HETATM   44  C   UNL     1      -7.978   4.892  68.527  1.00  0.00    -0.085 C  
HETATM   45  H   UNL     1      -5.347   6.699  66.903  1.00  0.00     0.000 HD 
HETATM   46  O   UNL     1      -6.100   7.227  67.140  1.00  0.00    -0.038 OA 
HETATM   47  C   UNL     1      -6.567   5.487  68.769  1.00  0.00    -0.048 C  
HETATM   48  O   UNL     1      -8.127   4.485  67.170  1.00  0.00    -0.101 OA 
HETATM   49  H   UNL     1      -5.268   5.559  70.255  1.00  0.00     0.000 HD 
HETATM   50  O   UNL     1      -6.133   5.194  70.107  1.00  0.00    -0.017 OA 
HETATM   51  C   UNL     1      -6.442   6.998  68.526  1.00  0.00    -0.036 C  
HETATM   52  H   UNL     1      -7.396   3.916  66.957  1.00  0.00     0.000 HD 
BRANCH  42  53
HETATM   53  C   UNL     1     -10.487   5.117  68.927  1.00  0.00    -0.061 C  
HETATM   54  O   UNL     1     -11.557   6.055  68.972  1.00  0.00    -0.253 OA 
HETATM   55  H   UNL     1     -12.406   5.630  69.011  1.00  0.00     0.000 HD 
ENDBRANCH  42  53
ENDBRANCH  39  41
ENDBRANCH  31  39
ENDBRANCH  27  28
ENDBRANCH  23  27
ENDBRANCH  13  14
ENDBRANCH   4  13
ENDBRANCH   1   4
BRANCH   1  56
HETATM   56  C   UNL     1     -10.597  19.758  65.657  1.00  0.00    -0.355 C  
HETATM   57  O   UNL     1     -10.159  20.716  66.624  1.00  0.00    -0.514 OA 
HETATM   58  H   UNL     1     -10.308  21.589  66.281  1.00  0.00     0.000 HD 
ENDBRANCH   1  56
TORSDOF 12
ENDMDL
MODEL      185
REMARK 921   NORMALIZED FREE ENERGY PREDICTED BY IDOCK:   -3.61 KCAL/MOL
REMARK 922        TOTAL FREE ENERGY PREDICTED BY IDOCK:   -9.33 KCAL/MOL
REMARK 923 INTER-LIGAND FREE ENERGY PREDICTED BY IDOCK:   -7.77 KCAL/MOL
REMARK 924 INTRA-LIGAND FREE ENERGY PREDICTED BY IDOCK:   -1.56 KCAL/MOL
REMARK 927      BINDING AFFINITY PREDICTED BY RF-SCORE:    0.00 PKD
ROOT
HETATM    1  C   UNL     1     -10.876   7.897  72.639  1.00  0.00    -0.364 C  
HETATM    2  H   UNL     1     -12.535   6.915  72.849  1.00  0.00     0.000 HD 
HETATM    3  O   UNL     1     -12.248   7.644  72.310  1.00  0.00    -0.285 OA 
ENDROOT
BRANCH   1   4
HETATM    4  C   UNL     1      -9.979   6.631  72.497  1.00  0.00    -0.170 C  
BRANCH   4   5
HETATM    5  C   UNL     1      -9.335   6.196  73.851  1.00  0.00    -0.135 C  
HETATM    6  O   UNL     1      -7.904   6.318  73.816  1.00  0.00    -0.094 OA 
HETATM    7  H   UNL     1      -7.512   6.053  74.640  1.00  0.00     0.000 HD 
BRANCH   5   8
HETATM    8  C   UNL     1      -9.653   4.759  74.282  1.00  0.00    -0.130 C  
HETATM    9  C   UNL     1      -8.563   3.802  73.852  1.00  0.00    -0.086 C  
HETATM   10  O   UNL     1     -10.879   4.372  73.642  1.00  0.00    -0.231 OA 
HETATM   11  O   UNL     1      -7.596   3.534  74.562  1.00  0.00    -0.056 OA 
HETATM   12  H   UNL     1     -11.077   3.482  73.910  1.00  0.00     0.000 HD 
ENDBRANCH   5   8
ENDBRANCH   4   5
BRANCH   4  13
HETATM   13  O   UNL     1      -8.940   6.791  71.501  1.00  0.00    -0.138 OA 
BRANCH  13  14
HETATM   14  C   UNL     1      -8.692   5.629  70.692  1.00  0.00    -0.134 C  
HETATM   15  H   UNL     1      -4.900   6.384  69.694  1.00  0.00     0.000 HD 
HETATM   16  O   UNL     1      -6.329   5.466  71.453  1.00  0.00    -0.032 OA 
HETATM   17  C   UNL     1      -7.204   5.547  70.316  1.00  0.00    -0.067 C  
HETATM   18  O   UNL     1      -9.448   5.599  69.490  1.00  0.00    -0.129 OA 
HETATM   19  O   UNL     1      -5.486   6.547  68.964  1.00  0.00    -0.014 OA 
HETATM   20  C   UNL     1      -9.233   6.728  68.637  1.00  0.00    -0.132 C  
HETATM   21  H   UNL     1      -5.409   5.416  71.220  1.00  0.00     0.000 HD 
HETATM   22  C   UNL     1      -6.811   6.765  69.490  1.00  0.00    -0.054 C  
HETATM   23  C   UNL     1      -7.759   7.031  68.310  1.00  0.00    -0.117 C  
BRANCH  20  24
HETATM   24  C   UNL     1     -10.080   6.508  67.362  1.00  0.00    -0.162 C  
HETATM   25  O   UNL     1     -10.201   5.138  66.976  1.00  0.00    -0.196 OA 
HETATM   26  H   UNL     1     -10.721   5.003  66.193  1.00  0.00     0.000 HD 
ENDBRANCH  20  24
BRANCH  23  27
HETATM   27  O   UNL     1      -7.714   8.430  67.915  1.00  0.00    -0.100 OA 
BRANCH  27  28
HETATM   28  C   UNL     1      -7.331   8.624  66.548  1.00  0.00    -0.081 C  
HETATM   29  O   UNL     1      -8.463   8.941  65.751  1.00  0.00    -0.128 OA 
HETATM   30  C   UNL     1      -9.106  10.144  66.176  1.00  0.00    -0.155 C  
HETATM   31  C   UNL     1      -8.152  11.346  65.957  1.00  0.00     0.053 C  
HETATM   32  C   UNL     1     -10.418  10.210  65.397  1.00  0.00    -0.054 C  
HETATM   33  C   UNL     1      -6.838  11.099  66.749  1.00  0.00    -0.134 C  
HETATM   34  H   UNL     1      -5.036  11.917  66.873  1.00  0.00     0.000 HD 
HETATM   35  C   UNL     1      -6.257   9.718  66.438  1.00  0.00    -0.068 C  
HETATM   36  O   UNL     1      -5.838  12.068  66.388  1.00  0.00    -0.183 OA 
HETATM   37  O   UNL     1      -5.134   9.450  67.295  1.00  0.00    -0.035 OA 
HETATM   38  H   UNL     1      -4.470  10.126  67.228  1.00  0.00     0.000 HD 
BRANCH  31  39
HETATM   39  N   UNL     1      -8.845  12.609  66.309  1.00  0.00    -0.428 NA 
HETATM   40  H   UNL     1      -8.332  13.454  66.562  1.00  0.00     0.000 HD 
BRANCH  39  41
HETATM   41  C   UNL     1     -10.336  12.572  66.270  1.00  0.00    -0.250 C  
HETATM   42  C   UNL     1     -11.667  13.830  68.018  1.00  0.00    -0.390 C  
HETATM   43  C   UNL     1     -10.889  12.814  67.642  1.00  0.00    -0.252 C  
HETATM   44  C   UNL     1     -12.180  14.835  67.022  1.00  0.00     0.042 C  
HETATM   45  H   UNL     1      -9.983  15.122  64.208  1.00  0.00     0.000 HD 
HETATM   46  O   UNL     1      -9.704  14.495  64.866  1.00  0.00    -0.071 OA 
HETATM   47  C   UNL     1     -12.039  14.439  65.530  1.00  0.00    -0.356 C  
HETATM   48  O   UNL     1     -11.524  16.074  67.279  1.00  0.00    -0.039 OA 
HETATM   49  H   UNL     1     -13.123  13.484  64.183  1.00  0.00     0.000 HD 
HETATM   50  O   UNL     1     -13.209  13.726  65.098  1.00  0.00    -0.757 OA 
HETATM   51  C   UNL     1     -10.796  13.605  65.188  1.00  0.00    -0.334 C  
HETATM   52  H   UNL     1     -11.847  16.708  66.650  1.00  0.00     0.000 HD 
BRANCH  42  53
HETATM   53  C   UNL     1     -12.081  14.070  69.453  1.00  0.00    -0.340 C  
HETATM   54  O   UNL     1     -11.037  13.770  70.373  1.00  0.00    -0.400 OA 
HETATM   55  H   UNL     1     -11.297  13.920  71.275  1.00  0.00     0.000 HD 
ENDBRANCH  42  53
ENDBRANCH  39  41
ENDBRANCH  31  39
ENDBRANCH  27  28
ENDBRANCH  23  27
ENDBRANCH  13  14
ENDBRANCH   4  13
ENDBRANCH   1   4
BRANCH   1  56
HETATM   56  C   UNL     1     -10.415   9.070  71.771  1.00  0.00    -0.348 C  
HETATM   57  O   UNL     1     -10.935   8.902  70.450  1.00  0.00    -0.235 OA 
HETATM   58  H   UNL     1     -10.649   9.630  69.911  1.00  0.00     0.000 HD 
ENDBRANCH   1  56
TORSDOF 12
ENDMDL
MODEL      186
REMARK 921   NORMALIZED FREE ENERGY PREDICTED BY IDOCK:   -3.60 KCAL/MOL
REMARK 922        TOTAL FREE ENERGY PREDICTED BY IDOCK:   -9.31 KCAL/MOL
REMARK 923 INTER-LIGAND FREE ENERGY PREDICTED BY IDOCK:  -10.68 KCAL/MOL
REMARK 924 INTRA-LIGAND FREE ENERGY PREDICTED BY IDOCK:    1.36 KCAL/MOL
REMARK 927      BINDING AFFINITY PREDICTED BY RF-SCORE:    0.00 PKD
ROOT
HETATM    1  C   UNL     1     -11.312  15.292  69.775  1.00  0.00    -0.289 C  
HETATM    2  H   UNL     1      -9.577  14.467  69.517  1.00  0.00     0.000 HD 
HETATM    3  O   UNL     1      -9.966  15.018  70.187  1.00  0.00    -0.057 OA 
ENDROOT
BRANCH   1   4
HETATM    4  C   UNL     1     -12.129  13.998  69.484  1.00  0.00    -0.347 C  
BRANCH   4   5
HETATM    5  C   UNL     1     -11.710  12.804  70.398  1.00  0.00    -0.012 C  
HETATM    6  O   UNL     1     -10.825  11.903  69.714  1.00  0.00    -0.453 OA 
HETATM    7  H   UNL     1     -10.569  11.177  70.271  1.00  0.00     0.000 HD 
BRANCH   5   8
HETATM    8  C   UNL     1     -12.876  11.965  70.936  1.00  0.00    -0.130 C  
HETATM    9  C   UNL     1     -13.382  12.510  72.254  1.00  0.00    -0.370 C  
HETATM   10  O   UNL     1     -12.392  10.630  71.150  1.00  0.00    -0.346 OA 
HETATM   11  O   UNL     1     -14.280  13.347  72.326  1.00  0.00    -0.515 OA 
HETATM   12  H   UNL     1     -13.115  10.111  71.483  1.00  0.00     0.000 HD 
ENDBRANCH   5   8
ENDBRANCH   4   5
BRANCH   4  13
HETATM   13  O   UNL     1     -12.053  13.589  68.096  1.00  0.00    -0.346 OA 
BRANCH  13  14
HETATM   14  C   UNL     1     -11.587  14.605  67.192  1.00  0.00    -0.378 C  
HETATM   15  H   UNL     1     -12.014  12.602  63.764  1.00  0.00     0.000 HD 
HETATM   16  O   UNL     1     -13.210  13.934  65.429  1.00  0.00    -0.750 OA 
HETATM   17  C   UNL     1     -11.827  14.173  65.735  1.00  0.00    -0.380 C  
HETATM   18  O   UNL     1     -10.207  14.907  67.335  1.00  0.00    -0.233 OA 
HETATM   19  O   UNL     1     -11.100  12.658  64.016  1.00  0.00    -0.349 OA 
HETATM   20  C   UNL     1      -9.341  13.784  67.149  1.00  0.00    -0.240 C  
HETATM   21  H   UNL     1     -13.357  13.667  64.529  1.00  0.00     0.000 HD 
HETATM   22  C   UNL     1     -11.039  12.904  65.436  1.00  0.00    -0.281 C  
HETATM   23  C   UNL     1      -9.561  12.996  65.845  1.00  0.00    -0.114 C  
BRANCH  20  24
HETATM   24  C   UNL     1      -7.888  14.297  67.282  1.00  0.00    -0.147 C  
HETATM   25  O   UNL     1      -6.908  13.411  66.741  1.00  0.00    -0.260 OA 
HETATM   26  H   UNL     1      -6.015  13.727  66.823  1.00  0.00     0.000 HD 
ENDBRANCH  20  24
BRANCH  23  27
HETATM   27  O   UNL     1      -9.005  11.671  66.077  1.00  0.00    -0.205 OA 
BRANCH  27  28
HETATM   28  C   UNL     1      -9.770  10.619  65.477  1.00  0.00    -0.237 C  
HETATM   29  O   UNL     1      -8.981   9.896  64.544  1.00  0.00    -0.199 OA 
HETATM   30  C   UNL     1      -7.843   9.284  65.156  1.00  0.00    -0.110 C  
HETATM   31  C   UNL     1      -8.315   8.201  66.159  1.00  0.00    -0.126 C  
HETATM   32  C   UNL     1      -6.982   8.767  64.005  1.00  0.00    -0.086 C  
HETATM   33  C   UNL     1      -9.237   8.862  67.220  1.00  0.00    -0.138 C  
HETATM   34  H   UNL     1     -10.446   8.267  68.675  1.00  0.00     0.000 HD 
HETATM   35  C   UNL     1     -10.342   9.685  66.555  1.00  0.00    -0.194 C  
HETATM   36  O   UNL     1      -9.883   7.862  68.026  1.00  0.00    -0.155 OA 
HETATM   37  O   UNL     1     -11.084  10.411  67.550  1.00  0.00    -0.313 OA 
HETATM   38  H   UNL     1     -11.438   9.835  68.216  1.00  0.00     0.000 HD 
BRANCH  31  39
HETATM   39  N   UNL     1      -7.140   7.498  66.730  1.00  0.00    -0.081 NA 
HETATM   40  H   UNL     1      -6.295   7.997  67.009  1.00  0.00     0.000 HD 
BRANCH  39  41
HETATM   41  C   UNL     1      -7.267   6.018  66.871  1.00  0.00    -0.071 C  
HETATM   42  C   UNL     1      -9.227   5.044  68.145  1.00  0.00    -0.143 C  
HETATM   43  C   UNL     1      -8.060   5.688  68.100  1.00  0.00    -0.097 C  
HETATM   44  C   UNL     1      -9.850   4.462  66.904  1.00  0.00    -0.207 C  
HETATM   45  H   UNL     1      -8.822   6.241  63.971  1.00  0.00     0.000 HD 
HETATM   46  O   UNL     1      -8.452   6.569  64.782  1.00  0.00    -0.069 OA 
HETATM   47  C   UNL     1      -8.920   4.357  65.668  1.00  0.00    -0.132 C  
HETATM   48  O   UNL     1     -11.009   5.232  66.599  1.00  0.00    -0.474 OA 
HETATM   49  H   UNL     1      -7.672   3.026  64.912  1.00  0.00     0.000 HD 
HETATM   50  O   UNL     1      -8.242   3.090  65.670  1.00  0.00    -0.086 OA 
HETATM   51  C   UNL     1      -7.877   5.477  65.535  1.00  0.00    -0.099 C  
HETATM   52  H   UNL     1     -11.402   4.865  65.816  1.00  0.00     0.000 HD 
BRANCH  42  53
HETATM   53  C   UNL     1     -10.024   4.861  69.418  1.00  0.00    -0.212 C  
HETATM   54  O   UNL     1     -11.151   5.728  69.478  1.00  0.00    -0.366 OA 
HETATM   55  H   UNL     1     -11.652   5.613  70.278  1.00  0.00     0.000 HD 
ENDBRANCH  42  53
ENDBRANCH  39  41
ENDBRANCH  31  39
ENDBRANCH  27  28
ENDBRANCH  23  27
ENDBRANCH  13  14
ENDBRANCH   4  13
ENDBRANCH   1   4
BRANCH   1  56
HETATM   56  C   UNL     1     -11.940  16.178  70.854  1.00  0.00    -0.232 C  
HETATM   57  O   UNL     1     -13.339  15.894  70.931  1.00  0.00    -0.651 OA 
HETATM   58  H   UNL     1     -13.729  16.444  71.601  1.00  0.00     0.000 HD 
ENDBRANCH   1  56
TORSDOF 12
ENDMDL
MODEL      187
REMARK 921   NORMALIZED FREE ENERGY PREDICTED BY IDOCK:   -3.60 KCAL/MOL
REMARK 922        TOTAL FREE ENERGY PREDICTED BY IDOCK:   -9.31 KCAL/MOL
REMARK 923 INTER-LIGAND FREE ENERGY PREDICTED BY IDOCK:   -6.99 KCAL/MOL
REMARK 924 INTRA-LIGAND FREE ENERGY PREDICTED BY IDOCK:   -2.32 KCAL/MOL
REMARK 927      BINDING AFFINITY PREDICTED BY RF-SCORE:    0.00 PKD
ROOT
HETATM    1  C   UNL     1     -11.205  13.584  69.224  1.00  0.00    -0.231 C  
HETATM    2  H   UNL     1     -11.671  15.108  70.328  1.00  0.00     0.000 HD 
HETATM    3  O   UNL     1     -11.699  14.165  70.439  1.00  0.00    -0.285 OA 
ENDROOT
BRANCH   1   4
HETATM    4  C   UNL     1      -9.797  14.122  68.827  1.00  0.00    -0.167 C  
BRANCH   4   5
HETATM    5  C   UNL     1      -9.867  15.259  67.760  1.00  0.00    -0.220 C  
HETATM    6  O   UNL     1     -11.112  15.971  67.832  1.00  0.00    -0.338 OA 
HETATM    7  H   UNL     1     -11.155  16.664  67.182  1.00  0.00     0.000 HD 
BRANCH   5   8
HETATM    8  C   UNL     1      -9.700  14.791  66.309  1.00  0.00    -0.303 C  
HETATM    9  C   UNL     1     -10.787  15.356  65.421  1.00  0.00    -0.391 C  
HETATM   10  O   UNL     1      -9.801  13.358  66.298  1.00  0.00    -0.281 OA 
HETATM   11  O   UNL     1     -10.669  16.424  64.825  1.00  0.00    -0.700 OA 
HETATM   12  H   UNL     1      -9.697  13.068  65.399  1.00  0.00     0.000 HD 
ENDBRANCH   5   8
ENDBRANCH   4   5
BRANCH   4  13
HETATM   13  O   UNL     1      -8.912  13.076  68.357  1.00  0.00    -0.188 OA 
BRANCH  13  14
HETATM   14  C   UNL     1      -7.564  13.158  68.849  1.00  0.00     0.040 C  
HETATM   15  H   UNL     1      -5.631  12.297  65.462  1.00  0.00     0.000 HD 
HETATM   16  O   UNL     1      -6.721  14.099  66.706  1.00  0.00    -0.086 OA 
HETATM   17  C   UNL     1      -6.564  13.060  67.685  1.00  0.00    -0.159 C  
HETATM   18  O   UNL     1      -7.238  12.146  69.791  1.00  0.00     0.267 OA 
HETATM   19  O   UNL     1      -5.617  11.561  66.063  1.00  0.00    -0.233 OA 
HETATM   20  C   UNL     1      -7.398  10.813  69.294  1.00  0.00    -0.129 C  
HETATM   21  H   UNL     1      -6.104  14.037  65.986  1.00  0.00     0.000 HD 
HETATM   22  C   UNL     1      -6.712  11.713  66.989  1.00  0.00    -0.145 C  
HETATM   23  C   UNL     1      -6.688  10.522  67.960  1.00  0.00    -0.065 C  
BRANCH  20  24
HETATM   24  C   UNL     1      -6.951   9.849  70.416  1.00  0.00    -0.141 C  
HETATM   25  O   UNL     1      -7.527   8.545  70.324  1.00  0.00    -0.059 OA 
HETATM   26  H   UNL     1      -7.251   7.952  71.014  1.00  0.00     0.000 HD 
ENDBRANCH  20  24
BRANCH  23  27
HETATM   27  O   UNL     1      -7.370   9.372  67.384  1.00  0.00    -0.086 OA 
BRANCH  27  28
HETATM   28  C   UNL     1      -8.545   9.719  66.642  1.00  0.00    -0.128 C  
HETATM   29  O   UNL     1      -8.366   9.436  65.262  1.00  0.00    -0.128 OA 
HETATM   30  C   UNL     1      -8.117   8.049  65.020  1.00  0.00    -0.145 C  
HETATM   31  C   UNL     1      -9.370   7.224  65.408  1.00  0.00     0.620 C  
HETATM   32  C   UNL     1      -7.708   7.952  63.552  1.00  0.00    -0.136 C  
HETATM   33  C   UNL     1      -9.704   7.483  66.902  1.00  0.00    -0.209 C  
HETATM   34  H   UNL     1     -11.191   7.086  68.154  1.00  0.00     0.000 HD 
HETATM   35  C   UNL     1      -9.773   8.983  67.200  1.00  0.00    -0.181 C  
HETATM   36  O   UNL     1     -10.987   6.927  67.240  1.00  0.00    -0.335 OA 
HETATM   37  O   UNL     1      -9.927   9.199  68.614  1.00  0.00    -0.161 OA 
HETATM   38  H   UNL     1     -10.686   8.744  68.959  1.00  0.00     0.000 HD 
BRANCH  31  39
HETATM   39  N   UNL     1      -9.153   5.795  65.073  1.00  0.00    -0.363 NA 
HETATM   40  H   UNL     1      -9.752   5.298  64.413  1.00  0.00     0.000 HD 
BRANCH  39  41
HETATM   41  C   UNL     1      -8.009   5.127  65.760  1.00  0.00    -0.108 C  
HETATM   42  C   UNL     1      -8.444   3.631  67.755  1.00  0.00    -0.106 C  
HETATM   43  C   UNL     1      -8.368   4.834  67.185  1.00  0.00    -0.106 C  
HETATM   44  C   UNL     1      -8.056   2.383  67.009  1.00  0.00    -0.073 C  
HETATM   45  H   UNL     1      -8.475   2.793  63.476  1.00  0.00     0.000 HD 
HETATM   46  O   UNL     1      -8.705   3.557  63.992  1.00  0.00    -0.093 OA 
HETATM   47  C   UNL     1      -7.261   2.603  65.696  1.00  0.00    -0.066 C  
HETATM   48  O   UNL     1      -9.245   1.639  66.760  1.00  0.00    -0.271 OA 
HETATM   49  H   UNL     1      -5.364   2.759  65.168  1.00  0.00     0.000 HD 
HETATM   50  O   UNL     1      -5.851   2.624  65.973  1.00  0.00    -0.021 OA 
HETATM   51  C   UNL     1      -7.631   3.868  64.910  1.00  0.00    -0.077 C  
HETATM   52  H   UNL     1      -9.000   0.851  66.288  1.00  0.00     0.000 HD 
BRANCH  42  53
HETATM   53  C   UNL     1      -8.936   3.414  69.170  1.00  0.00    -0.122 C  
HETATM   54  O   UNL     1      -9.926   4.365  69.548  1.00  0.00    -0.211 OA 
HETATM   55  H   UNL     1     -10.235   4.229  70.437  1.00  0.00     0.000 HD 
ENDBRANCH  42  53
ENDBRANCH  39  41
ENDBRANCH  31  39
ENDBRANCH  27  28
ENDBRANCH  23  27
ENDBRANCH  13  14
ENDBRANCH   4  13
ENDBRANCH   1   4
BRANCH   1  56
HETATM   56  C   UNL     1     -11.248  12.065  69.403  1.00  0.00    -0.196 C  
HETATM   57  O   UNL     1     -11.859  11.480  68.250  1.00  0.00    -0.473 OA 
HETATM   58  H   UNL     1     -11.886  10.536  68.360  1.00  0.00     0.000 HD 
ENDBRANCH   1  56
TORSDOF 12
ENDMDL
MODEL      188
REMARK 921   NORMALIZED FREE ENERGY PREDICTED BY IDOCK:   -3.59 KCAL/MOL
REMARK 922        TOTAL FREE ENERGY PREDICTED BY IDOCK:   -9.30 KCAL/MOL
REMARK 923 INTER-LIGAND FREE ENERGY PREDICTED BY IDOCK:   -7.64 KCAL/MOL
REMARK 924 INTRA-LIGAND FREE ENERGY PREDICTED BY IDOCK:   -1.66 KCAL/MOL
REMARK 927      BINDING AFFINITY PREDICTED BY RF-SCORE:    0.00 PKD
ROOT
HETATM    1  C   UNL     1      -8.030   6.069  68.108  1.00  0.00    -0.110 C  
HETATM    2  H   UNL     1      -9.163   5.893  69.671  1.00  0.00     0.000 HD 
HETATM    3  O   UNL     1      -8.244   5.739  69.486  1.00  0.00    -0.105 OA 
ENDROOT
BRANCH   1   4
HETATM    4  C   UNL     1      -8.500   7.511  67.752  1.00  0.00    -0.118 C  
BRANCH   4   5
HETATM    5  C   UNL     1      -8.834   7.677  66.236  1.00  0.00    -0.156 C  
HETATM    6  O   UNL     1      -8.042   6.797  65.423  1.00  0.00    -0.118 OA 
HETATM    7  H   UNL     1      -8.246   6.898  64.501  1.00  0.00     0.000 HD 
BRANCH   5   8
HETATM    8  C   UNL     1      -8.636   9.096  65.686  1.00  0.00    -0.158 C  
HETATM    9  C   UNL     1      -9.963   9.761  65.394  1.00  0.00    -0.232 C  
HETATM   10  O   UNL     1      -7.899   8.989  64.458  1.00  0.00    -0.111 OA 
HETATM   11  O   UNL     1     -10.564  10.438  66.226  1.00  0.00    -0.198 OA 
HETATM   12  H   UNL     1      -7.777   9.868  64.117  1.00  0.00     0.000 HD 
ENDBRANCH   5   8
ENDBRANCH   4   5
BRANCH   4  13
HETATM   13  O   UNL     1      -7.543   8.524  68.147  1.00  0.00    -0.095 OA 
BRANCH  13  14
HETATM   14  C   UNL     1      -7.573   8.873  69.541  1.00  0.00    -0.080 C  
HETATM   15  H   UNL     1     -11.406   9.961  69.810  1.00  0.00     0.000 HD 
HETATM   16  O   UNL     1      -9.899   8.035  69.815  1.00  0.00    -0.179 OA 
HETATM   17  C   UNL     1      -9.016   9.155  69.990  1.00  0.00    -0.187 C  
HETATM   18  O   UNL     1      -6.787  10.012  69.860  1.00  0.00    -0.076 OA 
HETATM   19  O   UNL     1     -10.833  10.719  69.815  1.00  0.00    -0.256 OA 
HETATM   20  C   UNL     1      -7.158  11.196  69.147  1.00  0.00    -0.116 C  
HETATM   21  H   UNL     1     -10.791   8.209  70.092  1.00  0.00     0.000 HD 
HETATM   22  C   UNL     1      -9.577  10.339  69.214  1.00  0.00    -0.224 C  
HETATM   23  C   UNL     1      -8.651  11.565  69.222  1.00  0.00     0.410 C  
BRANCH  20  24
HETATM   24  C   UNL     1      -6.249  12.340  69.653  1.00  0.00    -0.131 C  
HETATM   25  O   UNL     1      -6.658  12.897  70.903  1.00  0.00    -0.136 OA 
HETATM   26  H   UNL     1      -6.099  13.599  71.214  1.00  0.00     0.000 HD 
ENDBRANCH  20  24
BRANCH  23  27
HETATM   27  O   UNL     1      -8.912  12.418  68.073  1.00  0.00    -0.181 OA 
BRANCH  27  28
HETATM   28  C   UNL     1      -9.787  13.515  68.365  1.00  0.00    -0.225 C  
HETATM   29  O   UNL     1      -9.103  14.518  69.101  1.00  0.00    -0.104 OA 
HETATM   30  C   UNL     1      -7.990  15.055  68.382  1.00  0.00    -0.131 C  
HETATM   31  C   UNL     1      -8.500  15.803  67.124  1.00  0.00    -0.208 C  
HETATM   32  C   UNL     1      -7.229  15.920  69.384  1.00  0.00    -0.214 C  
HETATM   33  C   UNL     1      -9.315  14.815  66.245  1.00  0.00    -0.278 C  
HETATM   34  H   UNL     1     -10.499  14.914  64.656  1.00  0.00     0.000 HD 
HETATM   35  C   UNL     1     -10.381  14.091  67.071  1.00  0.00    -0.267 C  
HETATM   36  O   UNL     1     -10.001  15.518  65.194  1.00  0.00    -0.316 OA 
HETATM   37  O   UNL     1     -11.015  13.074  66.275  1.00  0.00    -0.279 OA 
HETATM   38  H   UNL     1     -11.382  13.430  65.475  1.00  0.00     0.000 HD 
BRANCH  31  39
HETATM   39  N   UNL     1      -7.360  16.442  66.422  1.00  0.00    -0.138 NA 
HETATM   40  H   UNL     1      -6.548  15.907  66.113  1.00  0.00     0.000 HD 
BRANCH  39  41
HETATM   41  C   UNL     1      -7.471  17.913  66.196  1.00  0.00    -0.280 C  
HETATM   42  C   UNL     1      -8.412  19.394  68.021  1.00  0.00    -0.355 C  
HETATM   43  C   UNL     1      -8.557  18.482  67.058  1.00  0.00    -0.273 C  
HETATM   44  C   UNL     1      -7.086  20.054  68.283  1.00  0.00    -0.288 C  
HETATM   45  H   UNL     1      -4.362  17.948  67.298  1.00  0.00     0.000 HD 
HETATM   46  O   UNL     1      -5.224  17.575  67.149  1.00  0.00    -0.119 OA 
HETATM   47  C   UNL     1      -6.012  19.872  67.179  1.00  0.00    -0.178 C  
HETATM   48  O   UNL     1      -6.605  19.580  69.537  1.00  0.00    -0.317 OA 
HETATM   49  H   UNL     1      -5.455  20.820  65.539  1.00  0.00     0.000 HD 
HETATM   50  O   UNL     1      -6.113  20.933  66.215  1.00  0.00    -0.224 OA 
HETATM   51  C   UNL     1      -6.052  18.526  66.442  1.00  0.00    -0.163 C  
HETATM   52  H   UNL     1      -5.767  19.997  69.702  1.00  0.00     0.000 HD 
BRANCH  42  53
HETATM   53  C   UNL     1      -9.542  19.825  68.930  1.00  0.00    -0.276 C  
HETATM   54  O   UNL     1     -10.820  19.497  68.396  1.00  0.00    -0.358 OA 
HETATM   55  H   UNL     1     -11.530  19.768  68.967  1.00  0.00     0.000 HD 
ENDBRANCH  42  53
ENDBRANCH  39  41
ENDBRANCH  31  39
ENDBRANCH  27  28
ENDBRANCH  23  27
ENDBRANCH  13  14
ENDBRANCH   4  13
ENDBRANCH   1   4
BRANCH   1  56
HETATM   56  C   UNL     1      -6.549   5.821  67.811  1.00  0.00    -0.053 C  
HETATM   57  O   UNL     1      -6.442   4.938  66.691  1.00  0.00    -0.039 OA 
HETATM   58  H   UNL     1      -5.523   4.784  66.506  1.00  0.00     0.000 HD 
ENDBRANCH   1  56
TORSDOF 12
ENDMDL
MODEL      189
REMARK 921   NORMALIZED FREE ENERGY PREDICTED BY IDOCK:   -3.57 KCAL/MOL
REMARK 922        TOTAL FREE ENERGY PREDICTED BY IDOCK:   -9.27 KCAL/MOL
REMARK 923 INTER-LIGAND FREE ENERGY PREDICTED BY IDOCK:   -7.17 KCAL/MOL
REMARK 924 INTRA-LIGAND FREE ENERGY PREDICTED BY IDOCK:   -2.10 KCAL/MOL
REMARK 927      BINDING AFFINITY PREDICTED BY RF-SCORE:    0.00 PKD
ROOT
HETATM    1  C   UNL     1     -12.000  12.147  69.341  1.00  0.00    -0.270 C  
HETATM    2  H   UNL     1     -12.081  13.653  70.560  1.00  0.00     0.000 HD 
HETATM    3  O   UNL     1     -12.017  12.710  70.660  1.00  0.00    -0.303 OA 
ENDROOT
BRANCH   1   4
HETATM    4  C   UNL     1     -10.882  12.753  68.441  1.00  0.00    -0.249 C  
BRANCH   4   5
HETATM    5  C   UNL     1     -11.448  13.705  67.340  1.00  0.00    -0.336 C  
HETATM    6  O   UNL     1     -11.049  13.285  66.026  1.00  0.00    -0.282 OA 
HETATM    7  H   UNL     1     -11.393  13.864  65.356  1.00  0.00     0.000 HD 
BRANCH   5   8
HETATM    8  C   UNL     1     -11.034  15.175  67.487  1.00  0.00    -0.310 C  
HETATM    9  C   UNL     1      -9.849  15.502  66.606  1.00  0.00    -0.254 C  
HETATM   10  O   UNL     1     -10.658  15.388  68.857  1.00  0.00    -0.228 OA 
HETATM   11  O   UNL     1      -9.970  15.913  65.454  1.00  0.00    -0.399 OA 
HETATM   12  H   UNL     1     -10.402  16.299  68.948  1.00  0.00     0.000 HD 
ENDBRANCH   5   8
ENDBRANCH   4   5
BRANCH   4  13
HETATM   13  O   UNL     1     -10.055  11.739  67.820  1.00  0.00    -0.183 OA 
BRANCH  13  14
HETATM   14  C   UNL     1      -8.759  12.194  67.395  1.00  0.00    -0.177 C  
HETATM   15  H   UNL     1      -7.840   9.183  64.937  1.00  0.00     0.000 HD 
HETATM   16  O   UNL     1      -9.072  11.289  65.099  1.00  0.00    -0.313 OA 
HETATM   17  C   UNL     1      -8.227  11.303  66.260  1.00  0.00    -0.126 C  
HETATM   18  O   UNL     1      -7.789  12.203  68.433  1.00  0.00    -0.140 OA 
HETATM   19  O   UNL     1      -7.354   9.122  65.752  1.00  0.00    -0.088 OA 
HETATM   20  C   UNL     1      -7.580  10.927  69.048  1.00  0.00    -0.135 C  
HETATM   21  H   UNL     1      -8.744  10.738  64.398  1.00  0.00     0.000 HD 
HETATM   22  C   UNL     1      -8.065   9.873  66.758  1.00  0.00    -0.117 C  
HETATM   23  C   UNL     1      -7.281   9.773  68.076  1.00  0.00    -0.080 C  
BRANCH  20  24
HETATM   24  C   UNL     1      -6.465  11.105  70.104  1.00  0.00    -0.103 C  
HETATM   25  O   UNL     1      -6.521  10.156  71.171  1.00  0.00    -0.324 OA 
HETATM   26  H   UNL     1      -5.835  10.266  71.820  1.00  0.00     0.000 HD 
ENDBRANCH  20  24
BRANCH  23  27
HETATM   27  O   UNL     1      -7.619   8.549  68.787  1.00  0.00    -0.093 OA 
BRANCH  27  28
HETATM   28  C   UNL     1      -8.903   8.595  69.421  1.00  0.00    -0.144 C  
HETATM   29  O   UNL     1      -9.929   8.263  68.498  1.00  0.00    -0.179 OA 
HETATM   30  C   UNL     1      -9.775   6.944  67.967  1.00  0.00    -0.130 C  
HETATM   31  C   UNL     1      -9.950   5.906  69.104  1.00  0.00    -0.165 C  
HETATM   32  C   UNL     1     -10.789   6.835  66.830  1.00  0.00    -0.402 C  
HETATM   33  C   UNL     1      -8.903   6.191  70.215  1.00  0.00    -0.149 C  
HETATM   34  H   UNL     1      -8.539   5.581  72.067  1.00  0.00     0.000 HD 
HETATM   35  C   UNL     1      -8.937   7.661  70.641  1.00  0.00    -0.153 C  
HETATM   36  O   UNL     1      -9.180   5.406  71.388  1.00  0.00    -0.143 OA 
HETATM   37  O   UNL     1      -7.858   7.935  71.553  1.00  0.00    -0.085 OA 
HETATM   38  H   UNL     1      -7.879   7.358  72.306  1.00  0.00     0.000 HD 
BRANCH  31  39
HETATM   39  N   UNL     1      -9.884   4.533  68.546  1.00  0.00    -0.127 NA 
HETATM   40  H   UNL     1     -10.476   3.779  68.894  1.00  0.00     0.000 HD 
BRANCH  39  41
HETATM   41  C   UNL     1      -8.900   4.320  67.443  1.00  0.00    -0.110 C  
HETATM   42  C   UNL     1      -6.428   4.205  67.975  1.00  0.00    -0.038 C  
HETATM   43  C   UNL     1      -7.567   4.883  67.832  1.00  0.00    -0.083 C  
HETATM   44  C   UNL     1      -6.340   2.740  67.641  1.00  0.00    -0.032 C  
HETATM   45  H   UNL     1      -9.518   1.128  68.000  1.00  0.00     0.000 HD 
HETATM   46  O   UNL     1      -9.522   2.058  68.197  1.00  0.00    -0.198 OA 
HETATM   47  C   UNL     1      -7.523   2.164  66.821  1.00  0.00    -0.065 C  
HETATM   48  O   UNL     1      -6.178   2.025  68.863  1.00  0.00    -0.024 OA 
HETATM   49  H   UNL     1      -7.978   1.932  64.914  1.00  0.00     0.000 HD 
HETATM   50  O   UNL     1      -7.253   2.286  65.416  1.00  0.00    -0.055 OA 
HETATM   51  C   UNL     1      -8.894   2.789  67.120  1.00  0.00    -0.142 C  
HETATM   52  H   UNL     1      -6.123   1.100  68.652  1.00  0.00     0.000 HD 
BRANCH  42  53
HETATM   53  C   UNL     1      -5.150   4.829  68.492  1.00  0.00     0.000 C  
HETATM   54  O   UNL     1      -5.388   6.052  69.181  1.00  0.00    -0.004 OA 
HETATM   55  H   UNL     1      -4.586   6.445  69.505  1.00  0.00     0.000 HD 
ENDBRANCH  42  53
ENDBRANCH  39  41
ENDBRANCH  31  39
ENDBRANCH  27  28
ENDBRANCH  23  27
ENDBRANCH  13  14
ENDBRANCH   4  13
ENDBRANCH   1   4
BRANCH   1  56
HETATM   56  C   UNL     1     -11.897  10.629  69.503  1.00  0.00    -0.273 C  
HETATM   57  O   UNL     1     -12.166  10.009  68.242  1.00  0.00     0.041 OA 
HETATM   58  H   UNL     1     -12.101   9.067  68.342  1.00  0.00     0.000 HD 
ENDBRANCH   1  56
TORSDOF 12
ENDMDL
MODEL      190
REMARK 921   NORMALIZED FREE ENERGY PREDICTED BY IDOCK:   -3.55 KCAL/MOL
REMARK 922        TOTAL FREE ENERGY PREDICTED BY IDOCK:   -9.23 KCAL/MOL
REMARK 923 INTER-LIGAND FREE ENERGY PREDICTED BY IDOCK:   -9.13 KCAL/MOL
REMARK 924 INTRA-LIGAND FREE ENERGY PREDICTED BY IDOCK:   -0.10 KCAL/MOL
REMARK 927      BINDING AFFINITY PREDICTED BY RF-SCORE:    0.00 PKD
ROOT
HETATM    1  C   UNL     1      -7.261   5.275  71.749  1.00  0.00    -0.080 C  
HETATM    2  H   UNL     1      -6.765   4.482  73.448  1.00  0.00     0.000 HD 
HETATM    3  O   UNL     1      -6.315   5.002  72.791  1.00  0.00    -0.039 OA 
ENDROOT
BRANCH   1   4
HETATM    4  C   UNL     1      -8.567   5.940  72.279  1.00  0.00    -0.124 C  
BRANCH   4   5
HETATM    5  C   UNL     1      -9.722   4.911  72.489  1.00  0.00    -0.150 C  
HETATM    6  O   UNL     1      -9.236   3.681  73.048  1.00  0.00    -0.098 OA 
HETATM    7  H   UNL     1      -9.939   3.055  73.176  1.00  0.00     0.000 HD 
BRANCH   5   8
HETATM    8  C   UNL     1     -10.502   4.550  71.218  1.00  0.00     0.062 C  
HETATM    9  C   UNL     1      -9.664   3.710  70.280  1.00  0.00    -0.122 C  
HETATM   10  O   UNL     1     -10.843   5.776  70.552  1.00  0.00    -0.283 OA 
HETATM   11  O   UNL     1      -9.651   2.482  70.319  1.00  0.00    -0.121 OA 
HETATM   12  H   UNL     1     -11.326   5.553  69.765  1.00  0.00     0.000 HD 
ENDBRANCH   5   8
ENDBRANCH   4   5
BRANCH   4  13
HETATM   13  O   UNL     1      -9.032   7.015  71.428  1.00  0.00    -0.139 OA 
BRANCH  13  14
HETATM   14  C   UNL     1      -9.163   8.289  72.080  1.00  0.00    -0.222 C  
HETATM   15  H   UNL     1     -12.717   9.359  70.608  1.00  0.00     0.000 HD 
HETATM   16  O   UNL     1     -11.623   8.027  72.342  1.00  0.00    -0.339 OA 
HETATM   17  C   UNL     1     -10.568   8.867  71.846  1.00  0.00    -0.349 C  
HETATM   18  O   UNL     1      -8.217   9.254  71.643  1.00  0.00    -0.312 OA 
HETATM   19  O   UNL     1     -12.014   9.844  70.193  1.00  0.00    -0.192 OA 
HETATM   20  C   UNL     1      -8.263   9.522  70.238  1.00  0.00    -0.187 C  
HETATM   21  H   UNL     1     -12.491   8.383  72.197  1.00  0.00     0.000 HD 
HETATM   22  C   UNL     1     -10.792   9.095  70.357  1.00  0.00    -0.242 C  
HETATM   23  C   UNL     1      -9.654   9.879  69.685  1.00  0.00    -0.227 C  
BRANCH  20  24
HETATM   24  C   UNL     1      -7.218  10.624  69.947  1.00  0.00    -0.102 C  
HETATM   25  O   UNL     1      -7.020  10.882  68.556  1.00  0.00    -0.066 OA 
HETATM   26  H   UNL     1      -6.378  11.559  68.377  1.00  0.00     0.000 HD 
ENDBRANCH  20  24
BRANCH  23  27
HETATM   27  O   UNL     1      -9.604   9.598  68.258  1.00  0.00    -0.139 OA 
BRANCH  27  28
HETATM   28  C   UNL     1     -10.767  10.043  67.549  1.00  0.00    -0.281 C  
HETATM   29  O   UNL     1     -11.233  11.276  68.077  1.00  0.00    -0.240 OA 
HETATM   30  C   UNL     1     -10.258  12.316  67.970  1.00  0.00    -0.206 C  
HETATM   31  C   UNL     1      -9.998  12.629  66.474  1.00  0.00    -0.251 C  
HETATM   32  C   UNL     1     -10.805  13.483  68.788  1.00  0.00    -0.279 C  
HETATM   33  C   UNL     1      -9.520  11.333  65.762  1.00  0.00    -0.227 C  
HETATM   34  H   UNL     1      -9.203  10.725  63.901  1.00  0.00     0.000 HD 
HETATM   35  C   UNL     1     -10.469  10.166  66.046  1.00  0.00    -0.095 C  
HETATM   36  O   UNL     1      -9.495  11.518  64.336  1.00  0.00    -0.184 OA 
HETATM   37  O   UNL     1      -9.925   8.947  65.509  1.00  0.00    -0.418 OA 
HETATM   38  H   UNL     1      -9.741   9.022  64.581  1.00  0.00     0.000 HD 
BRANCH  31  39
HETATM   39  N   UNL     1      -9.056  13.769  66.355  1.00  0.00    -0.469 NA 
HETATM   40  H   UNL     1      -8.269  13.754  65.706  1.00  0.00     0.000 HD 
BRANCH  39  41
HETATM   41  C   UNL     1      -9.328  14.939  67.240  1.00  0.00    -0.204 C  
HETATM   42  C   UNL     1      -7.519  16.668  67.624  1.00  0.00    -0.168 C  
HETATM   43  C   UNL     1      -8.044  15.457  67.813  1.00  0.00    -0.152 C  
HETATM   44  C   UNL     1      -8.258  17.731  66.856  1.00  0.00    -0.232 C  
HETATM   45  H   UNL     1     -10.513  16.292  64.475  1.00  0.00     0.000 HD 
HETATM   46  O   UNL     1     -10.024  15.660  64.989  1.00  0.00    -0.362 OA 
HETATM   47  C   UNL     1      -9.762  17.456  66.601  1.00  0.00    -0.290 C  
HETATM   48  O   UNL     1      -7.568  17.937  65.627  1.00  0.00    -0.546 OA 
HETATM   49  H   UNL     1     -11.470  17.817  67.525  1.00  0.00     0.000 HD 
HETATM   50  O   UNL     1     -10.549  17.985  67.681  1.00  0.00    -0.400 OA 
HETATM   51  C   UNL     1     -10.133  15.981  66.394  1.00  0.00    -0.300 C  
HETATM   52  H   UNL     1      -8.034  18.608  65.142  1.00  0.00     0.000 HD 
BRANCH  42  53
HETATM   53  C   UNL     1      -6.154  17.070  68.137  1.00  0.00    -0.130 C  
HETATM   54  O   UNL     1      -5.737  18.333  67.630  1.00  0.00    -0.148 OA 
HETATM   55  H   UNL     1      -4.879  18.585  67.953  1.00  0.00     0.000 HD 
ENDBRANCH  42  53
ENDBRANCH  39  41
ENDBRANCH  31  39
ENDBRANCH  27  28
ENDBRANCH  23  27
ENDBRANCH  13  14
ENDBRANCH   4  13
ENDBRANCH   1   4
BRANCH   1  56
HETATM   56  C   UNL     1      -6.537   6.113  70.693  1.00  0.00    -0.048 C  
HETATM   57  O   UNL     1      -5.576   6.949  71.343  1.00  0.00    -0.027 OA 
HETATM   58  H   UNL     1      -5.126   7.469  70.687  1.00  0.00     0.000 HD 
ENDBRANCH   1  56
TORSDOF 12
ENDMDL
MODEL      191
REMARK 921   NORMALIZED FREE ENERGY PREDICTED BY IDOCK:   -3.54 KCAL/MOL
REMARK 922        TOTAL FREE ENERGY PREDICTED BY IDOCK:   -9.22 KCAL/MOL
REMARK 923 INTER-LIGAND FREE ENERGY PREDICTED BY IDOCK:   -6.58 KCAL/MOL
REMARK 924 INTRA-LIGAND FREE ENERGY PREDICTED BY IDOCK:   -2.64 KCAL/MOL
REMARK 927      BINDING AFFINITY PREDICTED BY RF-SCORE:    0.00 PKD
ROOT
HETATM    1  C   UNL     1      -9.565   4.428  72.710  1.00  0.00    -0.134 C  
HETATM    2  H   UNL     1     -11.310   4.745  71.929  1.00  0.00     0.000 HD 
HETATM    3  O   UNL     1     -10.987   4.247  72.671  1.00  0.00    -0.110 OA 
ENDROOT
BRANCH   1   4
HETATM    4  C   UNL     1      -9.148   5.929  72.740  1.00  0.00    -0.129 C  
BRANCH   4   5
HETATM    5  C   UNL     1     -10.323   6.871  73.150  1.00  0.00    -0.266 C  
HETATM    6  O   UNL     1     -11.127   6.289  74.188  1.00  0.00    -0.249 OA 
HETATM    7  H   UNL     1     -11.842   6.863  74.437  1.00  0.00     0.000 HD 
BRANCH   5   8
HETATM    8  C   UNL     1     -11.273   7.249  72.005  1.00  0.00    -0.250 C  
HETATM    9  C   UNL     1     -11.580   8.730  72.013  1.00  0.00    -0.366 C  
HETATM   10  O   UNL     1     -12.500   6.527  72.199  1.00  0.00    -0.502 OA 
HETATM   11  O   UNL     1     -10.909   9.551  71.392  1.00  0.00    -0.347 OA 
HETATM   12  H   UNL     1     -13.088   6.761  71.490  1.00  0.00     0.000 HD 
ENDBRANCH   5   8
ENDBRANCH   4   5
BRANCH   4  13
HETATM   13  O   UNL     1      -8.588   6.378  71.482  1.00  0.00    -0.129 OA 
BRANCH  13  14
HETATM   14  C   UNL     1      -8.233   5.327  70.568  1.00  0.00    -0.108 C  
HETATM   15  H   UNL     1      -4.585   6.605  69.567  1.00  0.00     0.000 HD 
HETATM   16  O   UNL     1      -5.845   5.378  71.265  1.00  0.00    -0.016 OA 
HETATM   17  C   UNL     1      -6.757   5.454  70.157  1.00  0.00    -0.047 C  
HETATM   18  O   UNL     1      -9.016   5.314  69.383  1.00  0.00    -0.098 OA 
HETATM   19  O   UNL     1      -5.207   6.762  68.866  1.00  0.00    -0.012 OA 
HETATM   20  C   UNL     1      -8.958   6.529  68.631  1.00  0.00    -0.126 C  
HETATM   21  H   UNL     1      -4.933   5.456  71.011  1.00  0.00     0.000 HD 
HETATM   22  C   UNL     1      -6.532   6.776  69.436  1.00  0.00    -0.044 C  
HETATM   23  C   UNL     1      -7.540   7.030  68.304  1.00  0.00    -0.111 C  
BRANCH  20  24
HETATM   24  C   UNL     1      -9.812   6.323  67.359  1.00  0.00    -0.131 C  
HETATM   25  O   UNL     1     -11.220   6.323  67.599  1.00  0.00    -0.496 OA 
HETATM   26  H   UNL     1     -11.744   6.196  66.817  1.00  0.00     0.000 HD 
ENDBRANCH  20  24
BRANCH  23  27
HETATM   27  O   UNL     1      -7.668   8.454  68.034  1.00  0.00    -0.100 OA 
BRANCH  27  28
HETATM   28  C   UNL     1      -7.068   8.856  66.796  1.00  0.00    -0.081 C  
HETATM   29  O   UNL     1      -8.061   9.052  65.800  1.00  0.00    -0.103 OA 
HETATM   30  C   UNL     1      -8.996  10.072  66.159  1.00  0.00    -0.149 C  
HETATM   31  C   UNL     1      -8.268  11.438  66.229  1.00  0.00    -0.088 C  
HETATM   32  C   UNL     1     -10.116   9.989  65.125  1.00  0.00    -0.268 C  
HETATM   33  C   UNL     1      -7.114  11.344  67.264  1.00  0.00    -0.119 C  
HETATM   34  H   UNL     1      -5.564  12.447  67.824  1.00  0.00     0.000 HD 
HETATM   35  C   UNL     1      -6.227  10.127  66.991  1.00  0.00    -0.063 C  
HETATM   36  O   UNL     1      -6.270  12.506  67.191  1.00  0.00    -0.187 OA 
HETATM   37  O   UNL     1      -5.263   9.971  68.049  1.00  0.00    -0.036 OA 
HETATM   38  H   UNL     1      -4.743  10.756  68.169  1.00  0.00     0.000 HD 
BRANCH  31  39
HETATM   39  N   UNL     1      -9.248  12.516  66.510  1.00  0.00    -0.291 NA 
HETATM   40  H   UNL     1     -10.001  12.399  67.189  1.00  0.00     0.000 HD 
BRANCH  39  41
HETATM   41  C   UNL     1      -9.069  13.782  65.740  1.00  0.00     0.503 C  
HETATM   42  C   UNL     1     -11.094  15.168  65.117  1.00  0.00    -0.410 C  
HETATM   43  C   UNL     1     -10.317  14.094  64.971  1.00  0.00    -0.443 C  
HETATM   44  C   UNL     1     -10.718  16.286  66.051  1.00  0.00    -0.214 C  
HETATM   45  H   UNL     1      -8.652  15.112  68.730  1.00  0.00     0.000 HD 
HETATM   46  O   UNL     1      -8.914  14.442  68.110  1.00  0.00    -0.172 OA 
HETATM   47  C   UNL     1      -9.253  16.278  66.558  1.00  0.00    -0.269 C  
HETATM   48  O   UNL     1     -11.631  16.263  67.145  1.00  0.00     0.248 OA 
HETATM   49  H   UNL     1      -7.521  17.022  65.971  1.00  0.00     0.000 HD 
HETATM   50  O   UNL     1      -8.418  17.028  65.660  1.00  0.00    -0.437 OA 
HETATM   51  C   UNL     1      -8.638  14.886  66.762  1.00  0.00    -0.222 C  
HETATM   52  H   UNL     1     -11.393  16.970  67.735  1.00  0.00     0.000 HD 
BRANCH  42  53
HETATM   53  C   UNL     1     -12.407  15.346  64.386  1.00  0.00    -0.077 C  
HETATM   54  O   UNL     1     -13.529  15.082  65.221  1.00  0.00     0.228 OA 
HETATM   55  H   UNL     1     -14.354  15.193  64.762  1.00  0.00     0.000 HD 
ENDBRANCH  42  53
ENDBRANCH  39  41
ENDBRANCH  31  39
ENDBRANCH  27  28
ENDBRANCH  23  27
ENDBRANCH  13  14
ENDBRANCH   4  13
ENDBRANCH   1   4
BRANCH   1  56
HETATM   56  C   UNL     1      -9.044   3.627  73.906  1.00  0.00    -0.090 C  
HETATM   57  O   UNL     1      -8.877   2.262  73.512  1.00  0.00    -0.069 OA 
HETATM   58  H   UNL     1      -8.553   1.765  74.254  1.00  0.00     0.000 HD 
ENDBRANCH   1  56
TORSDOF 12
ENDMDL
MODEL      192
REMARK 921   NORMALIZED FREE ENERGY PREDICTED BY IDOCK:   -3.53 KCAL/MOL
REMARK 922        TOTAL FREE ENERGY PREDICTED BY IDOCK:   -9.21 KCAL/MOL
REMARK 923 INTER-LIGAND FREE ENERGY PREDICTED BY IDOCK:   -7.57 KCAL/MOL
REMARK 924 INTRA-LIGAND FREE ENERGY PREDICTED BY IDOCK:   -1.64 KCAL/MOL
REMARK 927      BINDING AFFINITY PREDICTED BY RF-SCORE:    0.00 PKD
ROOT
HETATM    1  C   UNL     1     -10.579  13.783  64.794  1.00  0.00    -0.428 C  
HETATM    2  H   UNL     1      -9.433  15.332  65.008  1.00  0.00     0.000 HD 
HETATM    3  O   UNL     1     -10.299  15.182  64.648  1.00  0.00    -0.242 OA 
ENDROOT
BRANCH   1   4
HETATM    4  C   UNL     1     -10.424  13.288  66.263  1.00  0.00    -0.287 C  
BRANCH   4   5
HETATM    5  C   UNL     1     -10.268  14.462  67.280  1.00  0.00    -0.252 C  
HETATM    6  O   UNL     1      -9.413  14.099  68.375  1.00  0.00    -0.207 OA 
HETATM    7  H   UNL     1      -9.318  14.813  68.994  1.00  0.00     0.000 HD 
BRANCH   5   8
HETATM    8  C   UNL     1     -11.583  14.968  67.885  1.00  0.00    -0.333 C  
HETATM    9  C   UNL     1     -11.482  15.098  69.389  1.00  0.00    -0.306 C  
HETATM   10  O   UNL     1     -12.605  14.006  67.578  1.00  0.00    -0.441 OA 
HETATM   11  O   UNL     1     -11.120  16.134  69.944  1.00  0.00    -0.318 OA 
HETATM   12  H   UNL     1     -13.419  14.320  67.952  1.00  0.00     0.000 HD 
ENDBRANCH   5   8
ENDBRANCH   4   5
BRANCH   4  13
HETATM   13  O   UNL     1      -9.324  12.361  66.427  1.00  0.00    -0.232 OA 
BRANCH  13  14
HETATM   14  C   UNL     1      -9.184  11.395  65.371  1.00  0.00    -0.151 C  
HETATM   15  H   UNL     1     -10.624   8.199  67.285  1.00  0.00     0.000 HD 
HETATM   16  O   UNL     1     -11.264  10.203  66.038  1.00  0.00     0.420 OA 
HETATM   17  C   UNL     1      -9.859  10.071  65.767  1.00  0.00    -0.278 C  
HETATM   18  O   UNL     1      -7.834  11.111  65.032  1.00  0.00     0.247 OA 
HETATM   19  O   UNL     1      -9.677   8.155  67.208  1.00  0.00    -0.154 OA 
HETATM   20  C   UNL     1      -7.048  10.622  66.123  1.00  0.00    -0.138 C  
HETATM   21  H   UNL     1     -11.680   9.385  66.283  1.00  0.00     0.000 HD 
HETATM   22  C   UNL     1      -9.180   9.494  67.002  1.00  0.00    -0.139 C  
HETATM   23  C   UNL     1      -7.650   9.424  66.879  1.00  0.00    -0.091 C  
BRANCH  20  24
HETATM   24  C   UNL     1      -5.637  10.315  65.570  1.00  0.00    -0.090 C  
HETATM   25  O   UNL     1      -5.441  10.730  64.217  1.00  0.00    -0.297 OA 
HETATM   26  H   UNL     1      -4.574  10.541  63.878  1.00  0.00     0.000 HD 
ENDBRANCH  20  24
BRANCH  23  27
HETATM   27  O   UNL     1      -7.024   9.421  68.192  1.00  0.00    -0.073 OA 
BRANCH  27  28
HETATM   28  C   UNL     1      -5.806   8.669  68.241  1.00  0.00    -0.042 C  
HETATM   29  O   UNL     1      -5.135   8.882  69.474  1.00  0.00    -0.034 OA 
HETATM   30  C   UNL     1      -5.920   8.473  70.597  1.00  0.00    -0.032 C  
HETATM   31  C   UNL     1      -6.129   6.938  70.549  1.00  0.00    -0.027 C  
HETATM   32  C   UNL     1      -5.180   8.987  71.829  1.00  0.00    -0.048 C  
HETATM   33  C   UNL     1      -6.822   6.563  69.211  1.00  0.00    -0.065 C  
HETATM   34  H   UNL     1      -7.245   4.908  68.202  1.00  0.00     0.000 HD 
HETATM   35  C   UNL     1      -6.085   7.174  68.017  1.00  0.00    -0.034 C  
HETATM   36  O   UNL     1      -6.822   5.137  69.021  1.00  0.00    -0.051 OA 
HETATM   37  O   UNL     1      -6.829   6.946  66.807  1.00  0.00    -0.060 OA 
HETATM   38  H   UNL     1      -7.001   6.023  66.669  1.00  0.00     0.000 HD 
BRANCH  31  39
HETATM   39  N   UNL     1      -6.864   6.493  71.759  1.00  0.00    -0.063 NA 
HETATM   40  H   UNL     1      -6.493   5.775  72.382  1.00  0.00     0.000 HD 
BRANCH  39  41
HETATM   41  C   UNL     1      -8.177   7.156  72.009  1.00  0.00    -0.099 C  
HETATM   42  C   UNL     1     -10.286   6.181  71.004  1.00  0.00    -0.244 C  
HETATM   43  C   UNL     1      -9.131   6.839  70.897  1.00  0.00    -0.153 C  
HETATM   44  C   UNL     1     -10.827   5.758  72.342  1.00  0.00    -0.247 C  
HETATM   45  H   UNL     1      -8.194   5.281  74.722  1.00  0.00     0.000 HD 
HETATM   46  O   UNL     1      -7.903   5.552  73.860  1.00  0.00    -0.103 OA 
HETATM   47  C   UNL     1     -10.156   6.412  73.578  1.00  0.00    -0.226 C  
HETATM   48  O   UNL     1     -10.743   4.338  72.415  1.00  0.00    -0.126 OA 
HETATM   49  H   UNL     1     -10.427   8.029  74.679  1.00  0.00     0.000 HD 
HETATM   50  O   UNL     1     -10.838   7.629  73.921  1.00  0.00    -0.156 OA 
HETATM   51  C   UNL     1      -8.657   6.708  73.430  1.00  0.00    -0.122 C  
HETATM   52  H   UNL     1     -11.084   4.071  73.261  1.00  0.00     0.000 HD 
BRANCH  42  53
HETATM   53  C   UNL     1     -11.131   5.793  69.810  1.00  0.00    -0.248 C  
HETATM   54  O   UNL     1     -11.362   6.890  68.933  1.00  0.00    -0.510 OA 
HETATM   55  H   UNL     1     -11.893   6.646  68.183  1.00  0.00     0.000 HD 
ENDBRANCH  42  53
ENDBRANCH  39  41
ENDBRANCH  31  39
ENDBRANCH  27  28
ENDBRANCH  23  27
ENDBRANCH  13  14
ENDBRANCH   4  13
ENDBRANCH   1   4
BRANCH   1  56
HETATM   56  C   UNL     1     -11.975  13.542  64.213  1.00  0.00    -0.432 C  
HETATM   57  O   UNL     1     -12.687  12.650  65.075  1.00  0.00    -0.658 OA 
HETATM   58  H   UNL     1     -13.554  12.500  64.715  1.00  0.00     0.000 HD 
ENDBRANCH   1  56
TORSDOF 12
ENDMDL
MODEL      193
REMARK 921   NORMALIZED FREE ENERGY PREDICTED BY IDOCK:   -3.52 KCAL/MOL
REMARK 922        TOTAL FREE ENERGY PREDICTED BY IDOCK:   -9.18 KCAL/MOL
REMARK 923 INTER-LIGAND FREE ENERGY PREDICTED BY IDOCK:   -7.81 KCAL/MOL
REMARK 924 INTRA-LIGAND FREE ENERGY PREDICTED BY IDOCK:   -1.37 KCAL/MOL
REMARK 927      BINDING AFFINITY PREDICTED BY RF-SCORE:    0.00 PKD
ROOT
HETATM    1  C   UNL     1      -9.073   2.550  63.661  1.00  0.00    -0.094 C  
HETATM    2  H   UNL     1      -7.431   1.671  64.202  1.00  0.00     0.000 HD 
HETATM    3  O   UNL     1      -8.005   1.617  63.446  1.00  0.00    -0.058 OA 
ENDROOT
BRANCH   1   4
HETATM    4  C   UNL     1      -8.563   3.993  63.950  1.00  0.00    -0.103 C  
BRANCH   4   5
HETATM    5  C   UNL     1      -7.231   4.321  63.205  1.00  0.00    -0.049 C  
HETATM    6  O   UNL     1      -6.120   3.617  63.780  1.00  0.00    -0.014 OA 
HETATM    7  H   UNL     1      -5.309   3.816  63.326  1.00  0.00     0.000 HD 
BRANCH   5   8
HETATM    8  C   UNL     1      -6.856   5.809  63.180  1.00  0.00    -0.036 C  
HETATM    9  C   UNL     1      -6.532   6.316  64.568  1.00  0.00    -0.034 C  
HETATM   10  O   UNL     1      -7.990   6.537  62.682  1.00  0.00    -0.100 OA 
HETATM   11  O   UNL     1      -5.394   6.295  65.034  1.00  0.00    -0.016 OA 
HETATM   12  H   UNL     1      -7.758   7.458  62.666  1.00  0.00     0.000 HD 
ENDBRANCH   5   8
ENDBRANCH   4   5
BRANCH   4  13
HETATM   13  O   UNL     1      -8.398   4.255  65.365  1.00  0.00    -0.108 OA 
BRANCH  13  14
HETATM   14  C   UNL     1      -9.401   3.666  66.209  1.00  0.00    -0.178 C  
HETATM   15  H   UNL     1     -11.995   6.702  66.272  1.00  0.00     0.000 HD 
HETATM   16  O   UNL     1     -11.253   4.771  64.968  1.00  0.00    -0.736 OA 
HETATM   17  C   UNL     1     -10.652   4.560  66.256  1.00  0.00     0.025 C  
HETATM   18  O   UNL     1      -8.969   3.453  67.545  1.00  0.00    -0.119 OA 
HETATM   19  O   UNL     1     -11.521   6.639  67.093  1.00  0.00    -0.230 OA 
HETATM   20  C   UNL     1      -8.534   4.640  68.215  1.00  0.00    -0.097 C  
HETATM   21  H   UNL     1     -12.025   5.324  64.997  1.00  0.00     0.000 HD 
HETATM   22  C   UNL     1     -10.296   5.916  66.851  1.00  0.00    -0.247 C  
HETATM   23  C   UNL     1      -9.529   5.814  68.179  1.00  0.00    -0.111 C  
BRANCH  20  24
HETATM   24  C   UNL     1      -8.156   4.240  69.660  1.00  0.00    -0.059 C  
HETATM   25  O   UNL     1      -7.427   3.014  69.750  1.00  0.00    -0.044 OA 
HETATM   26  H   UNL     1      -7.195   2.769  70.638  1.00  0.00     0.000 HD 
ENDBRANCH  20  24
BRANCH  23  27
HETATM   27  O   UNL     1      -8.743   7.016  68.415  1.00  0.00    -0.125 OA 
BRANCH  27  28
HETATM   28  C   UNL     1      -8.797   7.474  69.772  1.00  0.00    -0.141 C  
HETATM   29  O   UNL     1      -7.709   8.342  70.051  1.00  0.00    -0.085 OA 
HETATM   30  C   UNL     1      -7.716   9.505  69.219  1.00  0.00    -0.086 C  
HETATM   31  C   UNL     1      -8.966  10.363  69.541  1.00  0.00    -0.106 C  
HETATM   32  C   UNL     1      -6.377  10.197  69.464  1.00  0.00    -0.051 C  
HETATM   33  C   UNL     1     -10.240   9.504  69.318  1.00  0.00    -0.203 C  
HETATM   34  H   UNL     1     -12.183   9.653  69.690  1.00  0.00     0.000 HD 
HETATM   35  C   UNL     1     -10.140   8.166  70.054  1.00  0.00    -0.196 C  
HETATM   36  O   UNL     1     -11.403  10.179  69.827  1.00  0.00    -0.248 OA 
HETATM   37  O   UNL     1     -11.256   7.327  69.708  1.00  0.00    -0.396 OA 
HETATM   38  H   UNL     1     -12.085   7.754  69.882  1.00  0.00     0.000 HD 
BRANCH  31  39
HETATM   39  N   UNL     1      -8.932  11.617  68.749  1.00  0.00    -0.363 NA 
HETATM   40  H   UNL     1      -8.173  12.293  68.838  1.00  0.00     0.000 HD 
BRANCH  39  41
HETATM   41  C   UNL     1     -10.075  11.831  67.813  1.00  0.00    -0.188 C  
HETATM   42  C   UNL     1     -10.706  14.184  67.123  1.00  0.00    -0.280 C  
HETATM   43  C   UNL     1     -10.656  13.197  68.019  1.00  0.00    -0.246 C  
HETATM   44  C   UNL     1     -10.251  13.979  65.704  1.00  0.00    -0.334 C  
HETATM   45  H   UNL     1      -7.775  11.401  65.487  1.00  0.00     0.000 HD 
HETATM   46  O   UNL     1      -8.097  11.566  66.366  1.00  0.00    -0.151 OA 
HETATM   47  C   UNL     1     -10.049  12.505  65.267  1.00  0.00    -0.257 C  
HETATM   48  O   UNL     1      -9.053  14.728  65.520  1.00  0.00    -0.345 OA 
HETATM   49  H   UNL     1     -11.149  11.076  64.462  1.00  0.00     0.000 HD 
HETATM   50  O   UNL     1     -11.274  11.980  64.730  1.00  0.00    -0.309 OA 
HETATM   51  C   UNL     1      -9.543  11.559  66.366  1.00  0.00    -0.209 C  
HETATM   52  H   UNL     1      -8.766  14.598  64.623  1.00  0.00     0.000 HD 
BRANCH  42  53
HETATM   53  C   UNL     1     -11.198  15.577  67.452  1.00  0.00    -0.248 C  
HETATM   54  O   UNL     1     -12.098  15.585  68.555  1.00  0.00    -0.546 OA 
HETATM   55  H   UNL     1     -12.408  16.459  68.761  1.00  0.00     0.000 HD 
ENDBRANCH  42  53
ENDBRANCH  39  41
ENDBRANCH  31  39
ENDBRANCH  27  28
ENDBRANCH  23  27
ENDBRANCH  13  14
ENDBRANCH   4  13
ENDBRANCH   1   4
BRANCH   1  56
HETATM   56  C   UNL     1      -9.996   2.462  62.443  1.00  0.00    -0.088 C  
HETATM   57  O   UNL     1     -11.349   2.632  62.875  1.00  0.00    -0.202 OA 
HETATM   58  H   UNL     1     -11.923   2.578  62.119  1.00  0.00     0.000 HD 
ENDBRANCH   1  56
TORSDOF 12
ENDMDL
MODEL      194
REMARK 921   NORMALIZED FREE ENERGY PREDICTED BY IDOCK:   -3.51 KCAL/MOL
REMARK 922        TOTAL FREE ENERGY PREDICTED BY IDOCK:   -9.17 KCAL/MOL
REMARK 923 INTER-LIGAND FREE ENERGY PREDICTED BY IDOCK:   -6.70 KCAL/MOL
REMARK 924 INTRA-LIGAND FREE ENERGY PREDICTED BY IDOCK:   -2.47 KCAL/MOL
REMARK 927      BINDING AFFINITY PREDICTED BY RF-SCORE:    0.00 PKD
ROOT
HETATM    1  C   UNL     1      -9.041   4.214  73.092  1.00  0.00    -0.110 C  
HETATM    2  H   UNL     1      -8.129   4.182  74.802  1.00  0.00     0.000 HD 
HETATM    3  O   UNL     1      -8.905   3.765  74.447  1.00  0.00    -0.090 OA 
ENDROOT
BRANCH   1   4
HETATM    4  C   UNL     1      -7.760   3.965  72.242  1.00  0.00    -0.071 C  
BRANCH   4   5
HETATM    5  C   UNL     1      -6.473   4.542  72.913  1.00  0.00    -0.041 C  
HETATM    6  O   UNL     1      -5.814   3.556  73.721  1.00  0.00    -0.003 OA 
HETATM    7  H   UNL     1      -5.031   3.906  74.129  1.00  0.00     0.000 HD 
BRANCH   5   8
HETATM    8  C   UNL     1      -6.707   5.770  73.803  1.00  0.00    -0.080 C  
HETATM    9  C   UNL     1      -7.180   6.954  72.990  1.00  0.00    -0.074 C  
HETATM   10  O   UNL     1      -5.453   6.108  74.417  1.00  0.00    -0.046 OA 
HETATM   11  O   UNL     1      -8.369   7.189  72.787  1.00  0.00    -0.106 OA 
HETATM   12  H   UNL     1      -5.598   6.868  74.968  1.00  0.00     0.000 HD 
ENDBRANCH   5   8
ENDBRANCH   4   5
BRANCH   4  13
HETATM   13  O   UNL     1      -7.873   4.485  70.895  1.00  0.00    -0.065 OA 
BRANCH  13  14
HETATM   14  C   UNL     1      -7.579   3.538  69.855  1.00  0.00    -0.044 C  
HETATM   15  H   UNL     1      -4.604   5.511  68.064  1.00  0.00     0.000 HD 
HETATM   16  O   UNL     1      -5.143   4.035  69.938  1.00  0.00     0.000 OA 
HETATM   17  C   UNL     1      -6.306   3.953  69.099  1.00  0.00    -0.029 C  
HETATM   18  O   UNL     1      -8.623   3.393  68.903  1.00  0.00    -0.075 OA 
HETATM   19  O   UNL     1      -5.404   5.557  67.552  1.00  0.00    -0.004 OA 
HETATM   20  C   UNL     1      -8.982   4.610  68.241  1.00  0.00    -0.114 C  
HETATM   21  H   UNL     1      -4.356   4.293  69.471  1.00  0.00     0.000 HD 
HETATM   22  C   UNL     1      -6.518   5.306  68.433  1.00  0.00    -0.040 C  
HETATM   23  C   UNL     1      -7.811   5.380  67.605  1.00  0.00    -0.100 C  
BRANCH  20  24
HETATM   24  C   UNL     1     -10.081   4.264  67.210  1.00  0.00     0.010 C  
HETATM   25  O   UNL     1     -11.008   5.324  66.973  1.00  0.00    -0.336 OA 
HETATM   26  H   UNL     1     -11.683   5.111  66.339  1.00  0.00     0.000 HD 
ENDBRANCH  20  24
BRANCH  23  27
HETATM   27  O   UNL     1      -8.261   6.757  67.470  1.00  0.00    -0.120 OA 
BRANCH  27  28
HETATM   28  C   UNL     1      -7.613   7.660  68.375  1.00  0.00    -0.113 C  
HETATM   29  O   UNL     1      -7.098   8.784  67.677  1.00  0.00    -0.077 OA 
HETATM   30  C   UNL     1      -8.123   9.527  67.012  1.00  0.00    -0.113 C  
HETATM   31  C   UNL     1      -9.075  10.149  68.065  1.00  0.00    -0.131 C  
HETATM   32  C   UNL     1      -7.395  10.533  66.124  1.00  0.00    -0.136 C  
HETATM   33  C   UNL     1      -9.678   9.013  68.936  1.00  0.00    -0.163 C  
HETATM   34  H   UNL     1     -10.746   8.863  70.600  1.00  0.00     0.000 HD 
HETATM   35  C   UNL     1      -8.581   8.098  69.485  1.00  0.00    -0.134 C  
HETATM   36  O   UNL     1     -10.378   9.558  70.068  1.00  0.00    -0.212 OA 
HETATM   37  O   UNL     1      -9.170   6.969  70.155  1.00  0.00    -0.152 OA 
HETATM   38  H   UNL     1      -9.768   7.239  70.841  1.00  0.00     0.000 HD 
BRANCH  31  39
HETATM   39  N   UNL     1     -10.087  10.997  67.388  1.00  0.00    -0.182 NA 
HETATM   40  H   UNL     1     -10.768  10.609  66.735  1.00  0.00     0.000 HD 
BRANCH  39  41
HETATM   41  C   UNL     1     -10.050  12.452  67.719  1.00  0.00    -0.203 C  
HETATM   42  C   UNL     1     -10.775  14.150  65.986  1.00  0.00    -0.299 C  
HETATM   43  C   UNL     1      -9.906  13.258  66.463  1.00  0.00    -0.281 C  
HETATM   44  C   UNL     1     -12.009  14.532  66.758  1.00  0.00    -0.342 C  
HETATM   45  H   UNL     1     -13.068  11.882  68.922  1.00  0.00     0.000 HD 
HETATM   46  O   UNL     1     -12.288  11.690  68.414  1.00  0.00    -0.417 OA 
HETATM   47  C   UNL     1     -12.035  14.100  68.246  1.00  0.00    -0.332 C  
HETATM   48  O   UNL     1     -13.136  14.008  66.061  1.00  0.00    -0.453 OA 
HETATM   49  H   UNL     1     -11.474  14.863  69.979  1.00  0.00     0.000 HD 
HETATM   50  O   UNL     1     -11.458  15.128  69.067  1.00  0.00    -0.274 OA 
HETATM   51  C   UNL     1     -11.334  12.768  68.554  1.00  0.00    -0.291 C  
HETATM   52  H   UNL     1     -13.915  14.249  66.548  1.00  0.00     0.000 HD 
BRANCH  42  53
HETATM   53  C   UNL     1     -10.612  14.831  64.645  1.00  0.00    -0.206 C  
HETATM   54  O   UNL     1     -11.842  14.925  63.935  1.00  0.00    -0.792 OA 
HETATM   55  H   UNL     1     -11.739  15.352  63.092  1.00  0.00     0.000 HD 
ENDBRANCH  42  53
ENDBRANCH  39  41
ENDBRANCH  31  39
ENDBRANCH  27  28
ENDBRANCH  23  27
ENDBRANCH  13  14
ENDBRANCH   4  13
ENDBRANCH   1   4
BRANCH   1  56
HETATM   56  C   UNL     1     -10.292   3.541  72.520  1.00  0.00    -0.122 C  
HETATM   57  O   UNL     1     -10.923   4.439  71.604  1.00  0.00     0.268 OA 
HETATM   58  H   UNL     1     -11.699   4.021  71.248  1.00  0.00     0.000 HD 
ENDBRANCH   1  56
TORSDOF 12
ENDMDL
MODEL      195
REMARK 921   NORMALIZED FREE ENERGY PREDICTED BY IDOCK:   -3.50 KCAL/MOL
REMARK 922        TOTAL FREE ENERGY PREDICTED BY IDOCK:   -9.15 KCAL/MOL
REMARK 923 INTER-LIGAND FREE ENERGY PREDICTED BY IDOCK:   -7.40 KCAL/MOL
REMARK 924 INTRA-LIGAND FREE ENERGY PREDICTED BY IDOCK:   -1.76 KCAL/MOL
REMARK 927      BINDING AFFINITY PREDICTED BY RF-SCORE:    0.00 PKD
ROOT
HETATM    1  C   UNL     1     -10.294  11.867  67.695  1.00  0.00    -0.200 C  
HETATM    2  H   UNL     1      -8.629  12.760  68.128  1.00  0.00     0.000 HD 
HETATM    3  O   UNL     1      -9.003  11.906  68.315  1.00  0.00    -0.173 OA 
ENDROOT
BRANCH   1   4
HETATM    4  C   UNL     1     -10.243  12.201  66.174  1.00  0.00    -0.227 C  
BRANCH   4   5
HETATM    5  C   UNL     1     -11.526  12.939  65.677  1.00  0.00    -0.332 C  
HETATM    6  O   UNL     1     -12.659  12.058  65.644  1.00  0.00    -0.252 OA 
HETATM    7  H   UNL     1     -13.440  12.506  65.342  1.00  0.00     0.000 HD 
BRANCH   5   8
HETATM    8  C   UNL     1     -11.407  13.571  64.285  1.00  0.00    -0.375 C  
HETATM    9  C   UNL     1     -11.944  12.647  63.214  1.00  0.00    -0.441 C  
HETATM   10  O   UNL     1     -10.013  13.804  64.028  1.00  0.00    -0.604 OA 
HETATM   11  O   UNL     1     -13.117  12.666  62.847  1.00  0.00    -0.161 OA 
HETATM   12  H   UNL     1      -9.939  14.196  63.166  1.00  0.00     0.000 HD 
ENDBRANCH   5   8
ENDBRANCH   4   5
BRANCH   4  13
HETATM   13  O   UNL     1     -10.013  11.032  65.352  1.00  0.00    -0.232 OA 
BRANCH  13  14
HETATM   14  C   UNL     1      -8.889  11.129  64.461  1.00  0.00     0.088 C  
HETATM   15  H   UNL     1      -9.056   7.469  62.874  1.00  0.00     0.000 HD 
HETATM   16  O   UNL     1      -9.995   9.722  62.733  1.00  0.00    -0.431 OA 
HETATM   17  C   UNL     1      -8.824   9.895  63.547  1.00  0.00    -0.234 C  
HETATM   18  O   UNL     1      -7.641  11.244  65.128  1.00  0.00     0.404 OA 
HETATM   19  O   UNL     1      -8.342   7.541  63.497  1.00  0.00     0.002 OA 
HETATM   20  C   UNL     1      -7.351  10.158  66.015  1.00  0.00    -0.118 C  
HETATM   21  H   UNL     1      -9.955   8.959  62.168  1.00  0.00     0.000 HD 
HETATM   22  C   UNL     1      -8.629   8.639  64.386  1.00  0.00    -0.042 C  
HETATM   23  C   UNL     1      -7.474   8.755  65.394  1.00  0.00    -0.086 C  
BRANCH  20  24
HETATM   24  C   UNL     1      -5.945  10.413  66.607  1.00  0.00    -0.066 C  
HETATM   25  O   UNL     1      -5.453  11.736  66.386  1.00  0.00    -0.367 OA 
HETATM   26  H   UNL     1      -4.590  11.892  66.750  1.00  0.00     0.000 HD 
ENDBRANCH  20  24
BRANCH  23  27
HETATM   27  O   UNL     1      -7.665   7.838  66.507  1.00  0.00    -0.093 OA 
BRANCH  27  28
HETATM   28  C   UNL     1      -7.786   6.469  66.103  1.00  0.00    -0.106 C  
HETATM   29  O   UNL     1      -6.658   5.720  66.529  1.00  0.00    -0.052 OA 
HETATM   30  C   UNL     1      -6.511   5.721  67.951  1.00  0.00    -0.043 C  
HETATM   31  C   UNL     1      -7.712   4.981  68.595  1.00  0.00    -0.078 C  
HETATM   32  C   UNL     1      -5.145   5.098  68.227  1.00  0.00     0.000 C  
HETATM   33  C   UNL     1      -9.028   5.683  68.165  1.00  0.00    -0.111 C  
HETATM   34  H   UNL     1     -10.976   5.325  68.280  1.00  0.00     0.000 HD 
HETATM   35  C   UNL     1      -9.088   5.859  66.646  1.00  0.00    -0.134 C  
HETATM   36  O   UNL     1     -10.171   4.896  68.543  1.00  0.00    -0.128 OA 
HETATM   37  O   UNL     1     -10.237   6.647  66.285  1.00  0.00    -0.431 OA 
HETATM   38  H   UNL     1     -11.042   6.271  66.620  1.00  0.00     0.000 HD 
BRANCH  31  39
HETATM   39  N   UNL     1      -7.521   4.897  70.064  1.00  0.00    -0.055 NA 
HETATM   40  H   UNL     1      -6.969   4.156  70.496  1.00  0.00     0.000 HD 
BRANCH  39  41
HETATM   41  C   UNL     1      -8.184   5.962  70.873  1.00  0.00    -0.125 C  
HETATM   42  C   UNL     1      -8.956   5.448  73.229  1.00  0.00    -0.120 C  
HETATM   43  C   UNL     1      -9.075   5.339  71.905  1.00  0.00    -0.153 C  
HETATM   44  C   UNL     1      -7.917   6.340  73.853  1.00  0.00    -0.098 C  
HETATM   45  H   UNL     1      -5.089   6.756  71.695  1.00  0.00     0.000 HD 
HETATM   46  O   UNL     1      -5.777   6.202  71.343  1.00  0.00    -0.025 OA 
HETATM   47  C   UNL     1      -7.241   7.357  72.898  1.00  0.00    -0.073 C  
HETATM   48  O   UNL     1      -6.942   5.504  74.471  1.00  0.00    -0.077 OA 
HETATM   49  H   UNL     1      -7.571   9.210  72.297  1.00  0.00     0.000 HD 
HETATM   50  O   UNL     1      -7.985   8.586  72.882  1.00  0.00    -0.335 OA 
HETATM   51  C   UNL     1      -7.052   6.874  71.453  1.00  0.00    -0.074 C  
HETATM   52  H   UNL     1      -6.286   6.068  74.864  1.00  0.00     0.000 HD 
BRANCH  42  53
HETATM   53  C   UNL     1      -9.825   4.684  74.204  1.00  0.00    -0.157 C  
HETATM   54  O   UNL     1     -11.207   4.992  74.050  1.00  0.00    -0.410 OA 
HETATM   55  H   UNL     1     -11.753   4.513  74.663  1.00  0.00     0.000 HD 
ENDBRANCH  42  53
ENDBRANCH  39  41
ENDBRANCH  31  39
ENDBRANCH  27  28
ENDBRANCH  23  27
ENDBRANCH  13  14
ENDBRANCH   4  13
ENDBRANCH   1   4
BRANCH   1  56
HETATM   56  C   UNL     1     -10.895  10.492  67.996  1.00  0.00    -0.263 C  
HETATM   57  O   UNL     1     -11.722  10.592  69.158  1.00  0.00    -0.411 OA 
HETATM   58  H   UNL     1     -12.095   9.738  69.345  1.00  0.00     0.000 HD 
ENDBRANCH   1  56
TORSDOF 12
ENDMDL
MODEL      196
REMARK 921   NORMALIZED FREE ENERGY PREDICTED BY IDOCK:   -3.49 KCAL/MOL
REMARK 922        TOTAL FREE ENERGY PREDICTED BY IDOCK:   -9.13 KCAL/MOL
REMARK 923 INTER-LIGAND FREE ENERGY PREDICTED BY IDOCK:   -7.03 KCAL/MOL
REMARK 924 INTRA-LIGAND FREE ENERGY PREDICTED BY IDOCK:   -2.09 KCAL/MOL
REMARK 927      BINDING AFFINITY PREDICTED BY RF-SCORE:    0.00 PKD
ROOT
HETATM    1  C   UNL     1      -8.500   3.407  70.173  1.00  0.00    -0.056 C  
HETATM    2  H   UNL     1     -10.089   4.458  69.814  1.00  0.00     0.000 HD 
HETATM    3  O   UNL     1      -9.864   3.767  70.427  1.00  0.00    -0.185 OA 
ENDROOT
BRANCH   1   4
HETATM    4  C   UNL     1      -7.533   4.626  70.233  1.00  0.00    -0.050 C  
BRANCH   4   5
HETATM    5  C   UNL     1      -7.861   5.596  71.412  1.00  0.00    -0.111 C  
HETATM    6  O   UNL     1      -8.015   6.948  70.954  1.00  0.00    -0.097 OA 
HETATM    7  H   UNL     1      -8.215   7.538  71.671  1.00  0.00     0.000 HD 
BRANCH   5   8
HETATM    8  C   UNL     1      -6.817   5.619  72.535  1.00  0.00    -0.077 C  
HETATM    9  C   UNL     1      -7.448   5.322  73.878  1.00  0.00    -0.087 C  
HETATM   10  O   UNL     1      -6.250   6.938  72.579  1.00  0.00    -0.048 OA 
HETATM   11  O   UNL     1      -7.543   4.184  74.331  1.00  0.00    -0.074 OA 
HETATM   12  H   UNL     1      -5.603   6.952  73.274  1.00  0.00     0.000 HD 
ENDBRANCH   5   8
ENDBRANCH   4   5
BRANCH   4  13
HETATM   13  O   UNL     1      -7.498   5.374  68.993  1.00  0.00    -0.071 OA 
BRANCH  13  14
HETATM   14  C   UNL     1      -7.804   4.607  67.816  1.00  0.00    -0.086 C  
HETATM   15  H   UNL     1      -5.228   6.322  65.291  1.00  0.00     0.000 HD 
HETATM   16  O   UNL     1      -5.438   4.634  67.049  1.00  0.00    -0.012 OA 
HETATM   17  C   UNL     1      -6.799   4.925  66.696  1.00  0.00    -0.062 C  
HETATM   18  O   UNL     1      -9.110   4.838  67.308  1.00  0.00    -0.114 OA 
HETATM   19  O   UNL     1      -6.118   6.607  65.120  1.00  0.00    -0.036 OA 
HETATM   20  C   UNL     1      -9.372   6.203  66.970  1.00  0.00    -0.124 C  
HETATM   21  H   UNL     1      -4.817   4.831  66.357  1.00  0.00     0.000 HD 
HETATM   22  C   UNL     1      -6.897   6.396  66.316  1.00  0.00    -0.057 C  
HETATM   23  C   UNL     1      -8.336   6.858  66.039  1.00  0.00    -0.134 C  
BRANCH  20  24
HETATM   24  C   UNL     1     -10.803   6.265  66.387  1.00  0.00     0.109 C  
HETATM   25  O   UNL     1     -11.356   4.986  66.071  1.00  0.00    -0.679 OA 
HETATM   26  H   UNL     1     -12.235   5.024  65.712  1.00  0.00     0.000 HD 
ENDBRANCH  20  24
BRANCH  23  27
HETATM   27  O   UNL     1      -8.467   8.294  66.239  1.00  0.00    -0.116 OA 
BRANCH  27  28
HETATM   28  C   UNL     1      -7.760   9.071  65.264  1.00  0.00    -0.100 C  
HETATM   29  O   UNL     1      -8.669   9.718  64.386  1.00  0.00    -0.174 OA 
HETATM   30  C   UNL     1      -9.545  10.613  65.075  1.00  0.00    -0.265 C  
HETATM   31  C   UNL     1      -8.722  11.779  65.680  1.00  0.00     0.206 C  
HETATM   32  C   UNL     1     -10.600  11.029  64.052  1.00  0.00    -0.395 C  
HETATM   33  C   UNL     1      -7.647  11.195  66.637  1.00  0.00    -0.147 C  
HETATM   34  H   UNL     1      -6.057  11.858  67.620  1.00  0.00     0.000 HD 
HETATM   35  C   UNL     1      -6.839  10.091  65.952  1.00  0.00    -0.108 C  
HETATM   36  O   UNL     1      -6.714  12.215  67.035  1.00  0.00    -0.140 OA 
HETATM   37  O   UNL     1      -5.960   9.461  66.901  1.00  0.00    -0.057 OA 
HETATM   38  H   UNL     1      -5.390  10.091  67.325  1.00  0.00     0.000 HD 
BRANCH  31  39
HETATM   39  N   UNL     1      -9.633  12.760  66.317  1.00  0.00    -0.299 NA 
HETATM   40  H   UNL     1     -10.138  13.461  65.773  1.00  0.00     0.000 HD 
BRANCH  39  41
HETATM   41  C   UNL     1      -9.769  12.663  67.800  1.00  0.00    -0.206 C  
HETATM   42  C   UNL     1     -10.214  14.752  69.158  1.00  0.00    -0.224 C  
HETATM   43  C   UNL     1      -9.410  13.973  68.434  1.00  0.00    -0.210 C  
HETATM   44  C   UNL     1     -11.610  14.320  69.518  1.00  0.00    -0.301 C  
HETATM   45  H   UNL     1     -12.930  12.028  67.104  1.00  0.00     0.000 HD 
HETATM   46  O   UNL     1     -12.047  12.329  66.922  1.00  0.00    -0.583 OA 
HETATM   47  C   UNL     1     -11.929  12.819  69.298  1.00  0.00    -0.246 C  
HETATM   48  O   UNL     1     -12.520  15.141  68.791  1.00  0.00    -0.583 OA 
HETATM   49  H   UNL     1     -11.812  11.151  70.347  1.00  0.00     0.000 HD 
HETATM   50  O   UNL     1     -11.616  12.070  70.483  1.00  0.00    -0.116 OA 
HETATM   51  C   UNL     1     -11.223  12.169  68.099  1.00  0.00    -0.267 C  
HETATM   52  H   UNL     1     -13.401  14.868  69.019  1.00  0.00     0.000 HD 
BRANCH  42  53
HETATM   53  C   UNL     1      -9.810  16.122  69.658  1.00  0.00    -0.150 C  
HETATM   54  O   UNL     1     -10.932  16.975  69.861  1.00  0.00    -0.382 OA 
HETATM   55  H   UNL     1     -10.678  17.835  70.175  1.00  0.00     0.000 HD 
ENDBRANCH  42  53
ENDBRANCH  39  41
ENDBRANCH  31  39
ENDBRANCH  27  28
ENDBRANCH  23  27
ENDBRANCH  13  14
ENDBRANCH   4  13
ENDBRANCH   1   4
BRANCH   1  56
HETATM   56  C   UNL     1      -8.139   2.294  71.160  1.00  0.00    -0.049 C  
HETATM   57  O   UNL     1      -8.869   2.494  72.372  1.00  0.00    -0.069 OA 
HETATM   58  H   UNL     1      -8.645   1.803  72.985  1.00  0.00     0.000 HD 
ENDBRANCH   1  56
TORSDOF 12
ENDMDL
MODEL      197
REMARK 921   NORMALIZED FREE ENERGY PREDICTED BY IDOCK:   -3.47 KCAL/MOL
REMARK 922        TOTAL FREE ENERGY PREDICTED BY IDOCK:   -9.09 KCAL/MOL
REMARK 923 INTER-LIGAND FREE ENERGY PREDICTED BY IDOCK:  -10.70 KCAL/MOL
REMARK 924 INTRA-LIGAND FREE ENERGY PREDICTED BY IDOCK:    1.61 KCAL/MOL
REMARK 927      BINDING AFFINITY PREDICTED BY RF-SCORE:    0.00 PKD
ROOT
HETATM    1  C   UNL     1     -11.202  14.936  69.390  1.00  0.00    -0.283 C  
HETATM    2  H   UNL     1     -11.696  13.449  68.248  1.00  0.00     0.000 HD 
HETATM    3  O   UNL     1     -12.160  14.011  68.858  1.00  0.00    -0.351 OA 
ENDROOT
BRANCH   1   4
HETATM    4  C   UNL     1     -10.442  15.721  68.279  1.00  0.00    -0.259 C  
BRANCH   4   5
HETATM    5  C   UNL     1     -10.428  17.261  68.535  1.00  0.00    -0.375 C  
HETATM    6  O   UNL     1     -11.240  17.961  67.580  1.00  0.00    -0.074 OA 
HETATM    7  H   UNL     1     -11.232  18.898  67.736  1.00  0.00     0.000 HD 
BRANCH   5   8
HETATM    8  C   UNL     1      -9.036  17.907  68.500  1.00  0.00    -0.285 C  
HETATM    9  C   UNL     1      -8.819  18.672  67.213  1.00  0.00    -0.274 C  
HETATM   10  O   UNL     1      -8.063  16.853  68.575  1.00  0.00    -0.223 OA 
HETATM   11  O   UNL     1      -9.098  19.863  67.093  1.00  0.00    -0.316 OA 
HETATM   12  H   UNL     1      -7.202  17.252  68.553  1.00  0.00     0.000 HD 
ENDBRANCH   5   8
ENDBRANCH   4   5
BRANCH   4  13
HETATM   13  O   UNL     1     -10.963  15.460  66.953  1.00  0.00    -0.318 OA 
BRANCH  13  14
HETATM   14  C   UNL     1      -9.965  15.328  65.927  1.00  0.00    -0.340 C  
HETATM   15  H   UNL     1     -11.587  12.295  63.897  1.00  0.00     0.000 HD 
HETATM   16  O   UNL     1     -11.657  14.720  64.207  1.00  0.00    -0.617 OA 
HETATM   17  C   UNL     1     -10.434  14.332  64.853  1.00  0.00    -0.430 C  
HETATM   18  O   UNL     1      -8.705  14.886  66.410  1.00  0.00    -0.230 OA 
HETATM   19  O   UNL     1     -10.842  12.005  64.410  1.00  0.00    -0.292 OA 
HETATM   20  C   UNL     1      -8.747  13.626  67.086  1.00  0.00    -0.216 C  
HETATM   21  H   UNL     1     -11.947  14.104  63.544  1.00  0.00     0.000 HD 
HETATM   22  C   UNL     1     -10.630  12.955  65.474  1.00  0.00    -0.279 C  
HETATM   23  C   UNL     1      -9.425  12.486  66.305  1.00  0.00    -0.210 C  
BRANCH  20  24
HETATM   24  C   UNL     1      -7.297  13.273  67.491  1.00  0.00    -0.152 C  
HETATM   25  O   UNL     1      -6.607  12.467  66.535  1.00  0.00    -0.401 OA 
HETATM   26  H   UNL     1      -5.716  12.251  66.784  1.00  0.00     0.000 HD 
ENDBRANCH  20  24
BRANCH  23  27
HETATM   27  O   UNL     1      -9.833  11.504  67.298  1.00  0.00    -0.188 OA 
BRANCH  27  28
HETATM   28  C   UNL     1      -8.740  10.748  67.833  1.00  0.00    -0.129 C  
HETATM   29  O   UNL     1      -8.993  10.390  69.183  1.00  0.00    -0.169 OA 
HETATM   30  C   UNL     1     -10.163   9.580  69.321  1.00  0.00    -0.203 C  
HETATM   31  C   UNL     1      -9.937   8.220  68.613  1.00  0.00    -0.190 C  
HETATM   32  C   UNL     1     -10.432   9.492  70.821  1.00  0.00    -0.384 C  
HETATM   33  C   UNL     1      -9.602   8.477  67.119  1.00  0.00    -0.178 C  
HETATM   34  H   UNL     1      -8.950   7.424  65.569  1.00  0.00     0.000 HD 
HETATM   35  C   UNL     1      -8.474   9.501  66.974  1.00  0.00    -0.128 C  
HETATM   36  O   UNL     1      -9.155   7.266  66.483  1.00  0.00    -0.144 OA 
HETATM   37  O   UNL     1      -8.288   9.839  65.588  1.00  0.00    -0.127 OA 
HETATM   38  H   UNL     1      -8.124   9.069  65.057  1.00  0.00     0.000 HD 
BRANCH  31  39
HETATM   39  N   UNL     1     -11.111   7.340  68.830  1.00  0.00    -0.447 NA 
HETATM   40  H   UNL     1     -12.067   7.694  68.790  1.00  0.00     0.000 HD 
BRANCH  39  41
HETATM   41  C   UNL     1     -10.812   5.905  69.108  1.00  0.00    -0.336 C  
HETATM   42  C   UNL     1      -9.688   4.491  67.334  1.00  0.00    -0.218 C  
HETATM   43  C   UNL     1     -10.748   5.136  67.823  1.00  0.00     0.074 C  
HETATM   44  C   UNL     1      -8.408   4.377  68.118  1.00  0.00    -0.093 C  
HETATM   45  H   UNL     1      -8.026   7.114  70.395  1.00  0.00     0.000 HD 
HETATM   46  O   UNL     1      -8.823   7.139  69.878  1.00  0.00    -0.141 OA 
HETATM   47  C   UNL     1      -8.503   4.745  69.621  1.00  0.00    -0.082 C  
HETATM   48  O   UNL     1      -7.427   5.177  67.464  1.00  0.00    -0.081 OA 
HETATM   49  H   UNL     1      -8.892   3.806  71.314  1.00  0.00     0.000 HD 
HETATM   50  O   UNL     1      -8.834   3.580  70.393  1.00  0.00    -0.070 OA 
HETATM   51  C   UNL     1      -9.499   5.864  69.960  1.00  0.00    -0.159 C  
HETATM   52  H   UNL     1      -6.619   5.105  67.959  1.00  0.00     0.000 HD 
BRANCH  42  53
HETATM   53  C   UNL     1      -9.670   3.843  65.967  1.00  0.00    -0.162 C  
HETATM   54  O   UNL     1      -8.619   2.893  65.833  1.00  0.00    -0.107 OA 
HETATM   55  H   UNL     1      -8.607   2.487  64.974  1.00  0.00     0.000 HD 
ENDBRANCH  42  53
ENDBRANCH  39  41
ENDBRANCH  31  39
ENDBRANCH  27  28
ENDBRANCH  23  27
ENDBRANCH  13  14
ENDBRANCH   4  13
ENDBRANCH   1   4
BRANCH   1  56
HETATM   56  C   UNL     1     -11.949  15.840  70.373  1.00  0.00    -0.359 C  
HETATM   57  O   UNL     1     -13.352  15.593  70.256  1.00  0.00    -0.761 OA 
HETATM   58  H   UNL     1     -13.816  16.154  70.867  1.00  0.00     0.000 HD 
ENDBRANCH   1  56
TORSDOF 12
ENDMDL
MODEL      198
REMARK 921   NORMALIZED FREE ENERGY PREDICTED BY IDOCK:   -3.43 KCAL/MOL
REMARK 922        TOTAL FREE ENERGY PREDICTED BY IDOCK:   -9.02 KCAL/MOL
REMARK 923 INTER-LIGAND FREE ENERGY PREDICTED BY IDOCK:   -9.50 KCAL/MOL
REMARK 924 INTRA-LIGAND FREE ENERGY PREDICTED BY IDOCK:    0.47 KCAL/MOL
REMARK 927      BINDING AFFINITY PREDICTED BY RF-SCORE:    0.00 PKD
ROOT
HETATM    1  C   UNL     1      -9.389  18.202  66.297  1.00  0.00    -0.208 C  
HETATM    2  H   UNL     1      -7.900  18.141  65.058  1.00  0.00     0.000 HD 
HETATM    3  O   UNL     1      -8.314  18.820  65.578  1.00  0.00    -0.198 OA 
ENDROOT
BRANCH   1   4
HETATM    4  C   UNL     1      -8.926  16.973  67.136  1.00  0.00    -0.222 C  
BRANCH   4   5
HETATM    5  C   UNL     1      -7.415  16.640  66.929  1.00  0.00    -0.228 C  
HETATM    6  O   UNL     1      -7.187  15.222  66.905  1.00  0.00    -0.251 OA 
HETATM    7  H   UNL     1      -6.268  15.019  66.779  1.00  0.00     0.000 HD 
BRANCH   5   8
HETATM    8  C   UNL     1      -6.476  17.227  67.991  1.00  0.00    -0.154 C  
HETATM    9  C   UNL     1      -6.855  18.651  68.331  1.00  0.00    -0.249 C  
HETATM   10  O   UNL     1      -5.147  17.226  67.446  1.00  0.00    -0.108 OA 
HETATM   11  O   UNL     1      -7.642  18.932  69.234  1.00  0.00    -0.218 OA 
HETATM   12  H   UNL     1      -4.565  17.590  68.104  1.00  0.00     0.000 HD 
ENDBRANCH   5   8
ENDBRANCH   4   5
BRANCH   4  13
HETATM   13  O   UNL     1      -9.719  15.788  66.876  1.00  0.00    -0.222 OA 
BRANCH  13  14
HETATM   14  C   UNL     1     -11.140  15.999  66.880  1.00  0.00    -0.039 C  
HETATM   15  H   UNL     1     -12.024  14.090  70.274  1.00  0.00     0.000 HD 
HETATM   16  O   UNL     1     -11.214  16.208  69.358  1.00  0.00    -0.313 OA 
HETATM   17  C   UNL     1     -11.746  15.525  68.211  1.00  0.00    -0.274 C  
HETATM   18  O   UNL     1     -11.820  15.328  65.828  1.00  0.00    -0.038 OA 
HETATM   19  O   UNL     1     -12.281  13.579  69.516  1.00  0.00    -0.304 OA 
HETATM   20  C   UNL     1     -11.630  13.910  65.823  1.00  0.00    -0.338 C  
HETATM   21  H   UNL     1     -11.588  15.914  70.181  1.00  0.00     0.000 HD 
HETATM   22  C   UNL     1     -11.509  14.031  68.385  1.00  0.00    -0.306 C  
HETATM   23  C   UNL     1     -11.925  13.204  67.158  1.00  0.00    -0.341 C  
BRANCH  20  24
HETATM   24  C   UNL     1     -12.475  13.338  64.661  1.00  0.00    -0.349 C  
HETATM   25  O   UNL     1     -11.831  13.406  63.387  1.00  0.00    -0.732 OA 
HETATM   26  H   UNL     1     -12.351  13.055  62.674  1.00  0.00     0.000 HD 
ENDBRANCH  20  24
BRANCH  23  27
HETATM   27  O   UNL     1     -11.201  11.942  67.115  1.00  0.00    -0.280 OA 
BRANCH  27  28
HETATM   28  C   UNL     1      -9.969  11.968  67.846  1.00  0.00    -0.197 C  
HETATM   29  O   UNL     1     -10.168  11.518  69.178  1.00  0.00    -0.141 OA 
HETATM   30  C   UNL     1     -10.654  10.175  69.231  1.00  0.00    -0.230 C  
HETATM   31  C   UNL     1      -9.575   9.212  68.674  1.00  0.00    -0.152 C  
HETATM   32  C   UNL     1     -11.046   9.933  70.687  1.00  0.00    -0.409 C  
HETATM   33  C   UNL     1      -9.229   9.629  67.218  1.00  0.00    -0.134 C  
HETATM   34  H   UNL     1      -7.860   9.172  65.857  1.00  0.00     0.000 HD 
HETATM   35  C   UNL     1      -8.901  11.122  67.135  1.00  0.00    -0.143 C  
HETATM   36  O   UNL     1      -8.072   8.916  66.747  1.00  0.00    -0.109 OA 
HETATM   37  O   UNL     1      -8.738  11.515  65.760  1.00  0.00    -0.358 OA 
HETATM   38  H   UNL     1      -8.078  10.993  65.320  1.00  0.00     0.000 HD 
BRANCH  31  39
HETATM   39  N   UNL     1     -10.035   7.808  68.810  1.00  0.00    -0.171 NA 
HETATM   40  H   UNL     1     -10.787   7.546  69.447  1.00  0.00     0.000 HD 
BRANCH  39  41
HETATM   41  C   UNL     1      -9.331   6.803  67.961  1.00  0.00    -0.118 C  
HETATM   42  C   UNL     1      -7.227   5.688  68.822  1.00  0.00    -0.081 C  
HETATM   43  C   UNL     1      -7.881   6.744  68.335  1.00  0.00    -0.114 C  
HETATM   44  C   UNL     1      -7.895   4.346  68.957  1.00  0.00    -0.069 C  
HETATM   45  H   UNL     1     -11.437   4.686  69.362  1.00  0.00     0.000 HD 
HETATM   46  O   UNL     1     -10.969   5.508  69.269  1.00  0.00    -0.255 OA 
HETATM   47  C   UNL     1      -9.238   4.182  68.200  1.00  0.00    -0.147 C  
HETATM   48  O   UNL     1      -8.064   4.083  70.347  1.00  0.00    -0.054 OA 
HETATM   49  H   UNL     1      -9.820   3.594  66.407  1.00  0.00     0.000 HD 
HETATM   50  O   UNL     1      -8.996   3.695  66.870  1.00  0.00    -0.122 OA 
HETATM   51  C   UNL     1     -10.101   5.449  68.115  1.00  0.00    -0.166 C  
HETATM   52  H   UNL     1      -8.486   3.236  70.432  1.00  0.00     0.000 HD 
BRANCH  42  53
HETATM   53  C   UNL     1      -5.790   5.747  69.292  1.00  0.00    -0.016 C  
HETATM   54  O   UNL     1      -5.679   5.614  70.705  1.00  0.00    -0.015 OA 
HETATM   55  H   UNL     1      -4.776   5.652  71.000  1.00  0.00     0.000 HD 
ENDBRANCH  42  53
ENDBRANCH  39  41
ENDBRANCH  31  39
ENDBRANCH  27  28
ENDBRANCH  23  27
ENDBRANCH  13  14
ENDBRANCH   4  13
ENDBRANCH   1   4
BRANCH   1  56
HETATM   56  C   UNL     1     -10.056  19.295  67.136  1.00  0.00    -0.377 C  
HETATM   57  O   UNL     1      -9.437  20.549  66.839  1.00  0.00    -0.547 OA 
HETATM   58  H   UNL     1      -9.850  21.228  67.360  1.00  0.00     0.000 HD 
ENDBRANCH   1  56
TORSDOF 12
ENDMDL
MODEL      199
REMARK 921   NORMALIZED FREE ENERGY PREDICTED BY IDOCK:   -3.41 KCAL/MOL
REMARK 922        TOTAL FREE ENERGY PREDICTED BY IDOCK:   -9.00 KCAL/MOL
REMARK 923 INTER-LIGAND FREE ENERGY PREDICTED BY IDOCK:   -7.94 KCAL/MOL
REMARK 924 INTRA-LIGAND FREE ENERGY PREDICTED BY IDOCK:   -1.06 KCAL/MOL
REMARK 927      BINDING AFFINITY PREDICTED BY RF-SCORE:    0.00 PKD
ROOT
HETATM    1  C   UNL     1      -8.115   5.638  66.662  1.00  0.00    -0.105 C  
HETATM    2  H   UNL     1      -6.384   6.425  66.286  1.00  0.00     0.000 HD 
HETATM    3  O   UNL     1      -7.256   6.516  65.922  1.00  0.00    -0.071 OA 
ENDROOT
BRANCH   1   4
HETATM    4  C   UNL     1      -8.056   5.890  68.198  1.00  0.00    -0.109 C  
BRANCH   4   5
HETATM    5  C   UNL     1      -7.701   4.602  69.005  1.00  0.00    -0.071 C  
HETATM    6  O   UNL     1      -6.834   3.735  68.258  1.00  0.00    -0.045 OA 
HETATM    7  H   UNL     1      -6.618   2.951  68.749  1.00  0.00     0.000 HD 
BRANCH   5   8
HETATM    8  C   UNL     1      -8.910   3.762  69.439  1.00  0.00    -0.090 C  
HETATM    9  C   UNL     1      -8.492   2.628  70.348  1.00  0.00    -0.050 C  
HETATM   10  O   UNL     1      -9.502   3.204  68.256  1.00  0.00    -0.193 OA 
HETATM   11  O   UNL     1      -8.447   2.738  71.572  1.00  0.00    -0.062 OA 
HETATM   12  H   UNL     1     -10.251   2.684  68.525  1.00  0.00     0.000 HD 
ENDBRANCH   5   8
ENDBRANCH   4   5
BRANCH   4  13
HETATM   13  O   UNL     1      -9.281   6.461  68.718  1.00  0.00    -0.128 OA 
BRANCH  13  14
HETATM   14  C   UNL     1      -9.331   6.583  70.150  1.00  0.00    -0.158 C  
HETATM   15  H   UNL     1     -12.917   8.308  70.484  1.00  0.00     0.000 HD 
HETATM   16  O   UNL     1     -11.782   6.159  70.211  1.00  0.00    -0.319 OA 
HETATM   17  C   UNL     1     -10.725   7.053  70.597  1.00  0.00    -0.231 C  
HETATM   18  O   UNL     1      -8.375   7.491  70.678  1.00  0.00    -0.122 OA 
HETATM   19  O   UNL     1     -12.219   8.936  70.632  1.00  0.00    -0.130 OA 
HETATM   20  C   UNL     1      -8.485   8.821  70.163  1.00  0.00    -0.137 C  
HETATM   21  H   UNL     1     -12.643   6.450  70.487  1.00  0.00     0.000 HD 
HETATM   22  C   UNL     1     -11.019   8.429  70.014  1.00  0.00    -0.194 C  
HETATM   23  C   UNL     1      -9.890   9.444  70.254  1.00  0.00    -0.243 C  
BRANCH  20  24
HETATM   24  C   UNL     1      -7.418   9.681  70.879  1.00  0.00     0.074 C  
HETATM   25  O   UNL     1      -7.147  10.926  70.233  1.00  0.00    -0.460 OA 
HETATM   26  H   UNL     1      -6.492  11.454  70.673  1.00  0.00     0.000 HD 
ENDBRANCH  20  24
BRANCH  23  27
HETATM   27  O   UNL     1      -9.926  10.503  69.256  1.00  0.00    -0.212 OA 
BRANCH  27  28
HETATM   28  C   UNL     1     -11.253  10.864  68.856  1.00  0.00    -0.267 C  
HETATM   29  O   UNL     1     -11.634  12.099  69.442  1.00  0.00    -0.282 OA 
HETATM   30  C   UNL     1     -10.776  13.174  69.050  1.00  0.00    -0.107 C  
HETATM   31  C   UNL     1     -10.925  13.425  67.527  1.00  0.00    -0.267 C  
HETATM   32  C   UNL     1     -11.158  14.354  69.940  1.00  0.00    -0.166 C  
HETATM   33  C   UNL     1     -10.577  12.118  66.763  1.00  0.00    -0.226 C  
HETATM   34  H   UNL     1     -10.714  11.435  64.906  1.00  0.00     0.000 HD 
HETATM   35  C   UNL     1     -11.357  10.926  67.324  1.00  0.00    -0.151 C  
HETATM   36  O   UNL     1     -10.927  12.234  65.373  1.00  0.00    -0.283 OA 
HETATM   37  O   UNL     1     -10.904   9.707  66.709  1.00  0.00    -0.123 OA 
HETATM   38  H   UNL     1     -10.968   9.745  65.762  1.00  0.00     0.000 HD 
BRANCH  31  39
HETATM   39  N   UNL     1     -10.108  14.597  67.129  1.00  0.00    -0.243 NA 
HETATM   40  H   UNL     1      -9.095  14.540  67.026  1.00  0.00     0.000 HD 
BRANCH  39  41
HETATM   41  C   UNL     1     -10.856  15.865  66.887  1.00  0.00    -0.240 C  
HETATM   42  C   UNL     1     -10.308  17.924  68.254  1.00  0.00    -0.389 C  
HETATM   43  C   UNL     1     -10.844  16.710  68.125  1.00  0.00    -0.348 C  
HETATM   44  C   UNL     1      -9.718  18.651  67.076  1.00  0.00    -0.308 C  
HETATM   45  H   UNL     1      -8.547  16.360  64.584  1.00  0.00     0.000 HD 
HETATM   46  O   UNL     1      -8.932  15.949  65.349  1.00  0.00    -0.099 OA 
HETATM   47  C   UNL     1     -10.068  18.070  65.682  1.00  0.00     0.146 C  
HETATM   48  O   UNL     1      -8.306  18.703  67.261  1.00  0.00    -0.256 OA 
HETATM   49  H   UNL     1     -11.487  18.319  64.331  1.00  0.00     0.000 HD 
HETATM   50  O   UNL     1     -11.273  18.675  65.185  1.00  0.00    -0.259 OA 
HETATM   51  C   UNL     1     -10.221  16.543  65.627  1.00  0.00    -0.292 C  
HETATM   52  H   UNL     1      -7.934  19.161  66.516  1.00  0.00     0.000 HD 
BRANCH  42  53
HETATM   53  C   UNL     1     -10.229  18.659  69.575  1.00  0.00     0.404 C  
HETATM   54  O   UNL     1     -10.385  20.066  69.419  1.00  0.00    -0.612 OA 
HETATM   55  H   UNL     1     -10.335  20.527  70.249  1.00  0.00     0.000 HD 
ENDBRANCH  42  53
ENDBRANCH  39  41
ENDBRANCH  31  39
ENDBRANCH  27  28
ENDBRANCH  23  27
ENDBRANCH  13  14
ENDBRANCH   4  13
ENDBRANCH   1   4
BRANCH   1  56
HETATM   56  C   UNL     1      -9.521   5.785  66.074  1.00  0.00    -0.086 C  
HETATM   57  O   UNL     1      -9.892   7.165  66.101  1.00  0.00    -0.425 OA 
HETATM   58  H   UNL     1     -10.765   7.257  65.736  1.00  0.00     0.000 HD 
ENDBRANCH   1  56
TORSDOF 12
ENDMDL
MODEL      200
REMARK 921   NORMALIZED FREE ENERGY PREDICTED BY IDOCK:   -3.30 KCAL/MOL
REMARK 922        TOTAL FREE ENERGY PREDICTED BY IDOCK:   -8.81 KCAL/MOL
REMARK 923 INTER-LIGAND FREE ENERGY PREDICTED BY IDOCK:   -6.52 KCAL/MOL
REMARK 924 INTRA-LIGAND FREE ENERGY PREDICTED BY IDOCK:   -2.29 KCAL/MOL
REMARK 927      BINDING AFFINITY PREDICTED BY RF-SCORE:    0.00 PKD
ROOT
HETATM    1  C   UNL     1      -8.821   2.768  68.827  1.00  0.00    -0.105 C  
HETATM    2  H   UNL     1      -7.182   3.730  69.206  1.00  0.00     0.000 HD 
HETATM    3  O   UNL     1      -7.399   2.925  68.749  1.00  0.00    -0.048 OA 
ENDROOT
BRANCH   1   4
HETATM    4  C   UNL     1      -9.596   4.011  68.297  1.00  0.00    -0.125 C  
BRANCH   4   5
HETATM    5  C   UNL     1      -8.925   4.646  67.039  1.00  0.00    -0.113 C  
HETATM    6  O   UNL     1      -8.012   5.693  67.401  1.00  0.00    -0.101 OA 
HETATM    7  H   UNL     1      -7.603   6.079  66.636  1.00  0.00     0.000 HD 
BRANCH   5   8
HETATM    8  C   UNL     1      -9.904   5.238  66.016  1.00  0.00    -0.132 C  
HETATM    9  C   UNL     1     -10.079   4.319  64.828  1.00  0.00    -0.144 C  
HETATM   10  O   UNL     1      -9.354   6.482  65.554  1.00  0.00    -0.369 OA 
HETATM   11  O   UNL     1     -10.948   3.450  64.781  1.00  0.00     0.225 OA 
HETATM   12  H   UNL     1      -9.960   6.848  64.922  1.00  0.00     0.000 HD 
ENDBRANCH   5   8
ENDBRANCH   4   5
BRANCH   4  13
HETATM   13  O   UNL     1      -9.778   5.030  69.309  1.00  0.00    -0.147 OA 
BRANCH  13  14
HETATM   14  C   UNL     1      -9.088   4.784  70.546  1.00  0.00    -0.120 C  
HETATM   15  H   UNL     1     -11.562   6.718  73.013  1.00  0.00     0.000 HD 
HETATM   16  O   UNL     1     -11.214   4.609  71.826  1.00  0.00     0.292 OA 
HETATM   17  C   UNL     1      -9.938   5.261  71.735  1.00  0.00    -0.190 C  
HETATM   18  O   UNL     1      -7.822   5.423  70.630  1.00  0.00    -0.086 OA 
HETATM   19  O   UNL     1     -10.762   7.212  72.872  1.00  0.00    -0.249 OA 
HETATM   20  C   UNL     1      -7.875   6.845  70.483  1.00  0.00    -0.105 C  
HETATM   21  H   UNL     1     -11.739   4.905  72.560  1.00  0.00     0.000 HD 
HETATM   22  C   UNL     1     -10.168   6.763  71.637  1.00  0.00    -0.191 C  
HETATM   23  C   UNL     1      -8.875   7.563  71.407  1.00  0.00    -0.132 C  
BRANCH  20  24
HETATM   24  C   UNL     1      -6.435   7.379  70.656  1.00  0.00    -0.039 C  
HETATM   25  O   UNL     1      -6.285   8.762  70.331  1.00  0.00    -0.036 OA 
HETATM   26  H   UNL     1      -5.399   9.089  70.438  1.00  0.00     0.000 HD 
ENDBRANCH  20  24
BRANCH  23  27
HETATM   27  O   UNL     1      -9.163   8.841  70.774  1.00  0.00    -0.164 OA 
BRANCH  27  28
HETATM   28  C   UNL     1     -10.211   8.771  69.800  1.00  0.00    -0.202 C  
HETATM   29  O   UNL     1     -11.268   9.656  70.138  1.00  0.00    -0.245 OA 
HETATM   30  C   UNL     1     -10.840  11.019  70.191  1.00  0.00     0.118 C  
HETATM   31  C   UNL     1     -10.411  11.481  68.775  1.00  0.00    -0.196 C  
HETATM   32  C   UNL     1     -12.006  11.796  70.798  1.00  0.00    -0.228 C  
HETATM   33  C   UNL     1      -9.275  10.553  68.263  1.00  0.00    -0.152 C  
HETATM   34  H   UNL     1      -8.316  10.227  66.558  1.00  0.00     0.000 HD 
HETATM   35  C   UNL     1      -9.664   9.079  68.397  1.00  0.00    -0.156 C  
HETATM   36  O   UNL     1      -9.010  10.795  66.871  1.00  0.00    -0.138 OA 
HETATM   37  O   UNL     1      -8.543   8.240  68.066  1.00  0.00    -0.130 OA 
HETATM   38  H   UNL     1      -8.206   8.430  67.199  1.00  0.00     0.000 HD 
BRANCH  31  39
HETATM   39  N   UNL     1     -10.053  12.920  68.802  1.00  0.00    -0.421 NA 
HETATM   40  H   UNL     1      -9.472  13.318  69.540  1.00  0.00     0.000 HD 
BRANCH  39  41
HETATM   41  C   UNL     1     -10.593  13.751  67.687  1.00  0.00    -0.242 C  
HETATM   42  C   UNL     1     -10.661  16.271  67.920  1.00  0.00    -0.329 C  
HETATM   43  C   UNL     1     -11.110  15.052  68.222  1.00  0.00    -0.292 C  
HETATM   44  C   UNL     1      -9.599  16.480  66.875  1.00  0.00    -0.243 C  
HETATM   45  H   UNL     1      -7.497  13.597  66.559  1.00  0.00     0.000 HD 
HETATM   46  O   UNL     1      -8.187  13.514  67.207  1.00  0.00    -0.177 OA 
HETATM   47  C   UNL     1      -9.311  15.266  65.955  1.00  0.00    -0.311 C  
HETATM   48  O   UNL     1      -8.411  16.900  67.541  1.00  0.00    -0.191 OA 
HETATM   49  H   UNL     1      -9.986  14.568  64.235  1.00  0.00     0.000 HD 
HETATM   50  O   UNL     1     -10.163  15.313  64.799  1.00  0.00    -0.272 OA 
HETATM   51  C   UNL     1      -9.455  13.890  66.621  1.00  0.00    -0.285 C  
HETATM   52  H   UNL     1      -7.741  17.031  66.881  1.00  0.00     0.000 HD 
BRANCH  42  53
HETATM   53  C   UNL     1     -11.157  17.529  68.601  1.00  0.00     0.255 C  
HETATM   54  O   UNL     1     -10.801  18.706  67.884  1.00  0.00    -0.348 OA 
HETATM   55  H   UNL     1     -11.112  19.496  68.312  1.00  0.00     0.000 HD 
ENDBRANCH  42  53
ENDBRANCH  39  41
ENDBRANCH  31  39
ENDBRANCH  27  28
ENDBRANCH  23  27
ENDBRANCH  13  14
ENDBRANCH   4  13
ENDBRANCH   1   4
BRANCH   1  56
HETATM   56  C   UNL     1      -9.171   1.472  68.091  1.00  0.00    -0.170 C  
HETATM   57  O   UNL     1      -8.640   1.536  66.765  1.00  0.00    -0.090 OA 
HETATM   58  H   UNL     1      -8.857   0.731  66.307  1.00  0.00     0.000 HD 
ENDBRANCH   1  56
TORSDOF 12
ENDMDL
MODEL      201
REMARK 921   NORMALIZED FREE ENERGY PREDICTED BY IDOCK:   -3.24 KCAL/MOL
REMARK 922        TOTAL FREE ENERGY PREDICTED BY IDOCK:   -8.71 KCAL/MOL
REMARK 923 INTER-LIGAND FREE ENERGY PREDICTED BY IDOCK:   -7.20 KCAL/MOL
REMARK 924 INTRA-LIGAND FREE ENERGY PREDICTED BY IDOCK:   -1.51 KCAL/MOL
REMARK 927      BINDING AFFINITY PREDICTED BY RF-SCORE:    0.00 PKD
ROOT
HETATM    1  C   UNL     1      -6.213  15.896  69.679  1.00  0.00    -0.177 C  
HETATM    2  H   UNL     1      -4.778  15.591  68.412  1.00  0.00     0.000 HD 
HETATM    3  O   UNL     1      -5.626  15.195  68.574  1.00  0.00    -0.088 OA 
ENDROOT
BRANCH   1   4
HETATM    4  C   UNL     1      -6.280  17.435  69.450  1.00  0.00    -0.250 C  
BRANCH   4   5
HETATM    5  C   UNL     1      -5.160  18.206  70.216  1.00  0.00    -0.233 C  
HETATM    6  O   UNL     1      -5.271  18.023  71.636  1.00  0.00    -0.489 OA 
HETATM    7  H   UNL     1      -4.589  18.492  72.102  1.00  0.00     0.000 HD 
BRANCH   5   8
HETATM    8  C   UNL     1      -5.129  19.719  69.960  1.00  0.00    -0.192 C  
HETATM    9  C   UNL     1      -5.994  20.462  70.953  1.00  0.00    -0.220 C  
HETATM   10  O   UNL     1      -5.648  19.949  68.640  1.00  0.00    -0.205 OA 
HETATM   11  O   UNL     1      -5.562  20.888  72.022  1.00  0.00    -0.540 OA 
HETATM   12  H   UNL     1      -5.628  20.885  68.482  1.00  0.00     0.000 HD 
ENDBRANCH   5   8
ENDBRANCH   4   5
BRANCH   4  13
HETATM   13  O   UNL     1      -7.570  17.996  69.795  1.00  0.00     0.424 OA 
BRANCH  13  14
HETATM   14  C   UNL     1      -8.186  18.779  68.759  1.00  0.00    -0.294 C  
HETATM   15  H   UNL     1     -11.999  17.827  69.468  1.00  0.00     0.000 HD 
HETATM   16  O   UNL     1     -10.170  19.289  70.172  1.00  0.00    -0.094 OA 
HETATM   17  C   UNL     1      -9.716  18.762  68.915  1.00  0.00    -0.344 C  
HETATM   18  O   UNL     1      -7.877  18.334  67.447  1.00  0.00    -0.223 OA 
HETATM   19  O   UNL     1     -11.673  17.384  68.693  1.00  0.00     0.738 OA 
HETATM   20  C   UNL     1      -8.246  16.976  67.188  1.00  0.00    -0.191 C  
HETATM   21  H   UNL     1     -11.115  19.278  70.268  1.00  0.00     0.000 HD 
HETATM   22  C   UNL     1     -10.234  17.337  68.773  1.00  0.00    -0.353 C  
HETATM   23  C   UNL     1      -9.706  16.620  67.520  1.00  0.00    -0.247 C  
BRANCH  20  24
HETATM   24  C   UNL     1      -7.893  16.677  65.713  1.00  0.00     0.650 C  
HETATM   25  O   UNL     1      -7.058  17.665  65.105  1.00  0.00     0.106 OA 
HETATM   26  H   UNL     1      -6.842  17.481  64.198  1.00  0.00     0.000 HD 
ENDBRANCH  20  24
BRANCH  23  27
HETATM   27  O   UNL     1      -9.738  15.176  67.698  1.00  0.00    -0.211 OA 
BRANCH  27  28
HETATM   28  C   UNL     1     -10.731  14.525  66.895  1.00  0.00    -0.288 C  
HETATM   29  O   UNL     1     -10.138  13.528  66.077  1.00  0.00    -0.297 OA 
HETATM   30  C   UNL     1      -9.492  12.509  66.845  1.00  0.00    -0.219 C  
HETATM   31  C   UNL     1     -10.551  11.732  67.667  1.00  0.00    -0.205 C  
HETATM   32  C   UNL     1      -8.708  11.668  65.840  1.00  0.00     0.002 C  
HETATM   33  C   UNL     1     -11.312  12.729  68.582  1.00  0.00    -0.294 C  
HETATM   34  H   UNL     1     -12.920  12.705  69.744  1.00  0.00     0.000 HD 
HETATM   35  C   UNL     1     -11.833  13.925  67.782  1.00  0.00    -0.380 C  
HETATM   36  O   UNL     1     -12.455  12.095  69.184  1.00  0.00     0.033 OA 
HETATM   37  O   UNL     1     -12.396  14.907  68.671  1.00  0.00    -0.585 OA 
HETATM   38  H   UNL     1     -13.077  14.536  69.219  1.00  0.00     0.000 HD 
BRANCH  31  39
HETATM   39  N   UNL     1      -9.901  10.615  68.395  1.00  0.00    -0.156 NA 
HETATM   40  H   UNL     1      -9.086  10.760  68.992  1.00  0.00     0.000 HD 
BRANCH  39  41
HETATM   41  C   UNL     1     -10.509   9.265  68.203  1.00  0.00    -0.215 C  
HETATM   42  C   UNL     1      -9.168   7.434  67.082  1.00  0.00    -0.159 C  
HETATM   43  C   UNL     1      -9.861   8.573  67.043  1.00  0.00    -0.289 C  
HETATM   44  C   UNL     1      -9.049   6.632  68.350  1.00  0.00    -0.124 C  
HETATM   45  H   UNL     1      -9.360   8.716  71.246  1.00  0.00     0.000 HD 
HETATM   46  O   UNL     1      -9.432   9.177  70.418  1.00  0.00    -0.190 OA 
HETATM   47  C   UNL     1     -10.032   7.016  69.486  1.00  0.00    -0.162 C  
HETATM   48  O   UNL     1      -7.699   6.727  68.797  1.00  0.00    -0.105 OA 
HETATM   49  H   UNL     1     -11.845   6.489  70.062  1.00  0.00     0.000 HD 
HETATM   50  O   UNL     1     -11.243   6.253  69.365  1.00  0.00    -0.382 OA 
HETATM   51  C   UNL     1     -10.390   8.507  69.566  1.00  0.00    -0.218 C  
HETATM   52  H   UNL     1      -7.624   6.221  69.598  1.00  0.00     0.000 HD 
BRANCH  42  53
HETATM   53  C   UNL     1      -8.439   6.866  65.884  1.00  0.00    -0.144 C  
HETATM   54  O   UNL     1      -7.028   7.028  65.984  1.00  0.00    -0.062 OA 
HETATM   55  H   UNL     1      -6.571   6.672  65.232  1.00  0.00     0.000 HD 
ENDBRANCH  42  53
ENDBRANCH  39  41
ENDBRANCH  31  39
ENDBRANCH  27  28
ENDBRANCH  23  27
ENDBRANCH  13  14
ENDBRANCH   4  13
ENDBRANCH   1   4
BRANCH   1  56
HETATM   56  C   UNL     1      -7.580  15.258  69.940  1.00  0.00    -0.003 C  
HETATM   57  O   UNL     1      -7.664  14.029  69.214  1.00  0.00    -0.330 OA 
HETATM   58  H   UNL     1      -8.513  13.633  69.376  1.00  0.00     0.000 HD 
ENDBRANCH   1  56
TORSDOF 12
ENDMDL
MODEL      202
REMARK 921   NORMALIZED FREE ENERGY PREDICTED BY IDOCK:   -3.20 KCAL/MOL
REMARK 922        TOTAL FREE ENERGY PREDICTED BY IDOCK:   -8.64 KCAL/MOL
REMARK 923 INTER-LIGAND FREE ENERGY PREDICTED BY IDOCK:   -6.52 KCAL/MOL
REMARK 924 INTRA-LIGAND FREE ENERGY PREDICTED BY IDOCK:   -2.12 KCAL/MOL
REMARK 927      BINDING AFFINITY PREDICTED BY RF-SCORE:    0.00 PKD
ROOT
HETATM    1  C   UNL     1     -10.742  12.754  68.557  1.00  0.00    -0.253 C  
HETATM    2  H   UNL     1     -11.147  14.521  69.244  1.00  0.00     0.000 HD 
HETATM    3  O   UNL     1     -11.279  13.632  69.555  1.00  0.00    -0.228 OA 
ENDROOT
BRANCH   1   4
HETATM    4  C   UNL     1      -9.258  13.075  68.206  1.00  0.00    -0.191 C  
BRANCH   4   5
HETATM    5  C   UNL     1      -9.113  13.843  66.854  1.00  0.00    -0.245 C  
HETATM    6  O   UNL     1      -8.743  15.215  67.066  1.00  0.00    -0.205 OA 
HETATM    7  H   UNL     1      -8.655  15.682  66.243  1.00  0.00     0.000 HD 
BRANCH   5   8
HETATM    8  C   UNL     1     -10.373  13.848  65.978  1.00  0.00    -0.305 C  
HETATM    9  C   UNL     1     -10.407  12.646  65.060  1.00  0.00    -0.299 C  
HETATM   10  O   UNL     1     -10.341  15.037  65.174  1.00  0.00    -0.379 OA 
HETATM   11  O   UNL     1     -10.935  11.583  65.376  1.00  0.00    -0.282 OA 
HETATM   12  H   UNL     1     -11.121  15.040  64.632  1.00  0.00     0.000 HD 
ENDBRANCH   5   8
ENDBRANCH   4   5
BRANCH   4  13
HETATM   13  O   UNL     1      -8.422  11.893  68.178  1.00  0.00    -0.149 OA 
BRANCH  13  14
HETATM   14  C   UNL     1      -7.078  12.091  68.647  1.00  0.00    -0.103 C  
HETATM   15  H   UNL     1      -5.141  10.053  65.811  1.00  0.00     0.000 HD 
HETATM   16  O   UNL     1      -6.170  12.209  66.334  1.00  0.00    -0.461 OA 
HETATM   17  C   UNL     1      -6.069  11.564  67.614  1.00  0.00    -0.062 C  
HETATM   18  O   UNL     1      -6.807  11.453  69.886  1.00  0.00    -0.092 OA 
HETATM   19  O   UNL     1      -5.165   9.567  66.628  1.00  0.00    -0.042 OA 
HETATM   20  C   UNL     1      -7.016  10.037  69.872  1.00  0.00    -0.118 C  
HETATM   21  H   UNL     1      -5.547  11.883  65.695  1.00  0.00     0.000 HD 
HETATM   22  C   UNL     1      -6.264  10.067  67.417  1.00  0.00    -0.059 C  
HETATM   23  C   UNL     1      -6.303   9.281  68.738  1.00  0.00    -0.048 C  
BRANCH  20  24
HETATM   24  C   UNL     1      -6.623   9.502  71.268  1.00  0.00     0.027 C  
HETATM   25  O   UNL     1      -6.490   8.080  71.328  1.00  0.00    -0.037 OA 
HETATM   26  H   UNL     1      -6.248   7.752  72.186  1.00  0.00     0.000 HD 
ENDBRANCH  20  24
BRANCH  23  27
HETATM   27  O   UNL     1      -7.024   8.028  68.573  1.00  0.00    -0.068 OA 
BRANCH  27  28
HETATM   28  C   UNL     1      -8.448   8.179  68.634  1.00  0.00    -0.127 C  
HETATM   29  O   UNL     1      -8.950   8.687  67.407  1.00  0.00    -0.132 OA 
HETATM   30  C   UNL     1      -8.672   7.821  66.305  1.00  0.00    -0.155 C  
HETATM   31  C   UNL     1      -9.435   6.485  66.492  1.00  0.00    -0.154 C  
HETATM   32  C   UNL     1      -9.046   8.610  65.053  1.00  0.00     0.023 C  
HETATM   33  C   UNL     1      -9.005   5.840  67.838  1.00  0.00    -0.111 C  
HETATM   34  H   UNL     1      -9.592   4.333  68.986  1.00  0.00     0.000 HD 
HETATM   35  C   UNL     1      -9.117   6.842  68.990  1.00  0.00    -0.137 C  
HETATM   36  O   UNL     1      -9.855   4.727  68.163  1.00  0.00    -0.152 OA 
HETATM   37  O   UNL     1      -8.568   6.274  70.193  1.00  0.00    -0.131 OA 
HETATM   38  H   UNL     1      -8.981   5.448  70.413  1.00  0.00     0.000 HD 
BRANCH  31  39
HETATM   39  N   UNL     1      -9.225   5.616  65.308  1.00  0.00    -0.361 NA 
HETATM   40  H   UNL     1     -10.001   5.157  64.831  1.00  0.00     0.000 HD 
BRANCH  39  41
HETATM   41  C   UNL     1      -7.812   5.452  64.858  1.00  0.00    -0.102 C  
HETATM   42  C   UNL     1      -6.048   4.700  66.512  1.00  0.00    -0.031 C  
HETATM   43  C   UNL     1      -6.882   5.619  66.021  1.00  0.00    -0.058 C  
HETATM   44  C   UNL     1      -5.874   3.363  65.844  1.00  0.00    -0.019 C  
HETATM   45  H   UNL     1      -8.812   2.421  64.025  1.00  0.00     0.000 HD 
HETATM   46  O   UNL     1      -8.871   3.262  64.463  1.00  0.00    -0.103 OA 
HETATM   47  C   UNL     1      -6.443   3.248  64.406  1.00  0.00    -0.031 C  
HETATM   48  O   UNL     1      -6.450   2.375  66.694  1.00  0.00    -0.030 OA 
HETATM   49  H   UNL     1      -5.788   3.551  62.568  1.00  0.00     0.000 HD 
HETATM   50  O   UNL     1      -5.439   3.622  63.449  1.00  0.00    -0.008 OA 
HETATM   51  C   UNL     1      -7.714   4.066  64.137  1.00  0.00    -0.083 C  
HETATM   52  H   UNL     1      -6.340   1.531  66.272  1.00  0.00     0.000 HD 
BRANCH  42  53
HETATM   53  C   UNL     1      -5.232   4.909  67.768  1.00  0.00    -0.011 C  
HETATM   54  O   UNL     1      -6.050   5.134  68.912  1.00  0.00    -0.023 OA 
HETATM   55  H   UNL     1      -5.538   5.265  69.701  1.00  0.00     0.000 HD 
ENDBRANCH  42  53
ENDBRANCH  39  41
ENDBRANCH  31  39
ENDBRANCH  27  28
ENDBRANCH  23  27
ENDBRANCH  13  14
ENDBRANCH   4  13
ENDBRANCH   1   4
BRANCH   1  56
HETATM   56  C   UNL     1     -10.954  11.323  69.057  1.00  0.00    -0.236 C  
HETATM   57  O   UNL     1     -11.872  10.659  68.185  1.00  0.00    -0.748 OA 
HETATM   58  H   UNL     1     -12.003   9.770  68.495  1.00  0.00     0.000 HD 
ENDBRANCH   1  56
TORSDOF 12
ENDMDL
MODEL      203
REMARK 921   NORMALIZED FREE ENERGY PREDICTED BY IDOCK:   -3.19 KCAL/MOL
REMARK 922        TOTAL FREE ENERGY PREDICTED BY IDOCK:   -8.63 KCAL/MOL
REMARK 923 INTER-LIGAND FREE ENERGY PREDICTED BY IDOCK:   -8.47 KCAL/MOL
REMARK 924 INTRA-LIGAND FREE ENERGY PREDICTED BY IDOCK:   -0.16 KCAL/MOL
REMARK 927      BINDING AFFINITY PREDICTED BY RF-SCORE:    0.00 PKD
ROOT
HETATM    1  C   UNL     1     -11.697  13.083  67.347  1.00  0.00    -0.374 C  
HETATM    2  H   UNL     1     -12.465  14.068  65.864  1.00  0.00     0.000 HD 
HETATM    3  O   UNL     1     -12.419  14.197  66.804  1.00  0.00    -0.396 OA 
ENDROOT
BRANCH   1   4
HETATM    4  C   UNL     1     -10.303  12.884  66.679  1.00  0.00    -0.251 C  
BRANCH   4   5
HETATM    5  C   UNL     1     -10.287  13.324  65.181  1.00  0.00    -0.323 C  
HETATM    6  O   UNL     1     -10.673  14.699  65.032  1.00  0.00    -0.377 OA 
HETATM    7  H   UNL     1     -10.662  14.966  64.121  1.00  0.00     0.000 HD 
BRANCH   5   8
HETATM    8  C   UNL     1     -11.195  12.500  64.259  1.00  0.00    -0.355 C  
HETATM    9  C   UNL     1     -10.384  11.624  63.330  1.00  0.00    -0.435 C  
HETATM   10  O   UNL     1     -11.962  13.419  63.465  1.00  0.00    -0.670 OA 
HETATM   11  O   UNL     1     -10.056  10.474  63.618  1.00  0.00    -0.301 OA 
HETATM   12  H   UNL     1     -12.524  12.909  62.895  1.00  0.00     0.000 HD 
ENDBRANCH   5   8
ENDBRANCH   4   5
BRANCH   4  13
HETATM   13  O   UNL     1      -9.823  11.522  66.785  1.00  0.00    -0.198 OA 
BRANCH  13  14
HETATM   14  C   UNL     1      -8.900  11.288  67.862  1.00  0.00    -0.142 C  
HETATM   15  H   UNL     1      -6.025   9.433  65.804  1.00  0.00     0.000 HD 
HETATM   16  O   UNL     1      -6.923  11.630  66.391  1.00  0.00    -0.355 OA 
HETATM   17  C   UNL     1      -7.570  10.743  67.317  1.00  0.00    -0.102 C  
HETATM   18  O   UNL     1      -9.381  10.373  68.836  1.00  0.00    -0.168 OA 
HETATM   19  O   UNL     1      -6.521   8.818  66.331  1.00  0.00    -0.060 OA 
HETATM   20  C   UNL     1      -9.712   9.083  68.311  1.00  0.00    -0.152 C  
HETATM   21  H   UNL     1      -6.102  11.293  66.054  1.00  0.00     0.000 HD 
HETATM   22  C   UNL     1      -7.804   9.407  66.623  1.00  0.00    -0.104 C  
HETATM   23  C   UNL     1      -8.607   8.412  67.476  1.00  0.00    -0.129 C  
BRANCH  20  24
HETATM   24  C   UNL     1     -10.158   8.204  69.502  1.00  0.00    -0.193 C  
HETATM   25  O   UNL     1     -11.058   7.154  69.143  1.00  0.00    -0.415 OA 
HETATM   26  H   UNL     1     -11.332   6.614  69.875  1.00  0.00     0.000 HD 
ENDBRANCH  20  24
BRANCH  23  27
HETATM   27  O   UNL     1      -9.277   7.432  66.634  1.00  0.00    -0.145 OA 
BRANCH  27  28
HETATM   28  C   UNL     1      -8.425   6.357  66.223  1.00  0.00    -0.131 C  
HETATM   29  O   UNL     1      -7.192   6.399  66.926  1.00  0.00    -0.071 OA 
HETATM   30  C   UNL     1      -7.368   6.271  68.339  1.00  0.00    -0.086 C  
HETATM   31  C   UNL     1      -7.932   4.865  68.664  1.00  0.00    -0.084 C  
HETATM   32  C   UNL     1      -6.006   6.580  68.956  1.00  0.00    -0.022 C  
HETATM   33  C   UNL     1      -9.276   4.671  67.910  1.00  0.00    -0.127 C  
HETATM   34  H   UNL     1     -10.535   3.186  67.531  1.00  0.00     0.000 HD 
HETATM   35  C   UNL     1      -9.126   5.005  66.423  1.00  0.00    -0.129 C  
HETATM   36  O   UNL     1      -9.713   3.304  67.993  1.00  0.00    -0.144 OA 
HETATM   37  O   UNL     1     -10.412   4.970  65.778  1.00  0.00    -0.418 OA 
HETATM   38  H   UNL     1     -10.846   4.135  65.902  1.00  0.00     0.000 HD 
BRANCH  31  39
HETATM   39  N   UNL     1      -8.031   4.691  70.135  1.00  0.00    -0.063 NA 
HETATM   40  H   UNL     1      -7.796   5.441  70.784  1.00  0.00     0.000 HD 
BRANCH  39  41
HETATM   41  C   UNL     1      -8.495   3.353  70.606  1.00  0.00    -0.068 C  
HETATM   42  C   UNL     1      -7.467   2.330  72.681  1.00  0.00    -0.039 C  
HETATM   43  C   UNL     1      -7.411   2.686  71.397  1.00  0.00    -0.033 C  
HETATM   44  C   UNL     1      -8.732   2.479  73.482  1.00  0.00    -0.074 C  
HETATM   45  H   UNL     1     -10.788   5.113  72.194  1.00  0.00     0.000 HD 
HETATM   46  O   UNL     1      -9.977   4.977  71.719  1.00  0.00    -0.176 OA 
HETATM   47  C   UNL     1     -10.022   2.740  72.662  1.00  0.00    -0.149 C  
HETATM   48  O   UNL     1      -8.522   3.517  74.436  1.00  0.00    -0.083 OA 
HETATM   49  H   UNL     1     -11.431   1.652  71.806  1.00  0.00     0.000 HD 
HETATM   50  O   UNL     1     -10.640   1.492  72.309  1.00  0.00    -0.162 OA 
HETATM   51  C   UNL     1      -9.831   3.577  71.389  1.00  0.00    -0.144 C  
HETATM   52  H   UNL     1      -9.322   3.611  74.941  1.00  0.00     0.000 HD 
BRANCH  42  53
HETATM   53  C   UNL     1      -6.282   1.773  73.439  1.00  0.00    -0.012 C  
HETATM   54  O   UNL     1      -5.527   2.793  74.086  1.00  0.00     0.000 OA 
HETATM   55  H   UNL     1      -4.782   2.443  74.561  1.00  0.00     0.000 HD 
ENDBRANCH  42  53
ENDBRANCH  39  41
ENDBRANCH  31  39
ENDBRANCH  27  28
ENDBRANCH  23  27
ENDBRANCH  13  14
ENDBRANCH   4  13
ENDBRANCH   1   4
BRANCH   1  56
HETATM   56  C   UNL     1     -11.622  13.291  68.861  1.00  0.00    -0.314 C  
HETATM   57  O   UNL     1     -11.438  12.023  69.495  1.00  0.00    -0.296 OA 
HETATM   58  H   UNL     1     -11.391  12.152  70.435  1.00  0.00     0.000 HD 
ENDBRANCH   1  56
TORSDOF 12
ENDMDL
MODEL      204
REMARK 921   NORMALIZED FREE ENERGY PREDICTED BY IDOCK:   -3.18 KCAL/MOL
REMARK 922        TOTAL FREE ENERGY PREDICTED BY IDOCK:   -8.61 KCAL/MOL
REMARK 923 INTER-LIGAND FREE ENERGY PREDICTED BY IDOCK:   -7.45 KCAL/MOL
REMARK 924 INTRA-LIGAND FREE ENERGY PREDICTED BY IDOCK:   -1.15 KCAL/MOL
REMARK 927      BINDING AFFINITY PREDICTED BY RF-SCORE:    0.00 PKD
ROOT
HETATM    1  C   UNL     1      -9.417  10.651  69.603  1.00  0.00     0.099 C  
HETATM    2  H   UNL     1      -7.640  10.966  70.312  1.00  0.00     0.000 HD 
HETATM    3  O   UNL     1      -8.171  10.195  70.146  1.00  0.00    -0.135 OA 
ENDROOT
BRANCH   1   4
HETATM    4  C   UNL     1      -9.233  11.560  68.351  1.00  0.00    -0.190 C  
BRANCH   4   5
HETATM    5  C   UNL     1     -10.332  12.663  68.242  1.00  0.00    -0.241 C  
HETATM    6  O   UNL     1     -10.928  12.939  69.519  1.00  0.00    -0.449 OA 
HETATM    7  H   UNL     1     -11.597  13.610  69.453  1.00  0.00     0.000 HD 
BRANCH   5   8
HETATM    8  C   UNL     1     -11.476  12.338  67.273  1.00  0.00    -0.357 C  
HETATM    9  C   UNL     1     -12.354  13.547  67.034  1.00  0.00    -0.211 C  
HETATM   10  O   UNL     1     -12.275  11.305  67.871  1.00  0.00    -0.570 OA 
HETATM   11  O   UNL     1     -12.148  14.349  66.126  1.00  0.00    -0.399 OA 
HETATM   12  H   UNL     1     -12.983  11.103  67.270  1.00  0.00     0.000 HD 
ENDBRANCH   5   8
ENDBRANCH   4   5
BRANCH   4  13
HETATM   13  O   UNL     1      -9.187  10.805  67.115  1.00  0.00    -0.147 OA 
BRANCH  13  14
HETATM   14  C   UNL     1      -8.046  11.075  66.284  1.00  0.00    -0.159 C  
HETATM   15  H   UNL     1      -8.874   8.566  63.289  1.00  0.00     0.000 HD 
HETATM   16  O   UNL     1      -9.362  10.785  64.193  1.00  0.00    -0.219 OA 
HETATM   17  C   UNL     1      -8.197  10.371  64.925  1.00  0.00    -0.145 C  
HETATM   18  O   UNL     1      -6.813  10.659  66.855  1.00  0.00    -0.087 OA 
HETATM   19  O   UNL     1      -8.173   8.229  63.836  1.00  0.00    -0.152 OA 
HETATM   20  C   UNL     1      -6.755   9.264  67.167  1.00  0.00    -0.076 C  
HETATM   21  H   UNL     1      -9.456  10.350  63.353  1.00  0.00     0.000 HD 
HETATM   22  C   UNL     1      -8.264   8.864  65.128  1.00  0.00    -0.141 C  
HETATM   23  C   UNL     1      -7.131   8.318  66.012  1.00  0.00    -0.069 C  
BRANCH  20  24
HETATM   24  C   UNL     1      -5.341   8.976  67.720  1.00  0.00    -0.035 C  
HETATM   25  O   UNL     1      -5.330   8.507  69.070  1.00  0.00    -0.034 OA 
HETATM   26  H   UNL     1      -4.461   8.330  69.409  1.00  0.00     0.000 HD 
ENDBRANCH  20  24
BRANCH  23  27
HETATM   27  O   UNL     1      -7.518   7.060  66.631  1.00  0.00    -0.078 OA 
BRANCH  27  28
HETATM   28  C   UNL     1      -8.509   6.340  65.887  1.00  0.00    -0.146 C  
HETATM   29  O   UNL     1      -8.208   4.952  65.866  1.00  0.00    -0.110 OA 
HETATM   30  C   UNL     1      -8.178   4.383  67.177  1.00  0.00    -0.101 C  
HETATM   31  C   UNL     1      -9.596   4.445  67.800  1.00  0.00    -0.160 C  
HETATM   32  C   UNL     1      -7.609   2.977  67.005  1.00  0.00    -0.074 C  
HETATM   33  C   UNL     1     -10.068   5.924  67.839  1.00  0.00    -0.162 C  
HETATM   34  H   UNL     1     -11.748   6.909  68.211  1.00  0.00     0.000 HD 
HETATM   35  C   UNL     1      -9.909   6.590  66.470  1.00  0.00    -0.111 C  
HETATM   36  O   UNL     1     -11.461   6.004  68.188  1.00  0.00     0.026 OA 
HETATM   37  O   UNL     1     -10.202   7.995  66.568  1.00  0.00    -0.416 OA 
HETATM   38  H   UNL     1     -11.067   8.151  66.928  1.00  0.00     0.000 HD 
BRANCH  31  39
HETATM   39  N   UNL     1      -9.594   3.773  69.123  1.00  0.00    -0.167 NA 
HETATM   40  H   UNL     1     -10.186   2.966  69.320  1.00  0.00     0.000 HD 
BRANCH  39  41
HETATM   41  C   UNL     1      -8.675   4.348  70.148  1.00  0.00    -0.074 C  
HETATM   42  C   UNL     1      -9.618   5.769  72.020  1.00  0.00    -0.170 C  
HETATM   43  C   UNL     1      -9.281   5.583  70.743  1.00  0.00    -0.179 C  
HETATM   44  C   UNL     1      -9.310   4.736  73.070  1.00  0.00    -0.126 C  
HETATM   45  H   UNL     1      -9.134   1.450  71.655  1.00  0.00     0.000 HD 
HETATM   46  O   UNL     1      -9.323   2.140  71.030  1.00  0.00    -0.111 OA 
HETATM   47  C   UNL     1      -8.305   3.631  72.655  1.00  0.00    -0.086 C  
HETATM   48  O   UNL     1     -10.546   4.162  73.489  1.00  0.00    -0.166 OA 
HETATM   49  H   UNL     1      -6.349   3.365  72.713  1.00  0.00     0.000 HD 
HETATM   50  O   UNL     1      -6.965   4.043  72.967  1.00  0.00    -0.052 OA 
HETATM   51  C   UNL     1      -8.364   3.212  71.179  1.00  0.00    -0.062 C  
HETATM   52  H   UNL     1     -10.351   3.509  74.152  1.00  0.00     0.000 HD 
BRANCH  42  53
HETATM   53  C   UNL     1     -10.341   7.002  72.516  1.00  0.00    -0.205 C  
HETATM   54  O   UNL     1     -10.450   7.029  73.935  1.00  0.00    -0.375 OA 
HETATM   55  H   UNL     1     -10.905   7.803  74.247  1.00  0.00     0.000 HD 
ENDBRANCH  42  53
ENDBRANCH  39  41
ENDBRANCH  31  39
ENDBRANCH  27  28
ENDBRANCH  23  27
ENDBRANCH  13  14
ENDBRANCH   4  13
ENDBRANCH   1   4
BRANCH   1  56
HETATM   56  C   UNL     1     -10.271   9.410  69.336  1.00  0.00    -0.207 C  
HETATM   57  O   UNL     1     -11.548   9.584  69.955  1.00  0.00    -0.427 OA 
HETATM   58  H   UNL     1     -12.079   8.813  69.788  1.00  0.00     0.000 HD 
ENDBRANCH   1  56
TORSDOF 12
ENDMDL
MODEL      205
REMARK 921   NORMALIZED FREE ENERGY PREDICTED BY IDOCK:   -3.10 KCAL/MOL
REMARK 922        TOTAL FREE ENERGY PREDICTED BY IDOCK:   -8.47 KCAL/MOL
REMARK 923 INTER-LIGAND FREE ENERGY PREDICTED BY IDOCK:   -6.99 KCAL/MOL
REMARK 924 INTRA-LIGAND FREE ENERGY PREDICTED BY IDOCK:   -1.48 KCAL/MOL
REMARK 927      BINDING AFFINITY PREDICTED BY RF-SCORE:    0.00 PKD
ROOT
HETATM    1  C   UNL     1     -12.100  14.289  66.221  1.00  0.00    -0.413 C  
HETATM    2  H   UNL     1     -12.242  12.812  67.468  1.00  0.00     0.000 HD 
HETATM    3  O   UNL     1     -12.238  12.894  66.521  1.00  0.00    -0.441 OA 
ENDROOT
BRANCH   1   4
HETATM    4  C   UNL     1     -10.858  14.934  66.905  1.00  0.00    -0.319 C  
BRANCH   4   5
HETATM    5  C   UNL     1     -10.543  16.361  66.357  1.00  0.00    -0.236 C  
HETATM    6  O   UNL     1      -9.570  16.317  65.302  1.00  0.00    -0.383 OA 
HETATM    7  H   UNL     1      -9.378  17.185  64.968  1.00  0.00     0.000 HD 
BRANCH   5   8
HETATM    8  C   UNL     1     -10.024  17.353  67.406  1.00  0.00    -0.305 C  
HETATM    9  C   UNL     1     -10.820  17.263  68.688  1.00  0.00    -0.199 C  
HETATM   10  O   UNL     1     -10.174  18.676  66.867  1.00  0.00    -0.343 OA 
HETATM   11  O   UNL     1     -10.511  16.512  69.612  1.00  0.00    -0.301 OA 
HETATM   12  H   UNL     1      -9.852  19.291  67.517  1.00  0.00     0.000 HD 
ENDBRANCH   5   8
ENDBRANCH   4   5
BRANCH   4  13
HETATM   13  O   UNL     1      -9.672  14.108  66.803  1.00  0.00    -0.258 OA 
BRANCH  13  14
HETATM   14  C   UNL     1      -8.882  14.034  68.002  1.00  0.00    -0.181 C  
HETATM   15  H   UNL     1      -5.404  12.948  66.366  1.00  0.00     0.000 HD 
HETATM   16  O   UNL     1      -6.844  14.866  66.842  1.00  0.00    -0.294 OA 
HETATM   17  C   UNL     1      -7.400  13.818  67.651  1.00  0.00    -0.172 C  
HETATM   18  O   UNL     1      -9.278  12.992  68.882  1.00  0.00     0.092 OA 
HETATM   19  O   UNL     1      -5.820  12.216  66.807  1.00  0.00    -0.265 OA 
HETATM   20  C   UNL     1      -9.236  11.687  68.299  1.00  0.00    -0.187 C  
HETATM   21  H   UNL     1      -5.929  14.732  66.625  1.00  0.00     0.000 HD 
HETATM   22  C   UNL     1      -7.231  12.496  66.914  1.00  0.00     0.152 C  
HETATM   23  C   UNL     1      -7.903  11.312  67.627  1.00  0.00    -0.116 C  
BRANCH  20  24
HETATM   24  C   UNL     1      -9.638  10.679  69.400  1.00  0.00    -0.096 C  
HETATM   25  O   UNL     1      -9.738   9.329  68.943  1.00  0.00    -0.156 OA 
HETATM   26  H   UNL     1      -9.985   8.710  69.620  1.00  0.00     0.000 HD 
ENDBRANCH  20  24
BRANCH  23  27
HETATM   27  O   UNL     1      -8.212  10.248  66.684  1.00  0.00    -0.122 OA 
BRANCH  27  28
HETATM   28  C   UNL     1      -7.050   9.582  66.175  1.00  0.00    -0.092 C  
HETATM   29  O   UNL     1      -6.140   9.291  67.226  1.00  0.00    -0.055 OA 
HETATM   30  C   UNL     1      -6.711   8.432  68.216  1.00  0.00    -0.065 C  
HETATM   31  C   UNL     1      -7.007   7.046  67.590  1.00  0.00    -0.083 C  
HETATM   32  C   UNL     1      -5.717   8.419  69.375  1.00  0.00    -0.031 C  
HETATM   33  C   UNL     1      -7.968   7.231  66.384  1.00  0.00    -0.112 C  
HETATM   34  H   UNL     1      -8.669   6.124  64.895  1.00  0.00     0.000 HD 
HETATM   35  C   UNL     1      -7.447   8.303  65.422  1.00  0.00    -0.085 C  
HETATM   36  O   UNL     1      -8.082   6.010  65.633  1.00  0.00    -0.113 OA 
HETATM   37  O   UNL     1      -8.426   8.567  64.401  1.00  0.00    -0.293 OA 
HETATM   38  H   UNL     1      -8.671   7.777  63.935  1.00  0.00     0.000 HD 
BRANCH  31  39
HETATM   39  N   UNL     1      -7.513   6.121  68.633  1.00  0.00    -0.086 NA 
HETATM   40  H   UNL     1      -8.368   6.312  69.156  1.00  0.00     0.000 HD 
BRANCH  39  41
HETATM   41  C   UNL     1      -6.699   4.893  68.871  1.00  0.00    -0.050 C  
HETATM   42  C   UNL     1      -6.682   3.827  71.167  1.00  0.00    -0.031 C  
HETATM   43  C   UNL     1      -6.332   4.796  70.321  1.00  0.00    -0.026 C  
HETATM   44  C   UNL     1      -7.436   2.612  70.699  1.00  0.00    -0.036 C  
HETATM   45  H   UNL     1      -9.397   3.334  67.791  1.00  0.00     0.000 HD 
HETATM   46  O   UNL     1      -8.898   4.071  68.124  1.00  0.00    -0.097 OA 
HETATM   47  C   UNL     1      -7.481   2.396  69.164  1.00  0.00    -0.043 C  
HETATM   48  O   UNL     1      -8.753   2.685  71.236  1.00  0.00    -0.062 OA 
HETATM   49  H   UNL     1      -6.386   1.470  67.806  1.00  0.00     0.000 HD 
HETATM   50  O   UNL     1      -6.358   1.602  68.746  1.00  0.00    -0.024 OA 
HETATM   51  C   UNL     1      -7.521   3.680  68.323  1.00  0.00    -0.057 C  
HETATM   52  H   UNL     1      -9.230   1.918  70.940  1.00  0.00     0.000 HD 
BRANCH  42  53
HETATM   53  C   UNL     1      -6.374   3.868  72.648  1.00  0.00    -0.017 C  
HETATM   54  O   UNL     1      -5.804   5.110  73.046  1.00  0.00    -0.021 OA 
HETATM   55  H   UNL     1      -5.610   5.136  73.976  1.00  0.00     0.000 HD 
ENDBRANCH  42  53
ENDBRANCH  39  41
ENDBRANCH  31  39
ENDBRANCH  27  28
ENDBRANCH  23  27
ENDBRANCH  13  14
ENDBRANCH   4  13
ENDBRANCH   1   4
BRANCH   1  56
HETATM   56  C   UNL     1     -12.092  14.421  64.696  1.00  0.00    -0.471 C  
HETATM   57  O   UNL     1     -12.971  13.439  64.141  1.00  0.00    -0.500 OA 
HETATM   58  H   UNL     1     -12.966  13.521  63.194  1.00  0.00     0.000 HD 
ENDBRANCH   1  56
TORSDOF 12
ENDMDL
MODEL      206
REMARK 921   NORMALIZED FREE ENERGY PREDICTED BY IDOCK:   -3.10 KCAL/MOL
REMARK 922        TOTAL FREE ENERGY PREDICTED BY IDOCK:   -8.47 KCAL/MOL
REMARK 923 INTER-LIGAND FREE ENERGY PREDICTED BY IDOCK:   -6.75 KCAL/MOL
REMARK 924 INTRA-LIGAND FREE ENERGY PREDICTED BY IDOCK:   -1.72 KCAL/MOL
REMARK 927      BINDING AFFINITY PREDICTED BY RF-SCORE:    0.00 PKD
ROOT
HETATM    1  C   UNL     1      -9.127   2.654  63.761  1.00  0.00    -0.099 C  
HETATM    2  H   UNL     1      -7.747   1.367  64.207  1.00  0.00     0.000 HD 
HETATM    3  O   UNL     1      -8.211   1.607  63.413  1.00  0.00    -0.064 OA 
ENDROOT
BRANCH   1   4
HETATM    4  C   UNL     1      -8.428   3.859  64.460  1.00  0.00    -0.102 C  
BRANCH   4   5
HETATM    5  C   UNL     1      -6.983   4.108  63.925  1.00  0.00    -0.045 C  
HETATM    6  O   UNL     1      -5.998   3.475  64.757  1.00  0.00    -0.021 OA 
HETATM    7  H   UNL     1      -5.118   3.626  64.431  1.00  0.00     0.000 HD 
BRANCH   5   8
HETATM    8  C   UNL     1      -6.587   5.585  63.805  1.00  0.00    -0.033 C  
HETATM    9  C   UNL     1      -7.793   6.489  63.930  1.00  0.00    -0.109 C  
HETATM   10  O   UNL     1      -6.005   5.777  62.506  1.00  0.00    -0.021 OA 
HETATM   11  O   UNL     1      -8.177   6.940  65.008  1.00  0.00    -0.134 OA 
HETATM   12  H   UNL     1      -5.760   6.692  62.431  1.00  0.00     0.000 HD 
ENDBRANCH   5   8
ENDBRANCH   4   5
BRANCH   4  13
HETATM   13  O   UNL     1      -8.389   3.723  65.902  1.00  0.00    -0.107 OA 
BRANCH  13  14
HETATM   14  C   UNL     1      -9.598   3.219  66.494  1.00  0.00    -0.009 C  
HETATM   15  H   UNL     1     -11.439   6.698  67.165  1.00  0.00     0.000 HD 
HETATM   16  O   UNL     1     -10.983   5.007  65.458  1.00  0.00    -0.688 OA 
HETATM   17  C   UNL     1     -10.614   4.357  66.685  1.00  0.00     0.403 C  
HETATM   18  O   UNL     1      -9.399   2.597  67.755  1.00  0.00    -0.192 OA 
HETATM   19  O   UNL     1     -11.100   6.328  67.972  1.00  0.00    -0.333 OA 
HETATM   20  C   UNL     1      -8.801   3.447  68.738  1.00  0.00    -0.113 C  
HETATM   21  H   UNL     1     -11.611   5.711  65.577  1.00  0.00     0.000 HD 
HETATM   22  C   UNL     1     -10.046   5.403  67.635  1.00  0.00    -0.175 C  
HETATM   23  C   UNL     1      -9.497   4.805  68.940  1.00  0.00    -0.146 C  
BRANCH  20  24
HETATM   24  C   UNL     1      -8.710   2.637  70.052  1.00  0.00    -0.070 C  
HETATM   25  O   UNL     1      -9.907   2.660  70.831  1.00  0.00    -0.111 OA 
HETATM   26  H   UNL     1      -9.851   2.162  71.638  1.00  0.00     0.000 HD 
ENDBRANCH  20  24
BRANCH  23  27
HETATM   27  O   UNL     1      -8.501   5.684  69.533  1.00  0.00    -0.108 OA 
BRANCH  27  28
HETATM   28  C   UNL     1      -8.646   5.834  70.951  1.00  0.00    -0.130 C  
HETATM   29  O   UNL     1      -7.496   6.453  71.508  1.00  0.00    -0.087 OA 
HETATM   30  C   UNL     1      -7.269   7.759  70.974  1.00  0.00    -0.054 C  
HETATM   31  C   UNL     1      -8.431   8.696  71.389  1.00  0.00    -0.188 C  
HETATM   32  C   UNL     1      -5.889   8.178  71.477  1.00  0.00    -0.035 C  
HETATM   33  C   UNL     1      -9.770   8.102  70.873  1.00  0.00    -0.166 C  
HETATM   34  H   UNL     1     -11.708   8.445  71.118  1.00  0.00     0.000 HD 
HETATM   35  C   UNL     1      -9.916   6.634  71.282  1.00  0.00    -0.180 C  
HETATM   36  O   UNL     1     -10.889   8.809  71.434  1.00  0.00    -0.244 OA 
HETATM   37  O   UNL     1     -11.082   6.063  70.663  1.00  0.00    -0.302 OA 
HETATM   38  H   UNL     1     -11.867   6.557  70.867  1.00  0.00     0.000 HD 
BRANCH  31  39
HETATM   39  N   UNL     1      -8.157  10.076  70.917  1.00  0.00    -0.236 NA 
HETATM   40  H   UNL     1      -8.032  10.854  71.565  1.00  0.00     0.000 HD 
BRANCH  39  41
HETATM   41  C   UNL     1      -8.076  10.258  69.438  1.00  0.00    -0.163 C  
HETATM   42  C   UNL     1      -9.670  11.851  68.282  1.00  0.00    -0.200 C  
HETATM   43  C   UNL     1      -9.405  10.701  68.904  1.00  0.00    -0.191 C  
HETATM   44  C   UNL     1      -8.578  12.830  67.946  1.00  0.00    -0.181 C  
HETATM   45  H   UNL     1      -5.819  12.536  70.210  1.00  0.00     0.000 HD 
HETATM   46  O   UNL     1      -6.535  11.935  70.379  1.00  0.00    -0.149 OA 
HETATM   47  C   UNL     1      -7.130  12.287  68.051  1.00  0.00    -0.099 C  
HETATM   48  O   UNL     1      -8.750  13.974  68.778  1.00  0.00    -0.306 OA 
HETATM   49  H   UNL     1      -5.836  11.390  66.859  1.00  0.00     0.000 HD 
HETATM   50  O   UNL     1      -6.724  11.722  66.794  1.00  0.00    -0.125 OA 
HETATM   51  C   UNL     1      -6.898  11.250  69.159  1.00  0.00    -0.109 C  
HETATM   52  H   UNL     1      -8.060  14.592  68.565  1.00  0.00     0.000 HD 
BRANCH  42  53
HETATM   53  C   UNL     1     -11.067  12.274  67.884  1.00  0.00    -0.243 C  
HETATM   54  O   UNL     1     -12.052  11.324  68.277  1.00  0.00    -0.619 OA 
HETATM   55  H   UNL     1     -12.929  11.590  68.026  1.00  0.00     0.000 HD 
ENDBRANCH  42  53
ENDBRANCH  39  41
ENDBRANCH  31  39
ENDBRANCH  27  28
ENDBRANCH  23  27
ENDBRANCH  13  14
ENDBRANCH   4  13
ENDBRANCH   1   4
BRANCH   1  56
HETATM   56  C   UNL     1      -9.874   3.041  62.483  1.00  0.00    -0.093 C  
HETATM   57  O   UNL     1     -10.327   4.392  62.602  1.00  0.00    -0.375 OA 
HETATM   58  H   UNL     1     -10.790   4.633  61.808  1.00  0.00     0.000 HD 
ENDBRANCH   1  56
TORSDOF 12
ENDMDL
MODEL      207
REMARK 921   NORMALIZED FREE ENERGY PREDICTED BY IDOCK:   -3.07 KCAL/MOL
REMARK 922        TOTAL FREE ENERGY PREDICTED BY IDOCK:   -8.42 KCAL/MOL
REMARK 923 INTER-LIGAND FREE ENERGY PREDICTED BY IDOCK:   -7.88 KCAL/MOL
REMARK 924 INTRA-LIGAND FREE ENERGY PREDICTED BY IDOCK:   -0.54 KCAL/MOL
REMARK 927      BINDING AFFINITY PREDICTED BY RF-SCORE:    0.00 PKD
ROOT
HETATM    1  C   UNL     1      -8.910  14.785  69.265  1.00  0.00    -0.029 C  
HETATM    2  H   UNL     1      -8.975  16.684  69.648  1.00  0.00     0.000 HD 
HETATM    3  O   UNL     1      -8.302  16.079  69.355  1.00  0.00    -0.241 OA 
ENDROOT
BRANCH   1   4
HETATM    4  C   UNL     1     -10.184  14.778  68.367  1.00  0.00    -0.224 C  
BRANCH   4   5
HETATM    5  C   UNL     1     -11.505  14.766  69.198  1.00  0.00    -0.299 C  
HETATM    6  O   UNL     1     -12.612  15.266  68.434  1.00  0.00    -0.259 OA 
HETATM    7  H   UNL     1     -13.416  15.259  68.939  1.00  0.00     0.000 HD 
BRANCH   5   8
HETATM    8  C   UNL     1     -11.454  15.578  70.499  1.00  0.00    -0.347 C  
HETATM    9  C   UNL     1     -12.827  15.708  71.119  1.00  0.00    -0.480 C  
HETATM   10  O   UNL     1     -10.973  16.892  70.175  1.00  0.00    -0.401 OA 
HETATM   11  O   UNL     1     -13.266  14.901  71.936  1.00  0.00    -0.310 OA 
HETATM   12  H   UNL     1     -10.941  17.395  70.980  1.00  0.00     0.000 HD 
ENDBRANCH   5   8
ENDBRANCH   4   5
BRANCH   4  13
HETATM   13  O   UNL     1     -10.199  13.676  67.426  1.00  0.00    -0.238 OA 
BRANCH  13  14
HETATM   14  C   UNL     1     -11.368  12.843  67.490  1.00  0.00    -0.308 C  
HETATM   15  H   UNL     1      -9.713   9.610  69.152  1.00  0.00     0.000 HD 
HETATM   16  O   UNL     1     -10.652  11.814  69.640  1.00  0.00    -0.436 OA 
HETATM   17  C   UNL     1     -11.067  11.563  68.288  1.00  0.00    -0.239 C  
HETATM   18  O   UNL     1     -11.863  12.456  66.217  1.00  0.00    -0.473 OA 
HETATM   19  O   UNL     1      -9.883   9.472  68.227  1.00  0.00    -0.148 OA 
HETATM   20  C   UNL     1     -10.916  11.748  65.412  1.00  0.00    -0.297 C  
HETATM   21  H   UNL     1     -10.466  11.023  70.132  1.00  0.00     0.000 HD 
HETATM   22  C   UNL     1      -9.977  10.762  67.589  1.00  0.00    -0.173 C  
HETATM   23  C   UNL     1     -10.252  10.538  66.093  1.00  0.00    -0.236 C  
BRANCH  20  24
HETATM   24  C   UNL     1     -11.631  11.358  64.098  1.00  0.00    -0.030 C  
HETATM   25  O   UNL     1     -10.758  11.253  62.972  1.00  0.00    -0.733 OA 
HETATM   26  H   UNL     1     -11.198  11.013  62.164  1.00  0.00     0.000 HD 
ENDBRANCH  20  24
BRANCH  23  27
HETATM   27  O   UNL     1      -9.012  10.299  65.369  1.00  0.00    -0.159 OA 
BRANCH  27  28
HETATM   28  C   UNL     1      -7.983   9.716  66.179  1.00  0.00    -0.108 C  
HETATM   29  O   UNL     1      -8.287   8.361  66.475  1.00  0.00    -0.106 OA 
HETATM   30  C   UNL     1      -8.393   7.558  65.297  1.00  0.00    -0.106 C  
HETATM   31  C   UNL     1      -7.012   7.483  64.597  1.00  0.00    -0.052 C  
HETATM   32  C   UNL     1      -8.957   6.217  65.760  1.00  0.00    -0.099 C  
HETATM   33  C   UNL     1      -6.539   8.923  64.257  1.00  0.00    -0.078 C  
HETATM   34  H   UNL     1      -4.878   9.798  63.616  1.00  0.00     0.000 HD 
HETATM   35  C   UNL     1      -6.618   9.834  65.484  1.00  0.00    -0.085 C  
HETATM   36  O   UNL     1      -5.167   8.917  63.824  1.00  0.00    -0.059 OA 
HETATM   37  O   UNL     1      -6.326  11.193  65.110  1.00  0.00    -0.336 OA 
HETATM   38  H   UNL     1      -5.482  11.266  64.681  1.00  0.00     0.000 HD 
BRANCH  31  39
HETATM   39  N   UNL     1      -7.091   6.577  63.425  1.00  0.00    -0.051 NA 
HETATM   40  H   UNL     1      -7.750   6.736  62.663  1.00  0.00     0.000 HD 
BRANCH  39  41
HETATM   41  C   UNL     1      -6.149   5.420  63.427  1.00  0.00    -0.021 C  
HETATM   42  C   UNL     1      -5.687   4.184  65.588  1.00  0.00    -0.022 C  
HETATM   43  C   UNL     1      -5.555   5.246  64.792  1.00  0.00    -0.017 C  
HETATM   44  C   UNL     1      -6.399   2.942  65.126  1.00  0.00    -0.027 C  
HETATM   45  H   UNL     1      -8.842   3.696  62.617  1.00  0.00     0.000 HD 
HETATM   46  O   UNL     1      -8.361   4.449  62.940  1.00  0.00    -0.083 OA 
HETATM   47  C   UNL     1      -6.663   2.843  63.601  1.00  0.00    -0.032 C  
HETATM   48  O   UNL     1      -7.619   2.844  65.856  1.00  0.00    -0.071 OA 
HETATM   49  H   UNL     1      -5.719   2.137  62.017  1.00  0.00     0.000 HD 
HETATM   50  O   UNL     1      -5.557   2.197  62.951  1.00  0.00    -0.007 OA 
HETATM   51  C   UNL     1      -6.941   4.179  62.897  1.00  0.00    -0.039 C  
HETATM   52  H   UNL     1      -8.070   2.060  65.563  1.00  0.00     0.000 HD 
BRANCH  42  53
HETATM   53  C   UNL     1      -5.158   4.138  67.004  1.00  0.00    -0.008 C  
HETATM   54  O   UNL     1      -5.182   5.417  67.630  1.00  0.00    -0.004 OA 
HETATM   55  H   UNL     1      -4.850   5.389  68.520  1.00  0.00     0.000 HD 
ENDBRANCH  42  53
ENDBRANCH  39  41
ENDBRANCH  31  39
ENDBRANCH  27  28
ENDBRANCH  23  27
ENDBRANCH  13  14
ENDBRANCH   4  13
ENDBRANCH   1   4
BRANCH   1  56
HETATM   56  C   UNL     1      -7.827  13.812  68.792  1.00  0.00    -0.059 C  
HETATM   57  O   UNL     1      -6.903  13.592  69.861  1.00  0.00    -0.346 OA 
HETATM   58  H   UNL     1      -6.231  12.988  69.568  1.00  0.00     0.000 HD 
ENDBRANCH   1  56
TORSDOF 12
ENDMDL
MODEL      208
REMARK 921   NORMALIZED FREE ENERGY PREDICTED BY IDOCK:   -2.95 KCAL/MOL
REMARK 922        TOTAL FREE ENERGY PREDICTED BY IDOCK:   -8.21 KCAL/MOL
REMARK 923 INTER-LIGAND FREE ENERGY PREDICTED BY IDOCK:   -9.49 KCAL/MOL
REMARK 924 INTRA-LIGAND FREE ENERGY PREDICTED BY IDOCK:    1.28 KCAL/MOL
REMARK 927      BINDING AFFINITY PREDICTED BY RF-SCORE:    0.00 PKD
ROOT
HETATM    1  C   UNL     1      -8.808   4.972  70.124  1.00  0.00    -0.110 C  
HETATM    2  H   UNL     1     -10.461   5.127  69.123  1.00  0.00     0.000 HD 
HETATM    3  O   UNL     1      -9.992   4.414  69.541  1.00  0.00    -0.211 OA 
ENDROOT
BRANCH   1   4
HETATM    4  C   UNL     1      -9.111   6.162  71.083  1.00  0.00    -0.146 C  
BRANCH   4   5
HETATM    5  C   UNL     1     -10.585   6.159  71.597  1.00  0.00    -0.230 C  
HETATM    6  O   UNL     1     -11.145   4.837  71.580  1.00  0.00     0.146 OA 
HETATM    7  H   UNL     1     -12.042   4.835  71.893  1.00  0.00     0.000 HD 
BRANCH   5   8
HETATM    8  C   UNL     1     -11.542   7.063  70.811  1.00  0.00    -0.338 C  
HETATM    9  C   UNL     1     -12.897   7.140  71.478  1.00  0.00    -0.391 C  
HETATM   10  O   UNL     1     -11.709   6.491  69.504  1.00  0.00    -0.640 OA 
HETATM   11  O   UNL     1     -13.179   7.995  72.315  1.00  0.00    -0.221 OA 
HETATM   12  H   UNL     1     -12.302   7.051  69.017  1.00  0.00     0.000 HD 
ENDBRANCH   5   8
ENDBRANCH   4   5
BRANCH   4  13
HETATM   13  O   UNL     1      -8.813   7.449  70.489  1.00  0.00    -0.146 OA 
BRANCH  13  14
HETATM   14  C   UNL     1      -8.128   7.388  69.227  1.00  0.00    -0.123 C  
HETATM   15  H   UNL     1      -6.135  10.841  69.454  1.00  0.00     0.000 HD 
HETATM   16  O   UNL     1      -6.100   8.496  70.147  1.00  0.00    -0.033 OA 
HETATM   17  C   UNL     1      -7.103   8.530  69.120  1.00  0.00    -0.064 C  
HETATM   18  O   UNL     1      -8.993   7.473  68.104  1.00  0.00    -0.131 OA 
HETATM   19  O   UNL     1      -6.867  10.906  68.852  1.00  0.00    -0.063 OA 
HETATM   20  C   UNL     1      -9.787   8.663  68.067  1.00  0.00    -0.169 C  
HETATM   21  H   UNL     1      -5.467   9.202  70.082  1.00  0.00     0.000 HD 
HETATM   22  C   UNL     1      -7.817   9.873  69.184  1.00  0.00    -0.105 C  
HETATM   23  C   UNL     1      -9.001   9.979  68.211  1.00  0.00    -0.119 C  
BRANCH  20  24
HETATM   24  C   UNL     1     -10.619   8.620  66.765  1.00  0.00    -0.153 C  
HETATM   25  O   UNL     1      -9.899   9.033  65.602  1.00  0.00    -0.461 OA 
HETATM   26  H   UNL     1     -10.411   9.006  64.802  1.00  0.00     0.000 HD 
ENDBRANCH  20  24
BRANCH  23  27
HETATM   27  O   UNL     1      -9.961  10.973  68.669  1.00  0.00    -0.185 OA 
BRANCH  27  28
HETATM   28  C   UNL     1     -10.470  11.801  67.617  1.00  0.00    -0.197 C  
HETATM   29  O   UNL     1     -11.509  12.639  68.099  1.00  0.00    -0.269 OA 
HETATM   30  C   UNL     1     -11.063  13.515  69.137  1.00  0.00    -0.225 C  
HETATM   31  C   UNL     1     -10.022  14.509  68.562  1.00  0.00    -0.238 C  
HETATM   32  C   UNL     1     -12.325  14.159  69.707  1.00  0.00    -0.350 C  
HETATM   33  C   UNL     1      -8.839  13.707  67.954  1.00  0.00    -0.188 C  
HETATM   34  H   UNL     1      -7.246  14.083  66.834  1.00  0.00     0.000 HD 
HETATM   35  C   UNL     1      -9.340  12.631  66.988  1.00  0.00    -0.220 C  
HETATM   36  O   UNL     1      -7.969  14.574  67.205  1.00  0.00    -0.193 OA 
HETATM   37  O   UNL     1      -8.244  11.803  66.561  1.00  0.00    -0.286 OA 
HETATM   38  H   UNL     1      -7.546  12.316  66.172  1.00  0.00     0.000 HD 
BRANCH  31  39
HETATM   39  N   UNL     1      -9.622  15.481  69.610  1.00  0.00    -0.308 NA 
HETATM   40  H   UNL     1      -9.420  15.190  70.567  1.00  0.00     0.000 HD 
BRANCH  39  41
HETATM   41  C   UNL     1      -9.534  16.907  69.181  1.00  0.00    -0.135 C  
HETATM   42  C   UNL     1      -7.706  17.625  67.583  1.00  0.00    -0.211 C  
HETATM   43  C   UNL     1      -8.126  17.237  68.788  1.00  0.00    -0.242 C  
HETATM   44  C   UNL     1      -8.676  17.884  66.461  1.00  0.00    -0.256 C  
HETATM   45  H   UNL     1     -11.671  15.960  66.854  1.00  0.00     0.000 HD 
HETATM   46  O   UNL     1     -11.027  15.833  67.541  1.00  0.00    -0.318 OA 
HETATM   47  C   UNL     1     -10.166  18.004  66.872  1.00  0.00    -0.362 C  
HETATM   48  O   UNL     1      -8.501  16.856  65.490  1.00  0.00    -0.256 OA 
HETATM   49  H   UNL     1     -11.396  19.443  67.434  1.00  0.00     0.000 HD 
HETATM   50  O   UNL     1     -10.482  19.370  67.182  1.00  0.00    -0.405 OA 
HETATM   51  C   UNL     1     -10.594  17.116  68.049  1.00  0.00    -0.374 C  
HETATM   52  H   UNL     1      -9.114  17.020  64.782  1.00  0.00     0.000 HD 
BRANCH  42  53
HETATM   53  C   UNL     1      -6.247  17.818  67.236  1.00  0.00    -0.151 C  
HETATM   54  O   UNL     1      -5.627  16.606  66.817  1.00  0.00    -0.305 OA 
HETATM   55  H   UNL     1      -4.710  16.727  66.599  1.00  0.00     0.000 HD 
ENDBRANCH  42  53
ENDBRANCH  39  41
ENDBRANCH  31  39
ENDBRANCH  27  28
ENDBRANCH  23  27
ENDBRANCH  13  14
ENDBRANCH   4  13
ENDBRANCH   1   4
BRANCH   1  56
HETATM   56  C   UNL     1      -8.054   3.823  70.798  1.00  0.00    -0.061 C  
HETATM   57  O   UNL     1      -8.592   2.582  70.336  1.00  0.00    -0.049 OA 
HETATM   58  H   UNL     1      -8.124   1.868  70.754  1.00  0.00     0.000 HD 
ENDBRANCH   1  56
TORSDOF 12
ENDMDL
MODEL      209
REMARK 921   NORMALIZED FREE ENERGY PREDICTED BY IDOCK:   -2.87 KCAL/MOL
REMARK 922        TOTAL FREE ENERGY PREDICTED BY IDOCK:   -8.08 KCAL/MOL
REMARK 923 INTER-LIGAND FREE ENERGY PREDICTED BY IDOCK:   -9.49 KCAL/MOL
REMARK 924 INTRA-LIGAND FREE ENERGY PREDICTED BY IDOCK:    1.41 KCAL/MOL
REMARK 927      BINDING AFFINITY PREDICTED BY RF-SCORE:    0.00 PKD
ROOT
HETATM    1  C   UNL     1      -9.231   3.718  71.133  1.00  0.00    -0.131 C  
HETATM    2  H   UNL     1      -8.610   4.071  72.935  1.00  0.00     0.000 HD 
HETATM    3  O   UNL     1      -8.260   3.609  72.182  1.00  0.00    -0.070 OA 
ENDROOT
BRANCH   1   4
HETATM    4  C   UNL     1      -9.626   5.194  70.828  1.00  0.00    -0.179 C  
BRANCH   4   5
HETATM    5  C   UNL     1     -11.140   5.352  70.479  1.00  0.00     0.115 C  
HETATM    6  O   UNL     1     -11.323   5.874  69.155  1.00  0.00    -0.298 OA 
HETATM    7  H   UNL     1     -12.244   5.970  68.943  1.00  0.00     0.000 HD 
BRANCH   5   8
HETATM    8  C   UNL     1     -11.929   6.258  71.433  1.00  0.00    -0.145 C  
HETATM    9  C   UNL     1     -11.382   7.669  71.428  1.00  0.00    -0.258 C  
HETATM   10  O   UNL     1     -11.793   5.721  72.758  1.00  0.00    -0.504 OA 
HETATM   11  O   UNL     1     -11.795   8.538  70.663  1.00  0.00    -0.227 OA 
HETATM   12  H   UNL     1     -12.282   6.282  73.349  1.00  0.00     0.000 HD 
ENDBRANCH   5   8
ENDBRANCH   4   5
BRANCH   4  13
HETATM   13  O   UNL     1      -8.827   5.779  69.770  1.00  0.00    -0.124 OA 
BRANCH  13  14
HETATM   14  C   UNL     1      -7.518   6.216  70.173  1.00  0.00    -0.094 C  
HETATM   15  H   UNL     1      -8.536   9.676  71.886  1.00  0.00     0.000 HD 
HETATM   16  O   UNL     1      -8.387   7.264  72.255  1.00  0.00    -0.104 OA 
HETATM   17  C   UNL     1      -7.622   7.470  71.057  1.00  0.00    -0.084 C  
HETATM   18  O   UNL     1      -6.659   6.520  69.084  1.00  0.00    -0.041 OA 
HETATM   19  O   UNL     1      -8.128   9.819  71.039  1.00  0.00    -0.213 OA 
HETATM   20  C   UNL     1      -7.162   7.534  68.208  1.00  0.00    -0.093 C  
HETATM   21  H   UNL     1      -8.451   8.039  72.801  1.00  0.00     0.000 HD 
HETATM   22  C   UNL     1      -8.256   8.607  70.268  1.00  0.00    -0.119 C  
HETATM   23  C   UNL     1      -7.598   8.838  68.898  1.00  0.00    -0.091 C  
BRANCH  20  24
HETATM   24  C   UNL     1      -6.088   7.778  67.123  1.00  0.00    -0.052 C  
HETATM   25  O   UNL     1      -6.552   7.568  65.789  1.00  0.00    -0.044 OA 
HETATM   26  H   UNL     1      -5.892   7.718  65.123  1.00  0.00     0.000 HD 
ENDBRANCH  20  24
BRANCH  23  27
HETATM   27  O   UNL     1      -8.524   9.488  67.982  1.00  0.00    -0.118 OA 
BRANCH  27  28
HETATM   28  C   UNL     1      -7.940  10.582  67.264  1.00  0.00    -0.114 C  
HETATM   29  O   UNL     1      -8.478  10.663  65.953  1.00  0.00    -0.157 OA 
HETATM   30  C   UNL     1      -9.891  10.877  65.958  1.00  0.00    -0.233 C  
HETATM   31  C   UNL     1     -10.201  12.266  66.572  1.00  0.00    -0.214 C  
HETATM   32  C   UNL     1     -10.343  10.694  64.511  1.00  0.00    -0.352 C  
HETATM   33  C   UNL     1      -9.618  12.326  68.010  1.00  0.00    -0.206 C  
HETATM   34  H   UNL     1      -9.317  13.703  69.405  1.00  0.00     0.000 HD 
HETATM   35  C   UNL     1      -8.148  11.900  68.026  1.00  0.00    -0.151 C  
HETATM   36  O   UNL     1      -9.675  13.667  68.526  1.00  0.00    -0.227 OA 
HETATM   37  O   UNL     1      -7.675  11.813  69.382  1.00  0.00    -0.344 OA 
HETATM   38  H   UNL     1      -7.803  12.627  69.854  1.00  0.00     0.000 HD 
BRANCH  31  39
HETATM   39  N   UNL     1     -11.659  12.535  66.496  1.00  0.00    -0.369 NA 
HETATM   40  H   UNL     1     -12.352  11.814  66.696  1.00  0.00     0.000 HD 
BRANCH  39  41
HETATM   41  C   UNL     1     -12.050  13.923  66.111  1.00  0.00    -0.448 C  
HETATM   42  C   UNL     1     -11.111  15.892  67.395  1.00  0.00    -0.207 C  
HETATM   43  C   UNL     1     -11.920  14.837  67.291  1.00  0.00    -0.236 C  
HETATM   44  C   UNL     1     -10.275  16.357  66.234  1.00  0.00    -0.330 C  
HETATM   45  H   UNL     1      -9.527  13.657  64.002  1.00  0.00     0.000 HD 
HETATM   46  O   UNL     1     -10.057  13.414  64.752  1.00  0.00    -0.322 OA 
HETATM   47  C   UNL     1     -10.654  15.767  64.851  1.00  0.00    -0.284 C  
HETATM   48  O   UNL     1      -8.911  16.081  66.543  1.00  0.00    -0.235 OA 
HETATM   49  H   UNL     1     -11.864  16.241  63.364  1.00  0.00     0.000 HD 
HETATM   50  O   UNL     1     -11.632  16.603  64.211  1.00  0.00    -0.989 OA 
HETATM   51  C   UNL     1     -11.176  14.323  64.876  1.00  0.00    -0.379 C  
HETATM   52  H   UNL     1      -8.383  16.374  65.809  1.00  0.00     0.000 HD 
BRANCH  42  53
HETATM   53  C   UNL     1     -10.950  16.690  68.671  1.00  0.00    -0.328 C  
HETATM   54  O   UNL     1      -9.610  16.674  69.152  1.00  0.00    -0.259 OA 
HETATM   55  H   UNL     1      -9.509  17.175  69.953  1.00  0.00     0.000 HD 
ENDBRANCH  42  53
ENDBRANCH  39  41
ENDBRANCH  31  39
ENDBRANCH  27  28
ENDBRANCH  23  27
ENDBRANCH  13  14
ENDBRANCH   4  13
ENDBRANCH   1   4
BRANCH   1  56
HETATM   56  C   UNL     1      -8.668   2.975  69.919  1.00  0.00    -0.076 C  
HETATM   57  O   UNL     1      -9.573   3.124  68.823  1.00  0.00    -0.157 OA 
HETATM   58  H   UNL     1      -9.224   2.663  68.069  1.00  0.00     0.000 HD 
ENDBRANCH   1  56
TORSDOF 12
ENDMDL
MODEL      210
REMARK 921   NORMALIZED FREE ENERGY PREDICTED BY IDOCK:   -2.85 KCAL/MOL
REMARK 922        TOTAL FREE ENERGY PREDICTED BY IDOCK:   -8.05 KCAL/MOL
REMARK 923 INTER-LIGAND FREE ENERGY PREDICTED BY IDOCK:   -7.84 KCAL/MOL
REMARK 924 INTRA-LIGAND FREE ENERGY PREDICTED BY IDOCK:   -0.21 KCAL/MOL
REMARK 927      BINDING AFFINITY PREDICTED BY RF-SCORE:    0.00 PKD
ROOT
HETATM    1  C   UNL     1      -8.776   3.048  70.539  1.00  0.00    -0.072 C  
HETATM    2  H   UNL     1      -8.120   2.325  72.214  1.00  0.00     0.000 HD 
HETATM    3  O   UNL     1      -8.202   1.996  71.326  1.00  0.00    -0.046 OA 
ENDROOT
BRANCH   1   4
HETATM    4  C   UNL     1      -7.974   4.380  70.635  1.00  0.00    -0.060 C  
BRANCH   4   5
HETATM    5  C   UNL     1      -8.485   5.307  71.782  1.00  0.00    -0.126 C  
HETATM    6  O   UNL     1      -8.386   4.665  73.062  1.00  0.00    -0.099 OA 
HETATM    7  H   UNL     1      -8.697   5.230  73.760  1.00  0.00     0.000 HD 
BRANCH   5   8
HETATM    8  C   UNL     1      -9.936   5.780  71.628  1.00  0.00    -0.174 C  
HETATM    9  C   UNL     1     -10.895   4.850  72.338  1.00  0.00    -0.137 C  
HETATM   10  O   UNL     1     -10.251   5.777  70.226  1.00  0.00    -0.197 OA 
HETATM   11  O   UNL     1     -11.232   5.010  73.509  1.00  0.00    -0.321 OA 
HETATM   12  H   UNL     1     -11.149   6.070  70.131  1.00  0.00     0.000 HD 
ENDBRANCH   5   8
ENDBRANCH   4   5
BRANCH   4  13
HETATM   13  O   UNL     1      -7.965   5.118  69.389  1.00  0.00    -0.081 OA 
BRANCH  13  14
HETATM   14  C   UNL     1      -6.677   5.227  68.760  1.00  0.00    -0.050 C  
HETATM   15  H   UNL     1      -5.492   8.667  70.408  1.00  0.00     0.000 HD 
HETATM   16  O   UNL     1      -5.655   6.255  70.782  1.00  0.00    -0.017 OA 
HETATM   17  C   UNL     1      -5.883   6.394  69.371  1.00  0.00    -0.021 C  
HETATM   18  O   UNL     1      -6.743   5.433  67.356  1.00  0.00    -0.055 OA 
HETATM   19  O   UNL     1      -5.747   8.791  69.501  1.00  0.00    -0.033 OA 
HETATM   20  C   UNL     1      -7.472   6.601  66.970  1.00  0.00    -0.087 C  
HETATM   21  H   UNL     1      -5.165   6.977  71.159  1.00  0.00     0.000 HD 
HETATM   22  C   UNL     1      -6.619   7.705  69.126  1.00  0.00    -0.040 C  
HETATM   23  C   UNL     1      -7.033   7.905  67.660  1.00  0.00    -0.074 C  
BRANCH  20  24
HETATM   24  C   UNL     1      -7.397   6.702  65.429  1.00  0.00    -0.076 C  
HETATM   25  O   UNL     1      -8.627   6.400  64.768  1.00  0.00    -0.335 OA 
HETATM   26  H   UNL     1      -8.580   6.462  63.821  1.00  0.00     0.000 HD 
ENDBRANCH  20  24
BRANCH  23  27
HETATM   27  O   UNL     1      -8.164   8.815  67.561  1.00  0.00    -0.109 OA 
BRANCH  27  28
HETATM   28  C   UNL     1      -7.784  10.195  67.518  1.00  0.00    -0.091 C  
HETATM   29  O   UNL     1      -7.909  10.708  66.200  1.00  0.00    -0.142 OA 
HETATM   30  C   UNL     1      -9.251  10.633  65.713  1.00  0.00    -0.189 C  
HETATM   31  C   UNL     1     -10.161  11.559  66.559  1.00  0.00    -0.213 C  
HETATM   32  C   UNL     1      -9.174  10.982  64.229  1.00  0.00    -0.171 C  
HETATM   33  C   UNL     1     -10.077  11.128  68.049  1.00  0.00    -0.174 C  
HETATM   34  H   UNL     1     -10.663  11.836  69.807  1.00  0.00     0.000 HD 
HETATM   35  C   UNL     1      -8.622  11.017  68.510  1.00  0.00    -0.158 C  
HETATM   36  O   UNL     1     -10.714  12.100  68.896  1.00  0.00    -0.219 OA 
HETATM   37  O   UNL     1      -8.566  10.468  69.839  1.00  0.00    -0.377 OA 
HETATM   38  H   UNL     1      -9.083  10.975  70.452  1.00  0.00     0.000 HD 
BRANCH  31  39
HETATM   39  N   UNL     1     -11.536  11.558  66.003  1.00  0.00    -0.281 NA 
HETATM   40  H   UNL     1     -11.998  10.698  65.708  1.00  0.00     0.000 HD 
BRANCH  39  41
HETATM   41  C   UNL     1     -12.204  12.889  65.902  1.00  0.00    -0.407 C  
HETATM   42  C   UNL     1     -10.918  14.985  66.505  1.00  0.00    -0.327 C  
HETATM   43  C   UNL     1     -11.552  13.860  66.839  1.00  0.00    -0.400 C  
HETATM   44  C   UNL     1     -10.880  15.470  65.081  1.00  0.00    -0.436 C  
HETATM   45  H   UNL     1     -11.184  12.753  62.768  1.00  0.00     0.000 HD 
HETATM   46  O   UNL     1     -11.206  12.498  63.682  1.00  0.00    -0.423 OA 
HETATM   47  C   UNL     1     -11.880  14.791  64.110  1.00  0.00    -0.214 C  
HETATM   48  O   UNL     1      -9.543  15.327  64.609  1.00  0.00    -0.188 OA 
HETATM   49  H   UNL     1     -13.735  15.095  63.507  1.00  0.00     0.000 HD 
HETATM   50  O   UNL     1     -13.123  15.511  64.102  1.00  0.00    -0.199 OA 
HETATM   51  C   UNL     1     -12.167  13.310  64.395  1.00  0.00    -0.390 C  
HETATM   52  H   UNL     1      -9.519  15.633  63.710  1.00  0.00     0.000 HD 
BRANCH  42  53
HETATM   53  C   UNL     1     -10.179  15.847  67.504  1.00  0.00    -0.269 C  
HETATM   54  O   UNL     1     -10.309  15.362  68.836  1.00  0.00    -0.217 OA 
HETATM   55  H   UNL     1      -9.845  15.904  69.464  1.00  0.00     0.000 HD 
ENDBRANCH  42  53
ENDBRANCH  39  41
ENDBRANCH  31  39
ENDBRANCH  27  28
ENDBRANCH  23  27
ENDBRANCH  13  14
ENDBRANCH   4  13
ENDBRANCH   1   4
BRANCH   1  56
HETATM   56  C   UNL     1      -8.908   2.518  69.109  1.00  0.00    -0.097 C  
HETATM   57  O   UNL     1      -7.685   1.875  68.738  1.00  0.00    -0.046 OA 
HETATM   58  H   UNL     1      -7.766   1.546  67.851  1.00  0.00     0.000 HD 
ENDBRANCH   1  56
TORSDOF 12
ENDMDL
MODEL      211
REMARK 921   NORMALIZED FREE ENERGY PREDICTED BY IDOCK:   -2.85 KCAL/MOL
REMARK 922        TOTAL FREE ENERGY PREDICTED BY IDOCK:   -8.04 KCAL/MOL
REMARK 923 INTER-LIGAND FREE ENERGY PREDICTED BY IDOCK:   -9.02 KCAL/MOL
REMARK 924 INTRA-LIGAND FREE ENERGY PREDICTED BY IDOCK:    0.98 KCAL/MOL
REMARK 927      BINDING AFFINITY PREDICTED BY RF-SCORE:    0.00 PKD
ROOT
HETATM    1  C   UNL     1     -11.026  15.001  68.701  1.00  0.00    -0.257 C  
HETATM    2  H   UNL     1     -12.531  14.505  67.584  1.00  0.00     0.000 HD 
HETATM    3  O   UNL     1     -12.152  15.326  67.875  1.00  0.00    -0.133 OA 
ENDROOT
BRANCH   1   4
HETATM    4  C   UNL     1     -10.005  14.066  67.987  1.00  0.00    -0.235 C  
BRANCH   4   5
HETATM    5  C   UNL     1     -10.031  14.222  66.434  1.00  0.00    -0.292 C  
HETATM    6  O   UNL     1      -8.761  14.659  65.927  1.00  0.00    -0.316 OA 
HETATM    7  H   UNL     1      -8.777  14.754  64.982  1.00  0.00     0.000 HD 
BRANCH   5   8
HETATM    8  C   UNL     1     -11.087  15.200  65.903  1.00  0.00    -0.319 C  
HETATM    9  C   UNL     1     -11.797  14.639  64.692  1.00  0.00    -0.452 C  
HETATM   10  O   UNL     1     -10.410  16.407  65.517  1.00  0.00    -0.472 OA 
HETATM   11  O   UNL     1     -12.824  13.968  64.774  1.00  0.00    -0.681 OA 
HETATM   12  H   UNL     1     -11.064  17.013  65.189  1.00  0.00     0.000 HD 
ENDBRANCH   5   8
ENDBRANCH   4   5
BRANCH   4  13
HETATM   13  O   UNL     1     -10.188  12.671  68.332  1.00  0.00    -0.230 OA 
BRANCH  13  14
HETATM   14  C   UNL     1     -11.300  12.029  67.686  1.00  0.00    -0.307 C  
HETATM   15  H   UNL     1     -11.537   8.773  69.986  1.00  0.00     0.000 HD 
HETATM   16  O   UNL     1     -12.172  11.130  69.836  1.00  0.00    -0.314 OA 
HETATM   17  C   UNL     1     -11.756  10.806  68.499  1.00  0.00    -0.189 C  
HETATM   18  O   UNL     1     -11.018  11.593  66.364  1.00  0.00    -0.278 OA 
HETATM   19  O   UNL     1     -11.157   8.569  69.140  1.00  0.00    -0.002 OA 
HETATM   20  C   UNL     1      -9.924  10.675  66.273  1.00  0.00    -0.222 C  
HETATM   21  H   UNL     1     -12.453  10.374  70.339  1.00  0.00     0.000 HD 
HETATM   22  C   UNL     1     -10.628   9.787  68.577  1.00  0.00    -0.221 C  
HETATM   23  C   UNL     1     -10.012   9.456  67.208  1.00  0.00    -0.196 C  
BRANCH  20  24
HETATM   24  C   UNL     1      -9.793  10.264  64.788  1.00  0.00    -0.334 C  
HETATM   25  O   UNL     1      -8.515   9.724  64.447  1.00  0.00    -0.152 OA 
HETATM   26  H   UNL     1      -8.435   9.471  63.535  1.00  0.00     0.000 HD 
ENDBRANCH  20  24
BRANCH  23  27
HETATM   27  O   UNL     1      -8.650   8.965  67.358  1.00  0.00    -0.118 OA 
BRANCH  27  28
HETATM   28  C   UNL     1      -8.347   7.858  66.501  1.00  0.00    -0.127 C  
HETATM   29  O   UNL     1      -7.045   7.359  66.770  1.00  0.00    -0.074 OA 
HETATM   30  C   UNL     1      -6.910   6.892  68.115  1.00  0.00    -0.074 C  
HETATM   31  C   UNL     1      -7.830   5.662  68.329  1.00  0.00    -0.096 C  
HETATM   32  C   UNL     1      -5.420   6.627  68.313  1.00  0.00    -0.012 C  
HETATM   33  C   UNL     1      -9.297   6.067  68.019  1.00  0.00    -0.114 C  
HETATM   34  H   UNL     1     -11.042   5.155  67.785  1.00  0.00     0.000 HD 
HETATM   35  C   UNL     1      -9.403   6.752  66.654  1.00  0.00    -0.165 C  
HETATM   36  O   UNL     1     -10.146   4.907  67.976  1.00  0.00    -0.140 OA 
HETATM   37  O   UNL     1     -10.736   7.256  66.456  1.00  0.00    -0.493 OA 
HETATM   38  H   UNL     1     -11.388   6.572  66.551  1.00  0.00     0.000 HD 
BRANCH  31  39
HETATM   39  N   UNL     1      -7.627   5.115  69.693  1.00  0.00    -0.061 NA 
HETATM   40  H   UNL     1      -6.861   4.477  69.911  1.00  0.00     0.000 HD 
BRANCH  39  41
HETATM   41  C   UNL     1      -8.610   5.553  70.728  1.00  0.00    -0.126 C  
HETATM   42  C   UNL     1      -9.286   3.954  72.571  1.00  0.00    -0.149 C  
HETATM   43  C   UNL     1      -9.314   4.361  71.301  1.00  0.00    -0.210 C  
HETATM   44  C   UNL     1      -8.586   4.755  73.635  1.00  0.00    -0.104 C  
HETATM   45  H   UNL     1      -5.929   6.720  72.255  1.00  0.00     0.000 HD 
HETATM   46  O   UNL     1      -6.404   6.197  71.620  1.00  0.00    -0.043 OA 
HETATM   47  C   UNL     1      -8.208   6.208  73.247  1.00  0.00    -0.113 C  
HETATM   48  O   UNL     1      -7.432   4.025  74.040  1.00  0.00    -0.068 OA 
HETATM   49  H   UNL     1      -9.052   7.991  73.338  1.00  0.00     0.000 HD 
HETATM   50  O   UNL     1      -9.284   7.101  73.576  1.00  0.00    -0.149 OA 
HETATM   51  C   UNL     1      -7.826   6.414  71.774  1.00  0.00    -0.101 C  
HETATM   52  H   UNL     1      -6.990   4.531  74.712  1.00  0.00     0.000 HD 
BRANCH  42  53
HETATM   53  C   UNL     1      -9.925   2.667  73.043  1.00  0.00    -0.120 C  
HETATM   54  O   UNL     1     -10.398   2.759  74.383  1.00  0.00    -0.137 OA 
HETATM   55  H   UNL     1     -10.799   1.951  74.680  1.00  0.00     0.000 HD 
ENDBRANCH  42  53
ENDBRANCH  39  41
ENDBRANCH  31  39
ENDBRANCH  27  28
ENDBRANCH  23  27
ENDBRANCH  13  14
ENDBRANCH   4  13
ENDBRANCH   1   4
BRANCH   1  56
HETATM   56  C   UNL     1     -10.416  16.324  69.170  1.00  0.00    -0.280 C  
HETATM   57  O   UNL     1     -10.500  17.276  68.106  1.00  0.00    -0.345 OA 
HETATM   58  H   UNL     1     -10.121  18.097  68.397  1.00  0.00     0.000 HD 
ENDBRANCH   1  56
TORSDOF 12
ENDMDL
MODEL      212
REMARK 921   NORMALIZED FREE ENERGY PREDICTED BY IDOCK:   -2.73 KCAL/MOL
REMARK 922        TOTAL FREE ENERGY PREDICTED BY IDOCK:   -7.84 KCAL/MOL
REMARK 923 INTER-LIGAND FREE ENERGY PREDICTED BY IDOCK:   -7.23 KCAL/MOL
REMARK 924 INTRA-LIGAND FREE ENERGY PREDICTED BY IDOCK:   -0.60 KCAL/MOL
REMARK 927      BINDING AFFINITY PREDICTED BY RF-SCORE:    0.00 PKD
ROOT
HETATM    1  C   UNL     1      -7.580   5.280  66.989  1.00  0.00    -0.092 C  
HETATM    2  H   UNL     1      -6.693   3.936  65.909  1.00  0.00     0.000 HD 
HETATM    3  O   UNL     1      -7.021   3.973  66.800  1.00  0.00    -0.057 OA 
ENDROOT
BRANCH   1   4
HETATM    4  C   UNL     1      -8.654   5.636  65.918  1.00  0.00    -0.144 C  
BRANCH   4   5
HETATM    5  C   UNL     1      -8.461   4.845  64.586  1.00  0.00    -0.143 C  
HETATM    6  O   UNL     1      -8.782   5.652  63.443  1.00  0.00    -0.333 OA 
HETATM    7  H   UNL     1      -8.665   5.170  62.633  1.00  0.00     0.000 HD 
BRANCH   5   8
HETATM    8  C   UNL     1      -9.290   3.559  64.476  1.00  0.00    -0.147 C  
HETATM    9  C   UNL     1     -10.488   3.753  63.574  1.00  0.00    -0.236 C  
HETATM   10  O   UNL     1      -9.759   3.227  65.793  1.00  0.00    -0.367 OA 
HETATM   11  O   UNL     1     -10.452   3.535  62.365  1.00  0.00    -0.149 OA 
HETATM   12  H   UNL     1     -10.272   2.431  65.725  1.00  0.00     0.000 HD 
ENDBRANCH   5   8
ENDBRANCH   4   5
BRANCH   4  13
HETATM   13  O   UNL     1      -8.706   7.055  65.629  1.00  0.00    -0.140 OA 
BRANCH  13  14
HETATM   14  C   UNL     1      -7.801   7.497  64.604  1.00  0.00    -0.130 C  
HETATM   15  H   UNL     1      -5.415   9.780  66.851  1.00  0.00     0.000 HD 
HETATM   16  O   UNL     1      -5.858   7.477  66.158  1.00  0.00    -0.035 OA 
HETATM   17  C   UNL     1      -6.622   8.262  65.228  1.00  0.00    -0.052 C  
HETATM   18  O   UNL     1      -8.405   8.343  63.636  1.00  0.00    -0.139 OA 
HETATM   19  O   UNL     1      -5.996  10.311  66.318  1.00  0.00    -0.061 OA 
HETATM   20  C   UNL     1      -8.995   9.527  64.181  1.00  0.00    -0.198 C  
HETATM   21  H   UNL     1      -5.129   7.950  66.543  1.00  0.00     0.000 HD 
HETATM   22  C   UNL     1      -7.132   9.503  65.948  1.00  0.00    -0.096 C  
HETATM   23  C   UNL     1      -8.072  10.361  65.087  1.00  0.00    -0.145 C  
BRANCH  20  24
HETATM   24  C   UNL     1      -9.550  10.350  62.996  1.00  0.00    -0.302 C  
HETATM   25  O   UNL     1     -10.695  11.140  63.324  1.00  0.00    -0.677 OA 
HETATM   26  H   UNL     1     -11.035  11.646  62.595  1.00  0.00     0.000 HD 
ENDBRANCH  20  24
BRANCH  23  27
HETATM   27  O   UNL     1      -8.950  11.166  65.924  1.00  0.00    -0.194 OA 
BRANCH  27  28
HETATM   28  C   UNL     1      -8.806  12.575  65.710  1.00  0.00     0.495 C  
HETATM   29  O   UNL     1     -10.059  13.163  65.393  1.00  0.00    -0.289 OA 
HETATM   30  C   UNL     1     -11.017  12.999  66.441  1.00  0.00    -0.281 C  
HETATM   31  C   UNL     1     -10.549  13.778  67.696  1.00  0.00    -0.242 C  
HETATM   32  C   UNL     1     -12.352  13.454  65.857  1.00  0.00    -0.493 C  
HETATM   33  C   UNL     1      -9.151  13.256  68.124  1.00  0.00    -0.207 C  
HETATM   34  H   UNL     1      -7.723  13.785  69.395  1.00  0.00     0.000 HD 
HETATM   35  C   UNL     1      -8.179  13.247  66.941  1.00  0.00     0.047 C  
HETATM   36  O   UNL     1      -8.579  14.105  69.134  1.00  0.00     0.036 OA 
HETATM   37  O   UNL     1      -6.944  12.616  67.322  1.00  0.00    -0.229 OA 
HETATM   38  H   UNL     1      -6.556  13.031  68.083  1.00  0.00     0.000 HD 
BRANCH  31  39
HETATM   39  N   UNL     1     -11.582  13.689  68.757  1.00  0.00    -0.299 NA 
HETATM   40  H   UNL     1     -11.820  14.485  69.348  1.00  0.00     0.000 HD 
BRANCH  39  41
HETATM   41  C   UNL     1     -12.253  12.364  68.909  1.00  0.00     0.043 C  
HETATM   42  C   UNL     1     -10.859  10.251  68.946  1.00  0.00    -0.263 C  
HETATM   43  C   UNL     1     -11.401  11.288  68.307  1.00  0.00    -0.359 C  
HETATM   44  C   UNL     1     -11.149   9.987  70.399  1.00  0.00    -0.327 C  
HETATM   45  H   UNL     1     -11.983  13.007  72.133  1.00  0.00     0.000 HD 
HETATM   46  O   UNL     1     -11.794  13.121  71.209  1.00  0.00     0.234 OA 
HETATM   47  C   UNL     1     -12.347  10.766  71.000  1.00  0.00    -0.404 C  
HETATM   48  O   UNL     1      -9.957  10.249  71.135  1.00  0.00     0.117 OA 
HETATM   49  H   UNL     1     -14.291  10.487  71.205  1.00  0.00     0.000 HD 
HETATM   50  O   UNL     1     -13.557  10.009  70.836  1.00  0.00    -0.297 OA 
HETATM   51  C   UNL     1     -12.563  12.176  70.431  1.00  0.00    -0.032 C  
HETATM   52  H   UNL     1     -10.141  10.083  72.052  1.00  0.00     0.000 HD 
BRANCH  42  53
HETATM   53  C   UNL     1      -9.907   9.276  68.288  1.00  0.00    -0.158 C  
HETATM   54  O   UNL     1     -10.412   8.781  67.052  1.00  0.00    -0.283 OA 
HETATM   55  H   UNL     1      -9.815   8.168  66.639  1.00  0.00     0.000 HD 
ENDBRANCH  42  53
ENDBRANCH  39  41
ENDBRANCH  31  39
ENDBRANCH  27  28
ENDBRANCH  23  27
ENDBRANCH  13  14
ENDBRANCH   4  13
ENDBRANCH   1   4
BRANCH   1  56
HETATM   56  C   UNL     1      -8.108   5.340  68.424  1.00  0.00    -0.091 C  
HETATM   57  O   UNL     1      -9.203   4.430  68.553  1.00  0.00    -0.117 OA 
HETATM   58  H   UNL     1      -9.531   4.467  69.444  1.00  0.00     0.000 HD 
ENDBRANCH   1  56
TORSDOF 12
ENDMDL
MODEL      213
REMARK 921   NORMALIZED FREE ENERGY PREDICTED BY IDOCK:   -2.67 KCAL/MOL
REMARK 922        TOTAL FREE ENERGY PREDICTED BY IDOCK:   -7.73 KCAL/MOL
REMARK 923 INTER-LIGAND FREE ENERGY PREDICTED BY IDOCK:  -10.16 KCAL/MOL
REMARK 924 INTRA-LIGAND FREE ENERGY PREDICTED BY IDOCK:    2.42 KCAL/MOL
REMARK 927      BINDING AFFINITY PREDICTED BY RF-SCORE:    0.00 PKD
ROOT
HETATM    1  C   UNL     1     -10.144   6.432  66.047  1.00  0.00     0.349 C  
HETATM    2  H   UNL     1     -11.764   6.294  67.103  1.00  0.00     0.000 HD 
HETATM    3  O   UNL     1     -11.068   5.695  66.858  1.00  0.00    -0.169 OA 
ENDROOT
BRANCH   1   4
HETATM    4  C   UNL     1      -9.630   7.727  66.743  1.00  0.00    -0.212 C  
BRANCH   4   5
HETATM    5  C   UNL     1      -9.852   7.707  68.288  1.00  0.00    -0.166 C  
HETATM    6  O   UNL     1     -10.794   8.710  68.698  1.00  0.00    -0.421 OA 
HETATM    7  H   UNL     1     -10.929   8.698  69.638  1.00  0.00     0.000 HD 
BRANCH   5   8
HETATM    8  C   UNL     1      -8.582   7.916  69.123  1.00  0.00    -0.138 C  
HETATM    9  C   UNL     1      -8.482   9.340  69.624  1.00  0.00    -0.140 C  
HETATM   10  O   UNL     1      -7.453   7.650  68.276  1.00  0.00    -0.099 OA 
HETATM   11  O   UNL     1      -8.947   9.699  70.703  1.00  0.00    -0.209 OA 
HETATM   12  H   UNL     1      -6.666   7.779  68.793  1.00  0.00     0.000 HD 
ENDBRANCH   5   8
ENDBRANCH   4   5
BRANCH   4  13
HETATM   13  O   UNL     1     -10.218   8.930  66.190  1.00  0.00    -0.259 OA 
BRANCH  13  14
HETATM   14  C   UNL     1      -9.504   9.495  65.078  1.00  0.00    -0.204 C  
HETATM   15  H   UNL     1      -7.104  11.969  67.095  1.00  0.00     0.000 HD 
HETATM   16  O   UNL     1      -7.386   9.650  66.373  1.00  0.00    -0.092 OA 
HETATM   17  C   UNL     1      -8.342  10.369  65.578  1.00  0.00    -0.168 C  
HETATM   18  O   UNL     1     -10.313  10.293  64.226  1.00  0.00    -0.198 OA 
HETATM   19  O   UNL     1      -7.802  12.446  66.660  1.00  0.00     0.015 OA 
HETATM   20  C   UNL     1     -10.951  11.391  64.887  1.00  0.00    -0.216 C  
HETATM   21  H   UNL     1      -6.668  10.190  66.683  1.00  0.00     0.000 HD 
HETATM   22  C   UNL     1      -8.884  11.527  66.404  1.00  0.00    -0.193 C  
HETATM   23  C   UNL     1     -10.013  12.298  65.702  1.00  0.00    -0.251 C  
BRANCH  20  24
HETATM   24  C   UNL     1     -11.738  12.177  63.813  1.00  0.00    -0.485 C  
HETATM   25  O   UNL     1     -12.477  11.350  62.913  1.00  0.00    -0.949 OA 
HETATM   26  H   UNL     1     -12.960  11.834  62.253  1.00  0.00     0.000 HD 
ENDBRANCH  20  24
BRANCH  23  27
HETATM   27  O   UNL     1     -10.856  12.980  66.672  1.00  0.00    -0.271 OA 
BRANCH  27  28
HETATM   28  C   UNL     1     -11.451  14.181  66.166  1.00  0.00    -0.347 C  
HETATM   29  O   UNL     1     -12.092  14.900  67.208  1.00  0.00    -0.246 OA 
HETATM   30  C   UNL     1     -11.182  15.291  68.239  1.00  0.00    -0.314 C  
HETATM   31  C   UNL     1     -10.158  16.304  67.666  1.00  0.00    -0.260 C  
HETATM   32  C   UNL     1     -12.048  15.822  69.378  1.00  0.00    -0.245 C  
HETATM   33  C   UNL     1      -9.411  15.649  66.472  1.00  0.00    -0.276 C  
HETATM   34  H   UNL     1      -8.170  16.224  65.037  1.00  0.00     0.000 HD 
HETATM   35  C   UNL     1     -10.397  15.052  65.465  1.00  0.00    -0.373 C  
HETATM   36  O   UNL     1      -8.626  16.626  65.766  1.00  0.00    -0.464 OA 
HETATM   37  O   UNL     1      -9.685  14.317  64.454  1.00  0.00    -0.483 OA 
HETATM   38  H   UNL     1      -9.033  14.855  64.020  1.00  0.00     0.000 HD 
BRANCH  31  39
HETATM   39  N   UNL     1      -9.267  16.786  68.750  1.00  0.00    -0.258 NA 
HETATM   40  H   UNL     1      -8.815  16.144  69.402  1.00  0.00     0.000 HD 
BRANCH  39  41
HETATM   41  C   UNL     1      -9.070  18.263  68.829  1.00  0.00    -0.227 C  
HETATM   42  C   UNL     1      -7.639  19.432  67.098  1.00  0.00    -0.258 C  
HETATM   43  C   UNL     1      -7.782  18.644  68.164  1.00  0.00    -0.302 C  
HETATM   44  C   UNL     1      -8.816  20.139  66.483  1.00  0.00    -0.282 C  
HETATM   45  H   UNL     1     -11.867  18.361  67.083  1.00  0.00     0.000 HD 
HETATM   46  O   UNL     1     -11.093  17.955  67.456  1.00  0.00    -0.198 OA 
HETATM   47  C   UNL     1     -10.107  20.172  67.341  1.00  0.00    -0.416 C  
HETATM   48  O   UNL     1      -9.069  19.540  65.215  1.00  0.00     0.148 OA 
HETATM   49  H   UNL     1     -10.902  21.358  68.706  1.00  0.00     0.000 HD 
HETATM   50  O   UNL     1     -10.111  21.338  68.180  1.00  0.00     0.332 OA 
HETATM   51  C   UNL     1     -10.345  18.932  68.215  1.00  0.00    -0.335 C  
HETATM   52  H   UNL     1      -9.813  19.987  64.827  1.00  0.00     0.000 HD 
BRANCH  42  53
HETATM   53  C   UNL     1      -6.311  19.666  66.412  1.00  0.00    -0.181 C  
HETATM   54  O   UNL     1      -6.371  19.398  65.015  1.00  0.00    -0.262 OA 
HETATM   55  H   UNL     1      -5.537  19.545  64.584  1.00  0.00     0.000 HD 
ENDBRANCH  42  53
ENDBRANCH  39  41
ENDBRANCH  31  39
ENDBRANCH  27  28
ENDBRANCH  23  27
ENDBRANCH  13  14
ENDBRANCH   4  13
ENDBRANCH   1   4
BRANCH   1  56
HETATM   56  C   UNL     1      -9.024   5.466  65.653  1.00  0.00    -0.156 C  
HETATM   57  O   UNL     1      -8.517   5.844  64.370  1.00  0.00    -0.278 OA 
HETATM   58  H   UNL     1      -7.821   5.244  64.125  1.00  0.00     0.000 HD 
ENDBRANCH   1  56
TORSDOF 12
ENDMDL
MODEL      214
REMARK 921   NORMALIZED FREE ENERGY PREDICTED BY IDOCK:   -2.63 KCAL/MOL
REMARK 922        TOTAL FREE ENERGY PREDICTED BY IDOCK:   -7.66 KCAL/MOL
REMARK 923 INTER-LIGAND FREE ENERGY PREDICTED BY IDOCK:   -6.93 KCAL/MOL
REMARK 924 INTRA-LIGAND FREE ENERGY PREDICTED BY IDOCK:   -0.72 KCAL/MOL
REMARK 927      BINDING AFFINITY PREDICTED BY RF-SCORE:    0.00 PKD
ROOT
HETATM    1  C   UNL     1      -9.168   4.324  72.631  1.00  0.00    -0.114 C  
HETATM    2  H   UNL     1      -8.135   4.409  74.268  1.00  0.00     0.000 HD 
HETATM    3  O   UNL     1      -8.823   3.844  73.936  1.00  0.00    -0.092 OA 
ENDROOT
BRANCH   1   4
HETATM    4  C   UNL     1      -7.938   4.427  71.680  1.00  0.00    -0.091 C  
BRANCH   4   5
HETATM    5  C   UNL     1      -6.626   4.812  72.435  1.00  0.00    -0.046 C  
HETATM    6  O   UNL     1      -6.191   3.756  73.306  1.00  0.00    -0.014 OA 
HETATM    7  H   UNL     1      -5.393   3.990  73.765  1.00  0.00     0.000 HD 
BRANCH   5   8
HETATM    8  C   UNL     1      -6.724   6.085  73.286  1.00  0.00    -0.075 C  
HETATM    9  C   UNL     1      -6.079   7.262  72.589  1.00  0.00    -0.043 C  
HETATM   10  O   UNL     1      -6.023   5.843  74.516  1.00  0.00    -0.057 OA 
HETATM   11  O   UNL     1      -6.701   8.015  71.843  1.00  0.00    -0.058 OA 
HETATM   12  H   UNL     1      -6.084   6.631  75.043  1.00  0.00     0.000 HD 
ENDBRANCH   5   8
ENDBRANCH   4   5
BRANCH   4  13
HETATM   13  O   UNL     1      -8.151   5.353  70.587  1.00  0.00    -0.104 OA 
BRANCH  13  14
HETATM   14  C   UNL     1      -7.785   4.852  69.291  1.00  0.00    -0.074 C  
HETATM   15  H   UNL     1      -5.621   7.963  68.031  1.00  0.00     0.000 HD 
HETATM   16  O   UNL     1      -5.544   5.928  69.385  1.00  0.00    -0.011 OA 
HETATM   17  C   UNL     1      -6.757   5.785  68.629  1.00  0.00    -0.060 C  
HETATM   18  O   UNL     1      -8.884   4.714  68.401  1.00  0.00    -0.100 OA 
HETATM   19  O   UNL     1      -6.470   7.940  67.604  1.00  0.00    -0.053 OA 
HETATM   20  C   UNL     1      -9.603   5.930  68.168  1.00  0.00    -0.120 C  
HETATM   21  H   UNL     1      -4.909   6.505  68.977  1.00  0.00     0.000 HD 
HETATM   22  C   UNL     1      -7.367   7.166  68.426  1.00  0.00    -0.100 C  
HETATM   23  C   UNL     1      -8.739   7.128  67.736  1.00  0.00    -0.125 C  
BRANCH  20  24
HETATM   24  C   UNL     1     -10.718   5.614  67.145  1.00  0.00    -0.232 C  
HETATM   25  O   UNL     1     -10.317   5.773  65.783  1.00  0.00    -0.399 OA 
HETATM   26  H   UNL     1     -11.002   5.579  65.154  1.00  0.00     0.000 HD 
ENDBRANCH  20  24
BRANCH  23  27
HETATM   27  O   UNL     1      -9.513   8.318  68.058  1.00  0.00    -0.139 OA 
BRANCH  27  28
HETATM   28  C   UNL     1      -9.272   8.814  69.380  1.00  0.00    -0.146 C  
HETATM   29  O   UNL     1      -8.367   9.908  69.347  1.00  0.00    -0.128 OA 
HETATM   30  C   UNL     1      -8.868  11.004  68.577  1.00  0.00    -0.159 C  
HETATM   31  C   UNL     1     -10.127  11.587  69.267  1.00  0.00     0.129 C  
HETATM   32  C   UNL     1      -7.700  11.977  68.434  1.00  0.00    -0.138 C  
HETATM   33  C   UNL     1     -11.192  10.465  69.408  1.00  0.00    -0.259 C  
HETATM   34  H   UNL     1     -12.927  10.209  70.335  1.00  0.00     0.000 HD 
HETATM   35  C   UNL     1     -10.593   9.214  70.056  1.00  0.00    -0.227 C  
HETATM   36  O   UNL     1     -12.276  10.896  70.249  1.00  0.00    -0.296 OA 
HETATM   37  O   UNL     1     -11.549   8.140  70.033  1.00  0.00    -0.469 OA 
HETATM   38  H   UNL     1     -12.366   8.386  70.451  1.00  0.00     0.000 HD 
BRANCH  31  39
HETATM   39  N   UNL     1     -10.600  12.782  68.526  1.00  0.00    -0.250 NA 
HETATM   40  H   UNL     1     -11.527  13.180  68.677  1.00  0.00     0.000 HD 
BRANCH  39  41
HETATM   41  C   UNL     1      -9.638  13.367  67.545  1.00  0.00    -0.221 C  
HETATM   42  C   UNL     1     -10.512  14.677  65.563  1.00  0.00    -0.374 C  
HETATM   43  C   UNL     1     -10.304  13.531  66.212  1.00  0.00    -0.293 C  
HETATM   44  C   UNL     1      -9.977  15.983  66.086  1.00  0.00    -0.325 C  
HETATM   45  H   UNL     1      -9.606  15.909  69.647  1.00  0.00     0.000 HD 
HETATM   46  O   UNL     1      -9.939  15.103  69.268  1.00  0.00    -0.228 OA 
HETATM   47  C   UNL     1      -8.911  15.875  67.207  1.00  0.00    -0.195 C  
HETATM   48  O   UNL     1     -11.087  16.764  66.520  1.00  0.00     0.061 OA 
HETATM   49  H   UNL     1      -6.944  15.742  67.318  1.00  0.00     0.000 HD 
HETATM   50  O   UNL     1      -7.597  15.808  66.630  1.00  0.00    -0.196 OA 
HETATM   51  C   UNL     1      -9.092  14.693  68.170  1.00  0.00    -0.187 C  
HETATM   52  H   UNL     1     -10.750  17.588  66.850  1.00  0.00     0.000 HD 
BRANCH  42  53
HETATM   53  C   UNL     1     -11.304  14.769  64.277  1.00  0.00    -0.082 C  
HETATM   54  O   UNL     1     -11.479  13.498  63.659  1.00  0.00    -0.615 OA 
HETATM   55  H   UNL     1     -11.976  13.556  62.851  1.00  0.00     0.000 HD 
ENDBRANCH  42  53
ENDBRANCH  39  41
ENDBRANCH  31  39
ENDBRANCH  27  28
ENDBRANCH  23  27
ENDBRANCH  13  14
ENDBRANCH   4  13
ENDBRANCH   1   4
BRANCH   1  56
HETATM   56  C   UNL     1     -10.276   3.414  72.096  1.00  0.00    -0.075 C  
HETATM   57  O   UNL     1     -10.757   2.593  73.163  1.00  0.00    -0.155 OA 
HETATM   58  H   UNL     1     -11.446   2.028  72.832  1.00  0.00     0.000 HD 
ENDBRANCH   1  56
TORSDOF 12
ENDMDL
MODEL      215
REMARK 921   NORMALIZED FREE ENERGY PREDICTED BY IDOCK:   -2.61 KCAL/MOL
REMARK 922        TOTAL FREE ENERGY PREDICTED BY IDOCK:   -7.64 KCAL/MOL
REMARK 923 INTER-LIGAND FREE ENERGY PREDICTED BY IDOCK:   -8.74 KCAL/MOL
REMARK 924 INTRA-LIGAND FREE ENERGY PREDICTED BY IDOCK:    1.10 KCAL/MOL
REMARK 927      BINDING AFFINITY PREDICTED BY RF-SCORE:    0.00 PKD
ROOT
HETATM    1  C   UNL     1     -11.648  12.813  63.210  1.00  0.00    -0.314 C  
HETATM    2  H   UNL     1     -11.177  14.658  63.576  1.00  0.00     0.000 HD 
HETATM    3  O   UNL     1     -11.883  14.079  63.840  1.00  0.00    -0.349 OA 
ENDROOT
BRANCH   1   4
HETATM    4  C   UNL     1     -10.231  12.242  63.515  1.00  0.00    -0.379 C  
BRANCH   4   5
HETATM    5  C   UNL     1     -10.108  10.724  63.169  1.00  0.00    -0.210 C  
HETATM    6  O   UNL     1     -10.123   9.912  64.352  1.00  0.00    -0.427 OA 
HETATM    7  H   UNL     1     -10.048   8.988  64.142  1.00  0.00     0.000 HD 
BRANCH   5   8
HETATM    8  C   UNL     1      -8.848  10.345  62.380  1.00  0.00    -0.250 C  
HETATM    9  C   UNL     1      -8.196   9.104  62.949  1.00  0.00    -0.181 C  
HETATM   10  O   UNL     1      -7.921  11.437  62.484  1.00  0.00    -0.480 OA 
HETATM   11  O   UNL     1      -8.474   7.970  62.564  1.00  0.00    -0.142 OA 
HETATM   12  H   UNL     1      -7.141  11.202  61.995  1.00  0.00     0.000 HD 
ENDBRANCH   5   8
ENDBRANCH   4   5
BRANCH   4  13
HETATM   13  O   UNL     1      -9.825  12.455  64.889  1.00  0.00    -0.209 OA 
BRANCH  13  14
HETATM   14  C   UNL     1      -9.508  11.257  65.618  1.00  0.00    -0.229 C  
HETATM   15  H   UNL     1     -10.866  12.360  69.209  1.00  0.00     0.000 HD 
HETATM   16  O   UNL     1     -11.540  11.453  67.040  1.00  0.00    -0.510 OA 
HETATM   17  C   UNL     1     -10.110  11.319  67.032  1.00  0.00    -0.206 C  
HETATM   18  O   UNL     1      -8.114  11.021  65.749  1.00  0.00    -0.135 OA 
HETATM   19  O   UNL     1      -9.916  12.381  69.179  1.00  0.00     0.126 OA 
HETATM   20  C   UNL     1      -7.400  12.080  66.395  1.00  0.00     0.403 C  
HETATM   21  H   UNL     1     -11.912  11.492  67.914  1.00  0.00     0.000 HD 
HETATM   22  C   UNL     1      -9.510  12.489  67.799  1.00  0.00    -0.197 C  
HETATM   23  C   UNL     1      -7.974  12.524  67.752  1.00  0.00    -0.163 C  
BRANCH  20  24
HETATM   24  C   UNL     1      -5.922  11.637  66.503  1.00  0.00    -0.036 C  
HETATM   25  O   UNL     1      -5.443  10.931  65.357  1.00  0.00    -0.180 OA 
HETATM   26  H   UNL     1      -4.535  10.659  65.424  1.00  0.00     0.000 HD 
ENDBRANCH  20  24
BRANCH  23  27
HETATM   27  O   UNL     1      -7.480  13.874  67.976  1.00  0.00    -0.105 OA 
BRANCH  27  28
HETATM   28  C   UNL     1      -6.088  13.922  68.312  1.00  0.00    -0.112 C  
HETATM   29  O   UNL     1      -5.380  14.744  67.397  1.00  0.00    -0.335 OA 
HETATM   30  C   UNL     1      -5.854  16.093  67.399  1.00  0.00    -0.134 C  
HETATM   31  C   UNL     1      -5.565  16.740  68.777  1.00  0.00    -0.132 C  
HETATM   32  C   UNL     1      -5.177  16.772  66.211  1.00  0.00     0.382 C  
HETATM   33  C   UNL     1      -6.254  15.898  69.886  1.00  0.00    -0.157 C  
HETATM   34  H   UNL     1      -6.242  15.808  71.867  1.00  0.00     0.000 HD 
HETATM   35  C   UNL     1      -5.898  14.416  69.755  1.00  0.00    -0.111 C  
HETATM   36  O   UNL     1      -5.820  16.323  71.190  1.00  0.00     0.265 OA 
HETATM   37  O   UNL     1      -6.667  13.639  70.690  1.00  0.00    -0.298 OA 
HETATM   38  H   UNL     1      -6.550  13.944  71.582  1.00  0.00     0.000 HD 
BRANCH  31  39
HETATM   39  N   UNL     1      -5.970  18.167  68.758  1.00  0.00    -0.193 NA 
HETATM   40  H   UNL     1      -5.511  18.867  69.341  1.00  0.00     0.000 HD 
BRANCH  39  41
HETATM   41  C   UNL     1      -7.090  18.517  67.836  1.00  0.00    -0.225 C  
HETATM   42  C   UNL     1      -9.463  17.883  68.448  1.00  0.00    -0.304 C  
HETATM   43  C   UNL     1      -8.234  17.570  68.037  1.00  0.00    -0.239 C  
HETATM   44  C   UNL     1      -9.877  19.313  68.665  1.00  0.00    -0.431 C  
HETATM   45  H   UNL     1      -7.066  21.376  69.482  1.00  0.00     0.000 HD 
HETATM   46  O   UNL     1      -6.855  20.461  69.332  1.00  0.00    -0.149 OA 
HETATM   47  C   UNL     1      -8.929  20.387  68.071  1.00  0.00    -0.018 C  
HETATM   48  O   UNL     1     -10.046  19.508  70.066  1.00  0.00    -0.292 OA 
HETATM   49  H   UNL     1      -8.739  21.356  66.361  1.00  0.00     0.000 HD 
HETATM   50  O   UNL     1      -9.320  20.698  66.724  1.00  0.00    -0.279 OA 
HETATM   51  C   UNL     1      -7.438  20.023  68.084  1.00  0.00    -0.266 C  
HETATM   52  H   UNL     1     -10.307  20.412  70.203  1.00  0.00     0.000 HD 
BRANCH  42  53
HETATM   53  C   UNL     1     -10.526  16.848  68.745  1.00  0.00    -0.343 C  
HETATM   54  O   UNL     1      -9.967  15.594  69.121  1.00  0.00    -0.212 OA 
HETATM   55  H   UNL     1     -10.635  14.943  69.307  1.00  0.00     0.000 HD 
ENDBRANCH  42  53
ENDBRANCH  39  41
ENDBRANCH  31  39
ENDBRANCH  27  28
ENDBRANCH  23  27
ENDBRANCH  13  14
ENDBRANCH   4  13
ENDBRANCH   1   4
BRANCH   1  56
HETATM   56  C   UNL     1     -12.784  11.881  63.637  1.00  0.00    -0.390 C  
HETATM   57  O   UNL     1     -13.217  12.248  64.950  1.00  0.00    -0.597 OA 
HETATM   58  H   UNL     1     -13.923  11.669  65.214  1.00  0.00     0.000 HD 
ENDBRANCH   1  56
TORSDOF 12
ENDMDL
MODEL      216
REMARK 921   NORMALIZED FREE ENERGY PREDICTED BY IDOCK:   -2.59 KCAL/MOL
REMARK 922        TOTAL FREE ENERGY PREDICTED BY IDOCK:   -7.61 KCAL/MOL
REMARK 923 INTER-LIGAND FREE ENERGY PREDICTED BY IDOCK:   -7.17 KCAL/MOL
REMARK 924 INTRA-LIGAND FREE ENERGY PREDICTED BY IDOCK:   -0.44 KCAL/MOL
REMARK 927      BINDING AFFINITY PREDICTED BY RF-SCORE:    0.00 PKD
ROOT
HETATM    1  C   UNL     1     -11.291  14.457  66.432  1.00  0.00    -0.350 C  
HETATM    2  H   UNL     1     -11.049  13.259  67.936  1.00  0.00     0.000 HD 
HETATM    3  O   UNL     1     -11.782  13.504  67.383  1.00  0.00    -0.337 OA 
ENDROOT
BRANCH   1   4
HETATM    4  C   UNL     1     -10.059  13.933  65.634  1.00  0.00    -0.313 C  
BRANCH   4   5
HETATM    5  C   UNL     1     -10.310  12.531  64.995  1.00  0.00    -0.299 C  
HETATM    6  O   UNL     1      -9.159  11.682  65.122  1.00  0.00    -0.407 OA 
HETATM    7  H   UNL     1      -9.311  10.828  64.734  1.00  0.00     0.000 HD 
BRANCH   5   8
HETATM    8  C   UNL     1     -10.686  12.559  63.508  1.00  0.00    -0.376 C  
HETATM    9  C   UNL     1     -11.950  11.770  63.247  1.00  0.00    -0.248 C  
HETATM   10  O   UNL     1      -9.610  11.953  62.774  1.00  0.00    -0.510 OA 
HETATM   11  O   UNL     1     -13.069  12.277  63.282  1.00  0.00    -0.668 OA 
HETATM   12  H   UNL     1      -9.843  11.971  61.853  1.00  0.00     0.000 HD 
ENDBRANCH   5   8
ENDBRANCH   4   5
BRANCH   4  13
HETATM   13  O   UNL     1      -8.853  13.888  66.434  1.00  0.00    -0.078 OA 
BRANCH  13  14
HETATM   14  C   UNL     1      -9.042  14.172  67.830  1.00  0.00    -0.190 C  
HETATM   15  H   UNL     1      -5.228  14.012  69.001  1.00  0.00     0.000 HD 
HETATM   16  O   UNL     1      -6.914  15.452  67.971  1.00  0.00    -0.112 OA 
HETATM   17  C   UNL     1      -7.684  14.372  68.523  1.00  0.00    -0.135 C  
HETATM   18  O   UNL     1      -9.742  13.153  68.530  1.00  0.00    -0.211 OA 
HETATM   19  O   UNL     1      -5.704  13.237  69.277  1.00  0.00    -0.076 OA 
HETATM   20  C   UNL     1      -9.117  11.868  68.469  1.00  0.00    -0.123 C  
HETATM   21  H   UNL     1      -6.074  15.576  68.399  1.00  0.00     0.000 HD 
HETATM   22  C   UNL     1      -6.862  13.094  68.428  1.00  0.00    -0.098 C  
HETATM   23  C   UNL     1      -7.632  11.841  68.873  1.00  0.00    -0.063 C  
BRANCH  20  24
HETATM   24  C   UNL     1      -9.971  10.901  69.321  1.00  0.00    -0.113 C  
HETATM   25  O   UNL     1     -11.127  10.400  68.646  1.00  0.00    -0.243 OA 
HETATM   26  H   UNL     1     -11.651   9.806  69.170  1.00  0.00     0.000 HD 
ENDBRANCH  20  24
BRANCH  23  27
HETATM   27  O   UNL     1      -7.070  10.645  68.265  1.00  0.00    -0.078 OA 
BRANCH  27  28
HETATM   28  C   UNL     1      -5.731  10.365  68.689  1.00  0.00    -0.041 C  
HETATM   29  O   UNL     1      -5.681  10.176  70.095  1.00  0.00    -0.043 OA 
HETATM   30  C   UNL     1      -6.490   9.078  70.525  1.00  0.00    -0.051 C  
HETATM   31  C   UNL     1      -5.915   7.757  69.953  1.00  0.00    -0.023 C  
HETATM   32  C   UNL     1      -6.527   9.161  72.049  1.00  0.00     0.080 C  
HETATM   33  C   UNL     1      -5.871   7.854  68.403  1.00  0.00    -0.036 C  
HETATM   34  H   UNL     1      -5.104   6.813  66.899  1.00  0.00     0.000 HD 
HETATM   35  C   UNL     1      -5.175   9.139  67.949  1.00  0.00    -0.034 C  
HETATM   36  O   UNL     1      -5.131   6.753  67.847  1.00  0.00    -0.007 OA 
HETATM   37  O   UNL     1      -5.285   9.282  66.522  1.00  0.00    -0.039 OA 
HETATM   38  H   UNL     1      -4.941   8.524  66.064  1.00  0.00     0.000 HD 
BRANCH  31  39
HETATM   39  N   UNL     1      -6.693   6.605  70.468  1.00  0.00    -0.055 NA 
HETATM   40  H   UNL     1      -6.484   6.170  71.367  1.00  0.00     0.000 HD 
BRANCH  39  41
HETATM   41  C   UNL     1      -7.801   6.119  69.594  1.00  0.00    -0.103 C  
HETATM   42  C   UNL     1      -8.357   3.650  69.531  1.00  0.00    -0.077 C  
HETATM   43  C   UNL     1      -7.571   4.684  69.227  1.00  0.00    -0.056 C  
HETATM   44  C   UNL     1      -9.679   3.846  70.222  1.00  0.00    -0.175 C  
HETATM   45  H   UNL     1      -9.684   6.826  72.208  1.00  0.00     0.000 HD 
HETATM   46  O   UNL     1      -8.870   6.659  71.747  1.00  0.00    -0.131 OA 
HETATM   47  C   UNL     1     -10.216   5.300  70.251  1.00  0.00    -0.275 C  
HETATM   48  O   UNL     1      -9.560   3.326  71.543  1.00  0.00    -0.143 OA 
HETATM   49  H   UNL     1     -11.352   6.441  69.107  1.00  0.00     0.000 HD 
HETATM   50  O   UNL     1     -11.024   5.549  69.089  1.00  0.00    -0.225 OA 
HETATM   51  C   UNL     1      -9.142   6.393  70.352  1.00  0.00    -0.155 C  
HETATM   52  H   UNL     1     -10.395   3.450  71.980  1.00  0.00     0.000 HD 
BRANCH  42  53
HETATM   53  C   UNL     1      -7.989   2.213  69.230  1.00  0.00    -0.045 C  
HETATM   54  O   UNL     1      -7.218   1.624  70.273  1.00  0.00    -0.033 OA 
HETATM   55  H   UNL     1      -6.987   0.722  70.084  1.00  0.00     0.000 HD 
ENDBRANCH  42  53
ENDBRANCH  39  41
ENDBRANCH  31  39
ENDBRANCH  27  28
ENDBRANCH  23  27
ENDBRANCH  13  14
ENDBRANCH   4  13
ENDBRANCH   1   4
BRANCH   1  56
HETATM   56  C   UNL     1     -12.471  14.852  65.541  1.00  0.00     0.136 C  
HETATM   57  O   UNL     1     -13.526  13.904  65.723  1.00  0.00    -0.608 OA 
HETATM   58  H   UNL     1     -14.259  14.149  65.170  1.00  0.00     0.000 HD 
ENDBRANCH   1  56
TORSDOF 12
ENDMDL
MODEL      217
REMARK 921   NORMALIZED FREE ENERGY PREDICTED BY IDOCK:   -2.49 KCAL/MOL
REMARK 922        TOTAL FREE ENERGY PREDICTED BY IDOCK:   -7.43 KCAL/MOL
REMARK 923 INTER-LIGAND FREE ENERGY PREDICTED BY IDOCK:   -7.07 KCAL/MOL
REMARK 924 INTRA-LIGAND FREE ENERGY PREDICTED BY IDOCK:   -0.36 KCAL/MOL
REMARK 927      BINDING AFFINITY PREDICTED BY RF-SCORE:    0.00 PKD
ROOT
HETATM    1  C   UNL     1     -10.593  14.187  67.058  1.00  0.00    -0.276 C  
HETATM    2  H   UNL     1     -12.321  14.629  66.299  1.00  0.00     0.000 HD 
HETATM    3  O   UNL     1     -11.616  14.036  66.066  1.00  0.00    -0.335 OA 
ENDROOT
BRANCH   1   4
HETATM    4  C   UNL     1     -11.123  13.980  68.509  1.00  0.00    -0.257 C  
BRANCH   4   5
HETATM    5  C   UNL     1     -10.449  14.942  69.538  1.00  0.00    -0.201 C  
HETATM    6  O   UNL     1     -11.426  15.685  70.282  1.00  0.00    -0.287 OA 
HETATM    7  H   UNL     1     -11.016  16.270  70.908  1.00  0.00     0.000 HD 
BRANCH   5   8
HETATM    8  C   UNL     1      -9.479  15.961  68.926  1.00  0.00    -0.234 C  
HETATM    9  C   UNL     1      -8.118  15.886  69.581  1.00  0.00     0.052 C  
HETATM   10  O   UNL     1     -10.023  17.271  69.152  1.00  0.00    -0.275 OA 
HETATM   11  O   UNL     1      -7.219  15.158  69.165  1.00  0.00    -0.135 OA 
HETATM   12  H   UNL     1      -9.423  17.902  68.773  1.00  0.00     0.000 HD 
ENDBRANCH   5   8
ENDBRANCH   4   5
BRANCH   4  13
HETATM   13  O   UNL     1     -10.983  12.613  68.966  1.00  0.00    -0.238 OA 
BRANCH  13  14
HETATM   14  C   UNL     1     -12.118  11.770  68.708  1.00  0.00    -0.144 C  
HETATM   15  H   UNL     1     -12.238   9.835  72.199  1.00  0.00     0.000 HD 
HETATM   16  O   UNL     1     -12.892  11.902  71.069  1.00  0.00    -0.300 OA 
HETATM   17  C   UNL     1     -12.532  11.026  69.989  1.00  0.00    -0.250 C  
HETATM   18  O   UNL     1     -11.890  10.800  67.695  1.00  0.00    -0.505 OA 
HETATM   19  O   UNL     1     -11.893   9.279  71.510  1.00  0.00    -0.321 OA 
HETATM   20  C   UNL     1     -10.795   9.919  67.966  1.00  0.00    -0.243 C  
HETATM   21  H   UNL     1     -13.147  11.442  71.860  1.00  0.00     0.000 HD 
HETATM   22  C   UNL     1     -11.395  10.126  70.454  1.00  0.00    -0.326 C  
HETATM   23  C   UNL     1     -10.836   9.227  69.340  1.00  0.00    -0.169 C  
BRANCH  20  24
HETATM   24  C   UNL     1     -10.725   8.904  66.803  1.00  0.00    -0.028 C  
HETATM   25  O   UNL     1     -10.580   7.547  67.225  1.00  0.00    -0.290 OA 
HETATM   26  H   UNL     1     -10.537   6.923  66.510  1.00  0.00     0.000 HD 
ENDBRANCH  20  24
BRANCH  23  27
HETATM   27  O   UNL     1      -9.467   8.831  69.633  1.00  0.00    -0.165 OA 
BRANCH  27  28
HETATM   28  C   UNL     1      -8.863   9.601  70.679  1.00  0.00    -0.023 C  
HETATM   29  O   UNL     1      -9.047   8.968  71.936  1.00  0.00    -0.365 OA 
HETATM   30  C   UNL     1      -8.454   7.668  71.982  1.00  0.00    -0.110 C  
HETATM   31  C   UNL     1      -6.915   7.798  71.856  1.00  0.00    -0.066 C  
HETATM   32  C   UNL     1      -8.945   7.034  73.282  1.00  0.00    -0.159 C  
HETATM   33  C   UNL     1      -6.576   8.525  70.526  1.00  0.00    -0.037 C  
HETATM   34  H   UNL     1      -4.975   9.320  69.666  1.00  0.00     0.000 HD 
HETATM   35  C   UNL     1      -7.370   9.826  70.391  1.00  0.00    -0.141 C  
HETATM   36  O   UNL     1      -5.182   8.875  70.479  1.00  0.00    -0.021 OA 
HETATM   37  O   UNL     1      -7.159  10.400  69.088  1.00  0.00    -0.064 OA 
HETATM   38  H   UNL     1      -6.237  10.540  68.910  1.00  0.00     0.000 HD 
BRANCH  31  39
HETATM   39  N   UNL     1      -6.285   6.462  71.995  1.00  0.00    -0.042 NA 
HETATM   40  H   UNL     1      -5.280   6.350  72.132  1.00  0.00     0.000 HD 
BRANCH  39  41
HETATM   41  C   UNL     1      -7.207   5.291  71.922  1.00  0.00    -0.085 C  
HETATM   42  C   UNL     1      -6.311   3.031  71.217  1.00  0.00    -0.019 C  
HETATM   43  C   UNL     1      -6.679   4.284  70.946  1.00  0.00    -0.035 C  
HETATM   44  C   UNL     1      -6.496   2.438  72.587  1.00  0.00    -0.014 C  
HETATM   45  H   UNL     1      -6.463   4.970  75.120  1.00  0.00     0.000 HD 
HETATM   46  O   UNL     1      -6.353   5.296  74.234  1.00  0.00    -0.064 OA 
HETATM   47  C   UNL     1      -7.425   3.228  73.544  1.00  0.00    -0.056 C  
HETATM   48  O   UNL     1      -5.204   2.268  73.164  1.00  0.00     0.000 OA 
HETATM   49  H   UNL     1      -9.350   3.263  73.983  1.00  0.00     0.000 HD 
HETATM   50  O   UNL     1      -8.781   2.778  73.396  1.00  0.00    -0.077 OA 
HETATM   51  C   UNL     1      -7.388   4.755  73.381  1.00  0.00    -0.082 C  
HETATM   52  H   UNL     1      -5.321   1.894  74.030  1.00  0.00     0.000 HD 
BRANCH  42  53
HETATM   53  C   UNL     1      -5.671   2.116  70.196  1.00  0.00    -0.017 C  
HETATM   54  O   UNL     1      -5.132   2.835  69.091  1.00  0.00    -0.010 OA 
HETATM   55  H   UNL     1      -4.730   2.261  68.449  1.00  0.00     0.000 HD 
ENDBRANCH  42  53
ENDBRANCH  39  41
ENDBRANCH  31  39
ENDBRANCH  27  28
ENDBRANCH  23  27
ENDBRANCH  13  14
ENDBRANCH   4  13
ENDBRANCH   1   4
BRANCH   1  56
HETATM   56  C   UNL     1      -9.459  13.231  66.683  1.00  0.00    -0.260 C  
HETATM   57  O   UNL     1      -8.233  13.965  66.625  1.00  0.00    -0.393 OA 
HETATM   58  H   UNL     1      -7.529  13.372  66.392  1.00  0.00     0.000 HD 
ENDBRANCH   1  56
TORSDOF 12
ENDMDL
MODEL      218
REMARK 921   NORMALIZED FREE ENERGY PREDICTED BY IDOCK:   -2.45 KCAL/MOL
REMARK 922        TOTAL FREE ENERGY PREDICTED BY IDOCK:   -7.36 KCAL/MOL
REMARK 923 INTER-LIGAND FREE ENERGY PREDICTED BY IDOCK:   -7.59 KCAL/MOL
REMARK 924 INTRA-LIGAND FREE ENERGY PREDICTED BY IDOCK:    0.22 KCAL/MOL
REMARK 927      BINDING AFFINITY PREDICTED BY RF-SCORE:    0.00 PKD
ROOT
HETATM    1  C   UNL     1     -10.074   6.521  68.521  1.00  0.00    -0.160 C  
HETATM    2  H   UNL     1      -8.947   6.056  70.028  1.00  0.00     0.000 HD 
HETATM    3  O   UNL     1      -9.748   5.705  69.654  1.00  0.00    -0.152 OA 
ENDROOT
BRANCH   1   4
HETATM    4  C   UNL     1      -8.905   6.626  67.497  1.00  0.00    -0.116 C  
BRANCH   4   5
HETATM    5  C   UNL     1      -7.774   5.584  67.766  1.00  0.00    -0.092 C  
HETATM    6  O   UNL     1      -6.672   5.758  66.862  1.00  0.00    -0.054 OA 
HETATM    7  H   UNL     1      -5.984   5.123  67.026  1.00  0.00     0.000 HD 
BRANCH   5   8
HETATM    8  C   UNL     1      -8.213   4.118  67.663  1.00  0.00    -0.095 C  
HETATM    9  C   UNL     1      -7.065   3.179  67.958  1.00  0.00    -0.050 C  
HETATM   10  O   UNL     1      -8.657   3.888  66.316  1.00  0.00    -0.108 OA 
HETATM   11  O   UNL     1      -6.819   2.763  69.088  1.00  0.00    -0.036 OA 
HETATM   12  H   UNL     1      -8.929   2.980  66.253  1.00  0.00     0.000 HD 
ENDBRANCH   5   8
ENDBRANCH   4   5
BRANCH   4  13
HETATM   13  O   UNL     1      -8.329   7.954  67.440  1.00  0.00    -0.121 OA 
BRANCH  13  14
HETATM   14  C   UNL     1      -7.018   8.070  68.018  1.00  0.00    -0.074 C  
HETATM   15  H   UNL     1      -7.874  10.651  70.943  1.00  0.00     0.000 HD 
HETATM   16  O   UNL     1      -7.932   8.287  70.322  1.00  0.00    -0.096 OA 
HETATM   17  C   UNL     1      -7.081   8.877  69.326  1.00  0.00    -0.058 C  
HETATM   18  O   UNL     1      -6.072   8.698  67.165  1.00  0.00    -0.053 OA 
HETATM   19  O   UNL     1      -7.405  11.078  70.235  1.00  0.00     0.064 OA 
HETATM   20  C   UNL     1      -6.442  10.018  66.754  1.00  0.00    -0.070 C  
HETATM   21  H   UNL     1      -7.971   8.785  71.130  1.00  0.00     0.000 HD 
HETATM   22  C   UNL     1      -7.577  10.288  69.041  1.00  0.00    -0.102 C  
HETATM   23  C   UNL     1      -6.820  10.978  67.896  1.00  0.00    -0.068 C  
BRANCH  20  24
HETATM   24  C   UNL     1      -5.287  10.568  65.886  1.00  0.00    -0.091 C  
HETATM   25  O   UNL     1      -5.623  10.729  64.507  1.00  0.00    -0.311 OA 
HETATM   26  H   UNL     1      -4.913  11.068  63.974  1.00  0.00     0.000 HD 
ENDBRANCH  20  24
BRANCH  23  27
HETATM   27  O   UNL     1      -7.634  12.022  67.291  1.00  0.00    -0.141 OA 
BRANCH  27  28
HETATM   28  C   UNL     1      -9.029  11.697  67.239  1.00  0.00    -0.169 C  
HETATM   29  O   UNL     1      -9.763  12.498  68.152  1.00  0.00    -0.212 OA 
HETATM   30  C   UNL     1      -9.651  13.893  67.863  1.00  0.00    -0.227 C  
HETATM   31  C   UNL     1     -10.312  14.192  66.494  1.00  0.00    -0.284 C  
HETATM   32  C   UNL     1     -10.277  14.615  69.055  1.00  0.00    -0.222 C  
HETATM   33  C   UNL     1      -9.622  13.334  65.400  1.00  0.00     0.118 C  
HETATM   34  H   UNL     1      -9.930  12.876  63.495  1.00  0.00     0.000 HD 
HETATM   35  C   UNL     1      -9.567  11.860  65.808  1.00  0.00    -0.224 C  
HETATM   36  O   UNL     1     -10.353  13.402  64.164  1.00  0.00    -0.380 OA 
HETATM   37  O   UNL     1      -8.788  11.112  64.857  1.00  0.00    -0.350 OA 
HETATM   38  H   UNL     1      -9.120  11.212  63.974  1.00  0.00     0.000 HD 
BRANCH  31  39
HETATM   39  N   UNL     1     -10.282  15.652  66.229  1.00  0.00    -0.283 NA 
HETATM   40  H   UNL     1     -10.707  16.059  65.396  1.00  0.00     0.000 HD 
BRANCH  39  41
HETATM   41  C   UNL     1      -9.593  16.490  67.254  1.00  0.00    -0.242 C  
HETATM   42  C   UNL     1      -7.159  17.111  66.934  1.00  0.00    -0.244 C  
HETATM   43  C   UNL     1      -8.117  16.228  67.220  1.00  0.00    -0.203 C  
HETATM   44  C   UNL     1      -7.475  18.564  66.705  1.00  0.00    -0.231 C  
HETATM   45  H   UNL     1     -10.819  18.998  65.498  1.00  0.00     0.000 HD 
HETATM   46  O   UNL     1     -10.572  18.096  65.661  1.00  0.00    -0.611 OA 
HETATM   47  C   UNL     1      -8.888  19.025  67.145  1.00  0.00    -0.288 C  
HETATM   48  O   UNL     1      -7.262  18.842  65.324  1.00  0.00    -0.471 OA 
HETATM   49  H   UNL     1      -9.725  19.745  68.782  1.00  0.00     0.000 HD 
HETATM   50  O   UNL     1      -8.859  19.463  68.513  1.00  0.00    -0.351 OA 
HETATM   51  C   UNL     1      -9.999  17.977  66.984  1.00  0.00    -0.329 C  
HETATM   52  H   UNL     1      -7.461  19.760  65.179  1.00  0.00     0.000 HD 
BRANCH  42  53
HETATM   53  C   UNL     1      -5.700  16.735  66.799  1.00  0.00    -0.088 C  
HETATM   54  O   UNL     1      -5.303  15.761  67.758  1.00  0.00    -0.123 OA 
HETATM   55  H   UNL     1      -4.386  15.526  67.674  1.00  0.00     0.000 HD 
ENDBRANCH  42  53
ENDBRANCH  39  41
ENDBRANCH  31  39
ENDBRANCH  27  28
ENDBRANCH  23  27
ENDBRANCH  13  14
ENDBRANCH   4  13
ENDBRANCH   1   4
BRANCH   1  56
HETATM   56  C   UNL     1     -11.362   5.956  67.918  1.00  0.00     0.546 C  
HETATM   57  O   UNL     1     -11.297   6.072  66.494  1.00  0.00    -0.737 OA 
HETATM   58  H   UNL     1     -12.097   5.721  66.119  1.00  0.00     0.000 HD 
ENDBRANCH   1  56
TORSDOF 12
ENDMDL
MODEL      219
REMARK 921   NORMALIZED FREE ENERGY PREDICTED BY IDOCK:   -2.43 KCAL/MOL
REMARK 922        TOTAL FREE ENERGY PREDICTED BY IDOCK:   -7.32 KCAL/MOL
REMARK 923 INTER-LIGAND FREE ENERGY PREDICTED BY IDOCK:   -9.62 KCAL/MOL
REMARK 924 INTRA-LIGAND FREE ENERGY PREDICTED BY IDOCK:    2.30 KCAL/MOL
REMARK 927      BINDING AFFINITY PREDICTED BY RF-SCORE:    0.00 PKD
ROOT
HETATM    1  C   UNL     1     -11.384  10.497  67.457  1.00  0.00    -0.101 C  
HETATM    2  H   UNL     1     -12.755  11.202  68.632  1.00  0.00     0.000 HD 
HETATM    3  O   UNL     1     -12.054  10.566  68.722  1.00  0.00    -0.306 OA 
ENDROOT
BRANCH   1   4
HETATM    4  C   UNL     1     -10.897  11.889  66.955  1.00  0.00    -0.259 C  
BRANCH   4   5
HETATM    5  C   UNL     1     -11.266  12.152  65.461  1.00  0.00    -0.334 C  
HETATM    6  O   UNL     1     -10.127  12.595  64.708  1.00  0.00    -0.391 OA 
HETATM    7  H   UNL     1     -10.352  12.755  63.799  1.00  0.00     0.000 HD 
BRANCH   5   8
HETATM    8  C   UNL     1     -12.378  13.188  65.246  1.00  0.00    -0.481 C  
HETATM    9  C   UNL     1     -12.109  14.035  64.023  1.00  0.00    -0.376 C  
HETATM   10  O   UNL     1     -12.406  14.045  66.398  1.00  0.00    -0.460 OA 
HETATM   11  O   UNL     1     -12.517  13.735  62.903  1.00  0.00    -0.601 OA 
HETATM   12  H   UNL     1     -13.094  14.685  66.265  1.00  0.00     0.000 HD 
ENDBRANCH   5   8
ENDBRANCH   4   5
BRANCH   4  13
HETATM   13  O   UNL     1      -9.473  12.082  67.139  1.00  0.00    -0.181 OA 
BRANCH  13  14
HETATM   14  C   UNL     1      -9.023  12.001  68.501  1.00  0.00    -0.098 C  
HETATM   15  H   UNL     1      -9.979  15.697  69.674  1.00  0.00     0.000 HD 
HETATM   16  O   UNL     1     -10.874  13.450  69.316  1.00  0.00    -0.408 OA 
HETATM   17  C   UNL     1      -9.451  13.256  69.280  1.00  0.00     0.774 C  
HETATM   18  O   UNL     1      -7.614  11.869  68.630  1.00  0.00    -0.122 OA 
HETATM   19  O   UNL     1      -9.042  15.609  69.546  1.00  0.00    -0.267 OA 
HETATM   20  C   UNL     1      -6.870  12.933  68.029  1.00  0.00    -0.108 C  
HETATM   21  H   UNL     1     -11.139  14.225  69.797  1.00  0.00     0.000 HD 
HETATM   22  C   UNL     1      -8.810  14.492  68.664  1.00  0.00    -0.180 C  
HETATM   23  C   UNL     1      -7.294  14.350  68.456  1.00  0.00    -0.122 C  
BRANCH  20  24
HETATM   24  C   UNL     1      -5.374  12.662  68.309  1.00  0.00    -0.065 C  
HETATM   25  O   UNL     1      -5.135  11.900  69.493  1.00  0.00    -0.060 OA 
HETATM   26  H   UNL     1      -4.215  11.734  69.665  1.00  0.00     0.000 HD 
ENDBRANCH  20  24
BRANCH  23  27
HETATM   27  O   UNL     1      -6.830  15.243  67.405  1.00  0.00    -0.185 OA 
BRANCH  27  28
HETATM   28  C   UNL     1      -5.586  15.886  67.711  1.00  0.00    -0.143 C  
HETATM   29  O   UNL     1      -5.156  16.686  66.621  1.00  0.00    -0.342 OA 
HETATM   30  C   UNL     1      -6.090  17.721  66.304  1.00  0.00    -0.220 C  
HETATM   31  C   UNL     1      -6.176  18.720  67.486  1.00  0.00    -0.183 C  
HETATM   32  C   UNL     1      -5.612  18.321  64.983  1.00  0.00    -0.138 C  
HETATM   33  C   UNL     1      -6.599  17.952  68.768  1.00  0.00    -0.235 C  
HETATM   34  H   UNL     1      -6.721  18.319  70.713  1.00  0.00     0.000 HD 
HETATM   35  C   UNL     1      -5.713  16.724  68.993  1.00  0.00    -0.143 C  
HETATM   36  O   UNL     1      -6.462  18.789  69.929  1.00  0.00    -0.191 OA 
HETATM   37  O   UNL     1      -6.220  15.945  70.091  1.00  0.00    -0.152 OA 
HETATM   38  H   UNL     1      -6.298  16.463  70.883  1.00  0.00     0.000 HD 
BRANCH  31  39
HETATM   39  N   UNL     1      -7.073  19.846  67.128  1.00  0.00    -0.217 NA 
HETATM   40  H   UNL     1      -6.946  20.782  67.514  1.00  0.00     0.000 HD 
BRANCH  39  41
HETATM   41  C   UNL     1      -8.174  19.528  66.172  1.00  0.00    -0.326 C  
HETATM   42  C   UNL     1      -9.521  17.405  66.471  1.00  0.00    -0.288 C  
HETATM   43  C   UNL     1      -8.403  18.048  66.129  1.00  0.00    -0.159 C  
HETATM   44  C   UNL     1     -10.768  18.153  66.858  1.00  0.00    -0.224 C  
HETATM   45  H   UNL     1      -9.989  21.374  68.216  1.00  0.00     0.000 HD 
HETATM   46  O   UNL     1      -9.233  20.863  67.952  1.00  0.00    -0.025 OA 
HETATM   47  C   UNL     1     -10.781  19.665  66.515  1.00  0.00    -0.434 C  
HETATM   48  O   UNL     1     -10.980  17.950  68.252  1.00  0.00    -0.230 OA 
HETATM   49  H   UNL     1     -11.329  20.793  64.990  1.00  0.00     0.000 HD 
HETATM   50  O   UNL     1     -11.321  19.866  65.199  1.00  0.00    -0.170 OA 
HETATM   51  C   UNL     1      -9.420  20.370  66.606  1.00  0.00    -0.305 C  
HETATM   52  H   UNL     1     -11.768  18.423  68.497  1.00  0.00     0.000 HD 
BRANCH  42  53
HETATM   53  C   UNL     1      -9.628  15.897  66.517  1.00  0.00    -0.268 C  
HETATM   54  O   UNL     1      -9.057  15.280  65.368  1.00  0.00    -0.217 OA 
HETATM   55  H   UNL     1      -9.126  14.332  65.397  1.00  0.00     0.000 HD 
ENDBRANCH  42  53
ENDBRANCH  39  41
ENDBRANCH  31  39
ENDBRANCH  27  28
ENDBRANCH  23  27
ENDBRANCH  13  14
ENDBRANCH   4  13
ENDBRANCH   1   4
BRANCH   1  56
HETATM   56  C   UNL     1     -10.256   9.473  67.602  1.00  0.00    -0.220 C  
HETATM   57  O   UNL     1     -10.828   8.183  67.831  1.00  0.00    -0.460 OA 
HETATM   58  H   UNL     1     -10.127   7.546  67.921  1.00  0.00     0.000 HD 
ENDBRANCH   1  56
TORSDOF 12
ENDMDL
MODEL      220
REMARK 921   NORMALIZED FREE ENERGY PREDICTED BY IDOCK:   -2.33 KCAL/MOL
REMARK 922        TOTAL FREE ENERGY PREDICTED BY IDOCK:   -7.15 KCAL/MOL
REMARK 923 INTER-LIGAND FREE ENERGY PREDICTED BY IDOCK:   -9.61 KCAL/MOL
REMARK 924 INTRA-LIGAND FREE ENERGY PREDICTED BY IDOCK:    2.46 KCAL/MOL
REMARK 927      BINDING AFFINITY PREDICTED BY RF-SCORE:    0.00 PKD
ROOT
HETATM    1  C   UNL     1      -9.420   9.043  66.384  1.00  0.00    -0.226 C  
HETATM    2  H   UNL     1     -10.977   9.580  67.407  1.00  0.00     0.000 HD 
HETATM    3  O   UNL     1     -10.699   8.780  66.975  1.00  0.00    -0.262 OA 
ENDROOT
BRANCH   1   4
HETATM    4  C   UNL     1      -8.381   9.586  67.411  1.00  0.00    -0.125 C  
BRANCH   4   5
HETATM    5  C   UNL     1      -6.909   9.427  66.917  1.00  0.00    -0.080 C  
HETATM    6  O   UNL     1      -5.977   9.512  68.006  1.00  0.00    -0.047 OA 
HETATM    7  H   UNL     1      -5.081   9.415  67.705  1.00  0.00     0.000 HD 
BRANCH   5   8
HETATM    8  C   UNL     1      -6.468  10.453  65.866  1.00  0.00    -0.123 C  
HETATM    9  C   UNL     1      -5.918   9.774  64.631  1.00  0.00    -0.092 C  
HETATM   10  O   UNL     1      -5.427  11.254  66.448  1.00  0.00    -0.118 OA 
HETATM   11  O   UNL     1      -6.623   9.468  63.671  1.00  0.00    -0.097 OA 
HETATM   12  H   UNL     1      -5.154  11.890  65.797  1.00  0.00     0.000 HD 
ENDBRANCH   5   8
ENDBRANCH   4   5
BRANCH   4  13
HETATM   13  O   UNL     1      -8.518   8.979  68.718  1.00  0.00    -0.127 OA 
BRANCH  13  14
HETATM   14  C   UNL     1      -8.617   9.910  69.810  1.00  0.00    -0.203 C  
HETATM   15  H   UNL     1     -12.542  10.622  69.641  1.00  0.00     0.000 HD 
HETATM   16  O   UNL     1     -10.857   9.059  70.476  1.00  0.00    -0.228 OA 
HETATM   17  C   UNL     1     -10.092  10.219  70.114  1.00  0.00    -0.042 C  
HETATM   18  O   UNL     1      -7.953  11.142  69.570  1.00  0.00     0.026 OA 
HETATM   19  O   UNL     1     -12.046  11.354  69.295  1.00  0.00    -0.325 OA 
HETATM   20  C   UNL     1      -8.418  11.841  68.411  1.00  0.00    -0.155 C  
HETATM   21  H   UNL     1     -11.769   9.250  70.664  1.00  0.00     0.000 HD 
HETATM   22  C   UNL     1     -10.744  10.871  68.903  1.00  0.00    -0.215 C  
HETATM   23  C   UNL     1      -9.941  12.055  68.343  1.00  0.00    -0.208 C  
BRANCH  20  24
HETATM   24  C   UNL     1      -7.637  13.172  68.334  1.00  0.00    -0.133 C  
HETATM   25  O   UNL     1      -6.621  13.308  69.329  1.00  0.00    -0.106 OA 
HETATM   26  H   UNL     1      -6.141  14.126  69.281  1.00  0.00     0.000 HD 
ENDBRANCH  20  24
BRANCH  23  27
HETATM   27  O   UNL     1     -10.254  12.276  66.939  1.00  0.00    -0.212 OA 
BRANCH  27  28
HETATM   28  C   UNL     1     -11.605  12.696  66.716  1.00  0.00    -0.374 C  
HETATM   29  O   UNL     1     -11.917  13.824  67.520  1.00  0.00    -0.372 OA 
HETATM   30  C   UNL     1     -11.080  14.946  67.230  1.00  0.00    -0.336 C  
HETATM   31  C   UNL     1     -11.353  15.435  65.785  1.00  0.00    -0.115 C  
HETATM   32  C   UNL     1     -11.367  15.971  68.324  1.00  0.00    -0.326 C  
HETATM   33  C   UNL     1     -11.091  14.265  64.797  1.00  0.00    -0.391 C  
HETATM   34  H   UNL     1     -11.395  13.885  62.874  1.00  0.00     0.000 HD 
HETATM   35  C   UNL     1     -11.837  13.001  65.228  1.00  0.00    -0.376 C  
HETATM   36  O   UNL     1     -11.556  14.601  63.478  1.00  0.00     0.343 OA 
HETATM   37  O   UNL     1     -11.457  11.894  64.391  1.00  0.00    -0.340 OA 
HETATM   38  H   UNL     1     -11.600  12.082  63.472  1.00  0.00     0.000 HD 
BRANCH  31  39
HETATM   39  N   UNL     1     -10.556  16.655  65.507  1.00  0.00    -0.515 NA 
HETATM   40  H   UNL     1     -10.472  17.043  64.567  1.00  0.00     0.000 HD 
BRANCH  39  41
HETATM   41  C   UNL     1      -9.885  17.281  66.684  1.00  0.00    -0.295 C  
HETATM   42  C   UNL     1      -7.462  17.996  66.510  1.00  0.00    -0.275 C  
HETATM   43  C   UNL     1      -8.405  17.057  66.606  1.00  0.00    -0.285 C  
HETATM   44  C   UNL     1      -7.804  19.460  66.577  1.00  0.00    -0.288 C  
HETATM   45  H   UNL     1     -11.152  20.070  65.462  1.00  0.00     0.000 HD 
HETATM   46  O   UNL     1     -10.889  19.157  65.442  1.00  0.00    -0.518 OA 
HETATM   47  C   UNL     1      -9.226  19.797  67.092  1.00  0.00    -0.342 C  
HETATM   48  O   UNL     1      -7.592  20.014  65.281  1.00  0.00    -0.392 OA 
HETATM   49  H   UNL     1     -10.080  20.158  68.836  1.00  0.00     0.000 HD 
HETATM   50  O   UNL     1      -9.208  19.951  68.521  1.00  0.00    -0.287 OA 
HETATM   51  C   UNL     1     -10.317  18.784  66.716  1.00  0.00    -0.412 C  
HETATM   52  H   UNL     1      -7.809  20.939  65.324  1.00  0.00     0.000 HD 
BRANCH  42  53
HETATM   53  C   UNL     1      -5.996  17.681  66.311  1.00  0.00    -0.220 C  
HETATM   54  O   UNL     1      -5.712  16.298  66.494  1.00  0.00    -0.209 OA 
HETATM   55  H   UNL     1      -4.791  16.100  66.369  1.00  0.00     0.000 HD 
ENDBRANCH  42  53
ENDBRANCH  39  41
ENDBRANCH  31  39
ENDBRANCH  27  28
ENDBRANCH  23  27
ENDBRANCH  13  14
ENDBRANCH   4  13
ENDBRANCH   1   4
BRANCH   1  56
HETATM   56  C   UNL     1      -8.973   7.754  65.690  1.00  0.00    -0.005 C  
HETATM   57  O   UNL     1     -10.021   6.787  65.788  1.00  0.00    -0.184 OA 
HETATM   58  H   UNL     1      -9.744   5.987  65.356  1.00  0.00     0.000 HD 
ENDBRANCH   1  56
TORSDOF 12
ENDMDL
MODEL      221
REMARK 921   NORMALIZED FREE ENERGY PREDICTED BY IDOCK:   -2.31 KCAL/MOL
REMARK 922        TOTAL FREE ENERGY PREDICTED BY IDOCK:   -7.12 KCAL/MOL
REMARK 923 INTER-LIGAND FREE ENERGY PREDICTED BY IDOCK:   -8.17 KCAL/MOL
REMARK 924 INTRA-LIGAND FREE ENERGY PREDICTED BY IDOCK:    1.05 KCAL/MOL
REMARK 927      BINDING AFFINITY PREDICTED BY RF-SCORE:    0.00 PKD
ROOT
HETATM    1  C   UNL     1     -11.790  12.824  63.138  1.00  0.00    -0.239 C  
HETATM    2  H   UNL     1     -11.465  14.718  63.391  1.00  0.00     0.000 HD 
HETATM    3  O   UNL     1     -12.199  14.135  63.548  1.00  0.00    -0.614 OA 
ENDROOT
BRANCH   1   4
HETATM    4  C   UNL     1     -10.471  12.360  63.825  1.00  0.00    -0.443 C  
BRANCH   4   5
HETATM    5  C   UNL     1     -10.285  10.811  63.783  1.00  0.00    -0.288 C  
HETATM    6  O   UNL     1     -10.238  10.250  65.104  1.00  0.00    -0.314 OA 
HETATM    7  H   UNL     1     -10.124   9.307  65.078  1.00  0.00     0.000 HD 
BRANCH   5   8
HETATM    8  C   UNL     1      -9.025  10.335  63.048  1.00  0.00    -0.247 C  
HETATM    9  C   UNL     1      -8.132   9.522  63.959  1.00  0.00    -0.152 C  
HETATM   10  O   UNL     1      -8.302  11.500  62.620  1.00  0.00    -0.578 OA 
HETATM   11  O   UNL     1      -8.226   8.301  64.065  1.00  0.00    -0.157 OA 
HETATM   12  H   UNL     1      -7.522  11.205  62.165  1.00  0.00     0.000 HD 
ENDBRANCH   5   8
ENDBRANCH   4   5
BRANCH   4  13
HETATM   13  O   UNL     1     -10.364  12.819  65.194  1.00  0.00    -0.287 OA 
BRANCH  13  14
HETATM   14  C   UNL     1      -9.959  11.814  66.139  1.00  0.00    -0.226 C  
HETATM   15  H   UNL     1     -11.910  13.179  69.345  1.00  0.00     0.000 HD 
HETATM   16  O   UNL     1     -12.159  11.863  67.300  1.00  0.00    -0.582 OA 
HETATM   17  C   UNL     1     -10.736  11.977  67.456  1.00  0.00    -0.226 C  
HETATM   18  O   UNL     1      -8.573  11.843  66.444  1.00  0.00    -0.165 OA 
HETATM   19  O   UNL     1     -10.979  13.359  69.408  1.00  0.00    -0.157 OA 
HETATM   20  C   UNL     1      -8.117  13.091  66.975  1.00  0.00    -0.033 C  
HETATM   21  H   UNL     1     -12.639  11.964  68.114  1.00  0.00     0.000 HD 
HETATM   22  C   UNL     1     -10.425  13.332  68.076  1.00  0.00    -0.242 C  
HETATM   23  C   UNL     1      -8.919  13.623  68.177  1.00  0.00    -0.191 C  
BRANCH  20  24
HETATM   24  C   UNL     1      -6.615  12.931  67.301  1.00  0.00    -0.037 C  
HETATM   25  O   UNL     1      -6.226  13.510  68.548  1.00  0.00    -0.078 OA 
HETATM   26  H   UNL     1      -5.303  13.411  68.748  1.00  0.00     0.000 HD 
ENDBRANCH  20  24
BRANCH  23  27
HETATM   27  O   UNL     1      -8.671  15.056  68.224  1.00  0.00    -0.156 OA 
BRANCH  27  28
HETATM   28  C   UNL     1      -8.655  15.588  69.554  1.00  0.00    -0.218 C  
HETATM   29  O   UNL     1      -7.321  15.765  70.006  1.00  0.00     0.005 OA 
HETATM   30  C   UNL     1      -6.585  16.676  69.186  1.00  0.00    -0.207 C  
HETATM   31  C   UNL     1      -7.206  18.092  69.302  1.00  0.00    -0.067 C  
HETATM   32  C   UNL     1      -5.133  16.567  69.645  1.00  0.00    -0.135 C  
HETATM   33  C   UNL     1      -8.697  18.027  68.874  1.00  0.00    -0.110 C  
HETATM   34  H   UNL     1     -10.282  19.219  68.927  1.00  0.00     0.000 HD 
HETATM   35  C   UNL     1      -9.436  16.910  69.616  1.00  0.00     0.403 C  
HETATM   36  O   UNL     1      -9.370  19.259  69.189  1.00  0.00    -0.323 OA 
HETATM   37  O   UNL     1     -10.768  16.768  69.092  1.00  0.00    -0.329 OA 
HETATM   38  H   UNL     1     -11.251  17.584  69.130  1.00  0.00     0.000 HD 
BRANCH  31  39
HETATM   39  N   UNL     1      -6.393  19.062  68.527  1.00  0.00    -0.230 NA 
HETATM   40  H   UNL     1      -5.767  19.727  68.982  1.00  0.00     0.000 HD 
BRANCH  39  41
HETATM   41  C   UNL     1      -6.547  19.007  67.044  1.00  0.00    -0.196 C  
HETATM   42  C   UNL     1      -8.794  18.419  66.036  1.00  0.00     0.018 C  
HETATM   43  C   UNL     1      -7.673  18.088  66.679  1.00  0.00    -0.268 C  
HETATM   44  C   UNL     1      -9.005  19.806  65.491  1.00  0.00     0.502 C  
HETATM   45  H   UNL     1      -7.145  22.236  67.353  1.00  0.00     0.000 HD 
HETATM   46  O   UNL     1      -7.042  21.342  67.657  1.00  0.00    -0.425 OA 
HETATM   47  C   UNL     1      -7.741  20.702  65.421  1.00  0.00     0.441 C  
HETATM   48  O   UNL     1     -10.022  20.429  66.271  1.00  0.00    -0.571 OA 
HETATM   49  H   UNL     1      -6.313  21.079  64.111  1.00  0.00     0.000 HD 
HETATM   50  O   UNL     1      -7.087  20.530  64.153  1.00  0.00    -0.017 OA 
HETATM   51  C   UNL     1      -6.717  20.480  66.543  1.00  0.00    -0.258 C  
HETATM   52  H   UNL     1     -10.154  21.305  65.927  1.00  0.00     0.000 HD 
BRANCH  42  53
HETATM   53  C   UNL     1      -9.939  17.456  65.817  1.00  0.00    -0.062 C  
HETATM   54  O   UNL     1      -9.487  16.127  65.574  1.00  0.00    -0.428 OA 
HETATM   55  H   UNL     1     -10.207  15.522  65.436  1.00  0.00     0.000 HD 
ENDBRANCH  42  53
ENDBRANCH  39  41
ENDBRANCH  31  39
ENDBRANCH  27  28
ENDBRANCH  23  27
ENDBRANCH  13  14
ENDBRANCH   4  13
ENDBRANCH   1   4
BRANCH   1  56
HETATM   56  C   UNL     1     -12.972  11.885  63.392  1.00  0.00    -0.115 C  
HETATM   57  O   UNL     1     -13.432  12.072  64.733  1.00  0.00    -0.168 OA 
HETATM   58  H   UNL     1     -14.166  11.489  64.891  1.00  0.00     0.000 HD 
ENDBRANCH   1  56
TORSDOF 12
ENDMDL
MODEL      222
REMARK 921   NORMALIZED FREE ENERGY PREDICTED BY IDOCK:   -2.29 KCAL/MOL
REMARK 922        TOTAL FREE ENERGY PREDICTED BY IDOCK:   -7.09 KCAL/MOL
REMARK 923 INTER-LIGAND FREE ENERGY PREDICTED BY IDOCK:   -8.17 KCAL/MOL
REMARK 924 INTRA-LIGAND FREE ENERGY PREDICTED BY IDOCK:    1.08 KCAL/MOL
REMARK 927      BINDING AFFINITY PREDICTED BY RF-SCORE:    0.00 PKD
ROOT
HETATM    1  C   UNL     1      -9.618  15.643  69.873  1.00  0.00    -0.080 C  
HETATM    2  H   UNL     1      -8.664  14.065  69.275  1.00  0.00     0.000 HD 
HETATM    3  O   UNL     1      -9.557  14.381  69.197  1.00  0.00    -0.112 OA 
ENDROOT
BRANCH   1   4
HETATM    4  C   UNL     1      -8.555  16.657  69.354  1.00  0.00     0.138 C  
BRANCH   4   5
HETATM    5  C   UNL     1      -7.116  16.336  69.869  1.00  0.00     0.269 C  
HETATM    6  O   UNL     1      -6.204  17.407  69.583  1.00  0.00    -0.248 OA 
HETATM    7  H   UNL     1      -5.328  17.211  69.896  1.00  0.00     0.000 HD 
BRANCH   5   8
HETATM    8  C   UNL     1      -6.499  15.054  69.296  1.00  0.00    -0.124 C  
HETATM    9  C   UNL     1      -5.449  14.487  70.225  1.00  0.00    -0.113 C  
HETATM   10  O   UNL     1      -5.871  15.391  68.049  1.00  0.00    -0.119 OA 
HETATM   11  O   UNL     1      -5.711  13.668  71.104  1.00  0.00    -0.201 OA 
HETATM   12  H   UNL     1      -5.489  14.597  67.694  1.00  0.00     0.000 HD 
ENDBRANCH   5   8
ENDBRANCH   4   5
BRANCH   4  13
HETATM   13  O   UNL     1      -8.885  18.029  69.679  1.00  0.00     0.577 OA 
BRANCH  13  14
HETATM   14  C   UNL     1      -8.483  18.998  68.696  1.00  0.00    -0.359 C  
HETATM   15  H   UNL     1     -12.097  20.026  67.344  1.00  0.00     0.000 HD 
HETATM   16  O   UNL     1     -10.472  20.427  69.127  1.00  0.00    -0.390 OA 
HETATM   17  C   UNL     1      -9.713  19.727  68.130  1.00  0.00    -0.398 C  
HETATM   18  O   UNL     1      -7.767  18.438  67.604  1.00  0.00    -0.226 OA 
HETATM   19  O   UNL     1     -11.644  19.468  66.722  1.00  0.00     0.307 OA 
HETATM   20  C   UNL     1      -8.485  17.426  66.892  1.00  0.00    -0.241 C  
HETATM   21  H   UNL     1     -11.233  20.877  68.777  1.00  0.00     0.000 HD 
HETATM   22  C   UNL     1     -10.630  18.730  67.434  1.00  0.00    -0.443 C  
HETATM   23  C   UNL     1      -9.897  17.828  66.429  1.00  0.00    -0.324 C  
BRANCH  20  24
HETATM   24  C   UNL     1      -7.592  16.972  65.715  1.00  0.00     0.402 C  
HETATM   25  O   UNL     1      -6.191  17.089  65.971  1.00  0.00    -0.164 OA 
HETATM   26  H   UNL     1      -5.642  16.809  65.248  1.00  0.00     0.000 HD 
ENDBRANCH  20  24
BRANCH  23  27
HETATM   27  O   UNL     1     -10.623  16.584  66.224  1.00  0.00    -0.294 OA 
BRANCH  27  28
HETATM   28  C   UNL     1     -10.123  15.806  65.129  1.00  0.00    -0.122 C  
HETATM   29  O   UNL     1      -9.231  14.805  65.594  1.00  0.00    -0.103 OA 
HETATM   30  C   UNL     1      -9.860  13.893  66.497  1.00  0.00    -0.290 C  
HETATM   31  C   UNL     1     -10.955  13.094  65.745  1.00  0.00    -0.277 C  
HETATM   32  C   UNL     1      -8.733  13.048  67.086  1.00  0.00    -0.204 C  
HETATM   33  C   UNL     1     -11.983  14.089  65.141  1.00  0.00    -0.387 C  
HETATM   34  H   UNL     1     -13.507  14.020  63.873  1.00  0.00     0.000 HD 
HETATM   35  C   UNL     1     -11.282  15.185  64.335  1.00  0.00    -0.169 C  
HETATM   36  O   UNL     1     -12.878  13.411  64.242  1.00  0.00    -0.637 OA 
HETATM   37  O   UNL     1     -12.236  16.178  63.918  1.00  0.00    -1.203 OA 
HETATM   38  H   UNL     1     -12.953  15.794  63.427  1.00  0.00     0.000 HD 
BRANCH  31  39
HETATM   39  N   UNL     1     -11.550  12.081  66.651  1.00  0.00    -0.513 NA 
HETATM   40  H   UNL     1     -12.006  12.341  67.527  1.00  0.00     0.000 HD 
BRANCH  39  41
HETATM   41  C   UNL     1     -11.443  10.660  66.207  1.00  0.00     0.810 C  
HETATM   42  C   UNL     1      -9.265   9.812  65.235  1.00  0.00    -0.294 C  
HETATM   43  C   UNL     1     -10.384  10.532  65.154  1.00  0.00    -0.310 C  
HETATM   44  C   UNL     1      -8.987   8.924  66.418  1.00  0.00    -0.158 C  
HETATM   45  H   UNL     1     -10.644  10.116  69.361  1.00  0.00     0.000 HD 
HETATM   46  O   UNL     1     -10.792  10.643  68.584  1.00  0.00    -0.196 OA 
HETATM   47  C   UNL     1     -10.197   8.640  67.346  1.00  0.00    -0.262 C  
HETATM   48  O   UNL     1      -7.913   9.504  67.153  1.00  0.00    -0.102 OA 
HETATM   49  H   UNL     1     -11.637   7.294  67.466  1.00  0.00     0.000 HD 
HETATM   50  O   UNL     1     -10.896   7.468  66.897  1.00  0.00    -0.345 OA 
HETATM   51  C   UNL     1     -11.200   9.794  67.487  1.00  0.00     0.154 C  
HETATM   52  H   UNL     1      -7.738   8.943  67.900  1.00  0.00     0.000 HD 
BRANCH  42  53
HETATM   53  C   UNL     1      -8.186   9.835  64.175  1.00  0.00    -0.158 C  
HETATM   54  O   UNL     1      -7.103  10.690  64.526  1.00  0.00    -0.351 OA 
HETATM   55  H   UNL     1      -6.425  10.705  63.860  1.00  0.00     0.000 HD 
ENDBRANCH  42  53
ENDBRANCH  39  41
ENDBRANCH  31  39
ENDBRANCH  27  28
ENDBRANCH  23  27
ENDBRANCH  13  14
ENDBRANCH   4  13
ENDBRANCH   1   4
BRANCH   1  56
HETATM   56  C   UNL     1     -11.056  16.152  69.748  1.00  0.00    -0.350 C  
HETATM   57  O   UNL     1     -11.487  16.641  71.020  1.00  0.00    -0.557 OA 
HETATM   58  H   UNL     1     -12.380  16.957  70.942  1.00  0.00     0.000 HD 
ENDBRANCH   1  56
TORSDOF 12
ENDMDL
MODEL      223
REMARK 921   NORMALIZED FREE ENERGY PREDICTED BY IDOCK:   -2.28 KCAL/MOL
REMARK 922        TOTAL FREE ENERGY PREDICTED BY IDOCK:   -7.07 KCAL/MOL
REMARK 923 INTER-LIGAND FREE ENERGY PREDICTED BY IDOCK:   -9.50 KCAL/MOL
REMARK 924 INTRA-LIGAND FREE ENERGY PREDICTED BY IDOCK:    2.43 KCAL/MOL
REMARK 927      BINDING AFFINITY PREDICTED BY RF-SCORE:    0.00 PKD
ROOT
HETATM    1  C   UNL     1     -10.773  12.064  64.420  1.00  0.00    -0.323 C  
HETATM    2  H   UNL     1      -9.911  13.800  64.443  1.00  0.00     0.000 HD 
HETATM    3  O   UNL     1     -10.804  13.494  64.332  1.00  0.00    -0.392 OA 
ENDROOT
BRANCH   1   4
HETATM    4  C   UNL     1     -10.102  11.555  65.730  1.00  0.00    -0.237 C  
BRANCH   4   5
HETATM    5  C   UNL     1     -10.801  10.284  66.308  1.00  0.00     0.085 C  
HETATM    6  O   UNL     1     -11.619  10.604  67.444  1.00  0.00    -0.487 OA 
HETATM    7  H   UNL     1     -12.044   9.831  67.796  1.00  0.00     0.000 HD 
BRANCH   5   8
HETATM    8  C   UNL     1      -9.845   9.166  66.744  1.00  0.00    -0.226 C  
HETATM    9  C   UNL     1      -8.722   8.985  65.747  1.00  0.00    -0.169 C  
HETATM   10  O   UNL     1     -10.600   7.945  66.807  1.00  0.00    -0.394 OA 
HETATM   11  O   UNL     1      -7.653   9.588  65.833  1.00  0.00    -0.098 OA 
HETATM   12  H   UNL     1     -10.008   7.253  67.077  1.00  0.00     0.000 HD 
ENDBRANCH   5   8
ENDBRANCH   4   5
BRANCH   4  13
HETATM   13  O   UNL     1     -10.036  12.574  66.757  1.00  0.00    -0.220 OA 
BRANCH  13  14
HETATM   14  C   UNL     1      -9.442  12.149  67.995  1.00  0.00    -0.201 C  
HETATM   15  H   UNL     1      -9.796  15.561  70.039  1.00  0.00     0.000 HD 
HETATM   16  O   UNL     1     -10.994  13.545  69.348  1.00  0.00    -0.408 OA 
HETATM   17  C   UNL     1      -9.619  13.231  69.072  1.00  0.00     0.348 C  
HETATM   18  O   UNL     1      -8.055  11.860  67.892  1.00  0.00    -0.130 OA 
HETATM   19  O   UNL     1      -8.897  15.417  69.764  1.00  0.00    -0.225 OA 
HETATM   20  C   UNL     1      -7.262  12.958  67.429  1.00  0.00    -0.126 C  
HETATM   21  H   UNL     1     -11.104  14.214  70.013  1.00  0.00     0.000 HD 
HETATM   22  C   UNL     1      -8.909  14.508  68.644  1.00  0.00    -0.180 C  
HETATM   23  C   UNL     1      -7.456  14.276  68.199  1.00  0.00    -0.131 C  
BRANCH  20  24
HETATM   24  C   UNL     1      -5.788  12.492  67.432  1.00  0.00    -0.137 C  
HETATM   25  O   UNL     1      -5.419  11.728  66.282  1.00  0.00    -0.441 OA 
HETATM   26  H   UNL     1      -4.513  11.442  66.284  1.00  0.00     0.000 HD 
ENDBRANCH  20  24
BRANCH  23  27
HETATM   27  O   UNL     1      -7.014  15.334  67.304  1.00  0.00    -0.193 OA 
BRANCH  27  28
HETATM   28  C   UNL     1      -5.751  15.901  67.673  1.00  0.00    -0.140 C  
HETATM   29  O   UNL     1      -5.203  16.646  66.595  1.00  0.00    -0.344 OA 
HETATM   30  C   UNL     1      -6.046  17.732  66.201  1.00  0.00    -0.226 C  
HETATM   31  C   UNL     1      -6.135  18.762  67.356  1.00  0.00    -0.171 C  
HETATM   32  C   UNL     1      -5.451  18.268  64.901  1.00  0.00    -0.105 C  
HETATM   33  C   UNL     1      -6.684  18.053  68.625  1.00  0.00    -0.240 C  
HETATM   34  H   UNL     1      -6.898  18.473  70.551  1.00  0.00     0.000 HD 
HETATM   35  C   UNL     1      -5.898  16.776  68.927  1.00  0.00    -0.148 C  
HETATM   36  O   UNL     1      -6.562  18.907  69.776  1.00  0.00    -0.211 OA 
HETATM   37  O   UNL     1      -6.520  16.058  70.008  1.00  0.00    -0.159 OA 
HETATM   38  H   UNL     1      -6.611  16.598  70.784  1.00  0.00     0.000 HD 
BRANCH  31  39
HETATM   39  N   UNL     1      -6.933  19.935  66.922  1.00  0.00    -0.208 NA 
HETATM   40  H   UNL     1      -6.692  20.886  67.204  1.00  0.00     0.000 HD 
BRANCH  39  41
HETATM   41  C   UNL     1      -8.109  19.642  66.051  1.00  0.00    -0.313 C  
HETATM   42  C   UNL     1      -9.560  17.626  66.539  1.00  0.00    -0.301 C  
HETATM   43  C   UNL     1      -8.429  18.179  66.099  1.00  0.00    -0.142 C  
HETATM   44  C   UNL     1     -10.733  18.469  66.960  1.00  0.00    -0.317 C  
HETATM   45  H   UNL     1      -9.678  21.696  68.100  1.00  0.00     0.000 HD 
HETATM   46  O   UNL     1      -8.971  21.126  67.819  1.00  0.00     0.058 OA 
HETATM   47  C   UNL     1     -10.676  19.961  66.541  1.00  0.00    -0.333 C  
HETATM   48  O   UNL     1     -10.870  18.348  68.374  1.00  0.00    -0.281 OA 
HETATM   49  H   UNL     1     -11.249  21.046  64.994  1.00  0.00     0.000 HD 
HETATM   50  O   UNL     1     -11.284  20.132  65.250  1.00  0.00    -0.173 OA 
HETATM   51  C   UNL     1      -9.272  20.581  66.514  1.00  0.00    -0.100 C  
HETATM   52  H   UNL     1     -11.610  18.881  68.639  1.00  0.00     0.000 HD 
BRANCH  42  53
HETATM   53  C   UNL     1      -9.756  16.132  66.670  1.00  0.00    -0.244 C  
HETATM   54  O   UNL     1      -9.364  15.431  65.494  1.00  0.00    -0.340 OA 
HETATM   55  H   UNL     1      -9.487  14.492  65.577  1.00  0.00     0.000 HD 
ENDBRANCH  42  53
ENDBRANCH  39  41
ENDBRANCH  31  39
ENDBRANCH  27  28
ENDBRANCH  23  27
ENDBRANCH  13  14
ENDBRANCH   4  13
ENDBRANCH   1   4
BRANCH   1  56
HETATM   56  C   UNL     1     -12.211  11.571  64.240  1.00  0.00     0.175 C  
HETATM   57  O   UNL     1     -12.536  11.588  62.848  1.00  0.00    -0.946 OA 
HETATM   58  H   UNL     1     -13.429  11.282  62.736  1.00  0.00     0.000 HD 
ENDBRANCH   1  56
TORSDOF 12
ENDMDL
MODEL      224
REMARK 921   NORMALIZED FREE ENERGY PREDICTED BY IDOCK:   -2.21 KCAL/MOL
REMARK 922        TOTAL FREE ENERGY PREDICTED BY IDOCK:   -6.96 KCAL/MOL
REMARK 923 INTER-LIGAND FREE ENERGY PREDICTED BY IDOCK:   -6.98 KCAL/MOL
REMARK 924 INTRA-LIGAND FREE ENERGY PREDICTED BY IDOCK:    0.02 KCAL/MOL
REMARK 927      BINDING AFFINITY PREDICTED BY RF-SCORE:    0.00 PKD
ROOT
HETATM    1  C   UNL     1     -11.575  13.861  65.548  1.00  0.00    -0.327 C  
HETATM    2  H   UNL     1     -12.599  12.535  66.524  1.00  0.00     0.000 HD 
HETATM    3  O   UNL     1     -12.811  13.234  65.915  1.00  0.00    -0.360 OA 
ENDROOT
BRANCH   1   4
HETATM    4  C   UNL     1     -10.528  12.850  64.992  1.00  0.00    -0.318 C  
BRANCH   4   5
HETATM    5  C   UNL     1     -11.144  11.446  64.700  1.00  0.00    -0.207 C  
HETATM    6  O   UNL     1     -11.394  10.718  65.913  1.00  0.00     0.156 OA 
HETATM    7  H   UNL     1     -11.769   9.864  65.735  1.00  0.00     0.000 HD 
BRANCH   5   8
HETATM    8  C   UNL     1     -10.290  10.542  63.802  1.00  0.00     0.038 C  
HETATM    9  C   UNL     1      -9.204   9.849  64.595  1.00  0.00    -0.258 C  
HETATM   10  O   UNL     1      -9.670  11.374  62.808  1.00  0.00    -0.538 OA 
HETATM   11  O   UNL     1      -9.364   8.749  65.121  1.00  0.00    -0.073 OA 
HETATM   12  H   UNL     1      -9.141  10.814  62.252  1.00  0.00     0.000 HD 
ENDBRANCH   5   8
ENDBRANCH   4   5
BRANCH   4  13
HETATM   13  O   UNL     1      -9.380  12.699  65.862  1.00  0.00    -0.147 OA 
BRANCH  13  14
HETATM   14  C   UNL     1      -9.539  13.261  67.175  1.00  0.00    -0.240 C  
HETATM   15  H   UNL     1      -5.685  13.531  68.186  1.00  0.00     0.000 HD 
HETATM   16  O   UNL     1      -7.481  14.642  66.953  1.00  0.00    -0.287 OA 
HETATM   17  C   UNL     1      -8.172  13.667  67.751  1.00  0.00    -0.179 C  
HETATM   18  O   UNL     1     -10.158  12.381  68.102  1.00  0.00    -0.211 OA 
HETATM   19  O   UNL     1      -6.109  12.811  68.638  1.00  0.00    -0.062 OA 
HETATM   20  C   UNL     1      -9.465  11.142  68.283  1.00  0.00    -0.182 C  
HETATM   21  H   UNL     1      -6.636  14.892  67.308  1.00  0.00     0.000 HD 
HETATM   22  C   UNL     1      -7.284  12.438  67.889  1.00  0.00    -0.110 C  
HETATM   23  C   UNL     1      -7.969  11.272  68.619  1.00  0.00    -0.145 C  
BRANCH  20  24
HETATM   24  C   UNL     1     -10.236  10.338  69.355  1.00  0.00    -0.235 C  
HETATM   25  O   UNL     1     -11.579  10.018  68.985  1.00  0.00    -0.476 OA 
HETATM   26  H   UNL     1     -12.052   9.524  69.644  1.00  0.00     0.000 HD 
ENDBRANCH  20  24
BRANCH  23  27
HETATM   27  O   UNL     1      -7.362  10.002  68.249  1.00  0.00    -0.077 OA 
BRANCH  27  28
HETATM   28  C   UNL     1      -5.998   9.878  68.671  1.00  0.00    -0.038 C  
HETATM   29  O   UNL     1      -5.900   9.989  70.083  1.00  0.00    -0.043 OA 
HETATM   30  C   UNL     1      -6.638   8.969  70.761  1.00  0.00    -0.063 C  
HETATM   31  C   UNL     1      -6.010   7.586  70.453  1.00  0.00    -0.027 C  
HETATM   32  C   UNL     1      -6.636   9.366  72.235  1.00  0.00     0.423 C  
HETATM   33  C   UNL     1      -6.015   7.358  68.917  1.00  0.00    -0.026 C  
HETATM   34  H   UNL     1      -5.237   6.062  67.632  1.00  0.00     0.000 HD 
HETATM   35  C   UNL     1      -5.400   8.551  68.180  1.00  0.00    -0.034 C  
HETATM   36  O   UNL     1      -5.233   6.201  68.572  1.00  0.00    -0.006 OA 
HETATM   37  O   UNL     1      -5.557   8.388  66.759  1.00  0.00    -0.035 OA 
HETATM   38  H   UNL     1      -5.187   7.568  66.456  1.00  0.00     0.000 HD 
BRANCH  31  39
HETATM   39  N   UNL     1      -6.713   6.532  71.225  1.00  0.00    -0.057 NA 
HETATM   40  H   UNL     1      -6.260   5.652  71.474  1.00  0.00     0.000 HD 
BRANCH  39  41
HETATM   41  C   UNL     1      -8.121   6.834  71.615  1.00  0.00    -0.106 C  
HETATM   42  C   UNL     1      -9.930   6.881  69.844  1.00  0.00    -0.185 C  
HETATM   43  C   UNL     1      -8.863   7.408  70.446  1.00  0.00    -0.149 C  
HETATM   44  C   UNL     1     -10.594   5.638  70.372  1.00  0.00    -0.294 C  
HETATM   45  H   UNL     1      -8.277   3.587  72.176  1.00  0.00     0.000 HD 
HETATM   46  O   UNL     1      -7.906   4.388  71.825  1.00  0.00    -0.082 OA 
HETATM   47  C   UNL     1     -10.189   5.215  71.807  1.00  0.00    -0.209 C  
HETATM   48  O   UNL     1     -10.341   4.584  69.446  1.00  0.00    -0.056 OA 
HETATM   49  H   UNL     1     -10.812   5.576  73.646  1.00  0.00     0.000 HD 
HETATM   50  O   UNL     1     -11.061   5.835  72.766  1.00  0.00    -0.252 OA 
HETATM   51  C   UNL     1      -8.733   5.515  72.193  1.00  0.00    -0.130 C  
HETATM   52  H   UNL     1     -10.760   3.799  69.779  1.00  0.00     0.000 HD 
BRANCH  42  53
HETATM   53  C   UNL     1     -10.545   7.462  68.590  1.00  0.00    -0.154 C  
HETATM   54  O   UNL     1      -9.571   8.048  67.733  1.00  0.00    -0.145 OA 
HETATM   55  H   UNL     1      -9.958   8.414  66.945  1.00  0.00     0.000 HD 
ENDBRANCH  42  53
ENDBRANCH  39  41
ENDBRANCH  31  39
ENDBRANCH  27  28
ENDBRANCH  23  27
ENDBRANCH  13  14
ENDBRANCH   4  13
ENDBRANCH   1   4
BRANCH   1  56
HETATM   56  C   UNL     1     -11.916  14.985  64.567  1.00  0.00    -0.371 C  
HETATM   57  O   UNL     1     -12.825  14.483  63.583  1.00  0.00    -0.702 OA 
HETATM   58  H   UNL     1     -13.037  15.181  62.975  1.00  0.00     0.000 HD 
ENDBRANCH   1  56
TORSDOF 12
ENDMDL
MODEL      225
REMARK 921   NORMALIZED FREE ENERGY PREDICTED BY IDOCK:   -2.21 KCAL/MOL
REMARK 922        TOTAL FREE ENERGY PREDICTED BY IDOCK:   -6.95 KCAL/MOL
REMARK 923 INTER-LIGAND FREE ENERGY PREDICTED BY IDOCK:  -10.45 KCAL/MOL
REMARK 924 INTRA-LIGAND FREE ENERGY PREDICTED BY IDOCK:    3.50 KCAL/MOL
REMARK 927      BINDING AFFINITY PREDICTED BY RF-SCORE:    0.00 PKD
ROOT
HETATM    1  C   UNL     1     -10.079   5.267  72.652  1.00  0.00    -0.174 C  
HETATM    2  H   UNL     1     -11.193   6.551  73.583  1.00  0.00     0.000 HD 
HETATM    3  O   UNL     1     -10.410   6.059  73.800  1.00  0.00    -0.226 OA 
ENDROOT
BRANCH   1   4
HETATM    4  C   UNL     1      -9.936   6.116  71.354  1.00  0.00    -0.187 C  
BRANCH   4   5
HETATM    5  C   UNL     1     -10.436   5.360  70.083  1.00  0.00    -0.290 C  
HETATM    6  O   UNL     1      -9.356   5.074  69.182  1.00  0.00    -0.108 OA 
HETATM    7  H   UNL     1      -9.660   4.613  68.409  1.00  0.00     0.000 HD 
BRANCH   5   8
HETATM    8  C   UNL     1     -11.511   6.100  69.276  1.00  0.00    -0.127 C  
HETATM    9  C   UNL     1     -10.890   7.063  68.289  1.00  0.00    -0.141 C  
HETATM   10  O   UNL     1     -12.315   6.849  70.202  1.00  0.00    -0.628 OA 
HETATM   11  O   UNL     1     -10.603   6.743  67.138  1.00  0.00    -0.250 OA 
HETATM   12  H   UNL     1     -12.980   7.306  69.702  1.00  0.00     0.000 HD 
ENDBRANCH   5   8
ENDBRANCH   4   5
BRANCH   4  13
HETATM   13  O   UNL     1      -8.581   6.578  71.135  1.00  0.00    -0.129 OA 
BRANCH  13  14
HETATM   14  C   UNL     1      -8.226   7.772  71.852  1.00  0.00    -0.109 C  
HETATM   15  H   UNL     1     -11.230  10.113  70.652  1.00  0.00     0.000 HD 
HETATM   16  O   UNL     1     -10.607   8.372  72.252  1.00  0.00    -0.297 OA 
HETATM   17  C   UNL     1      -9.345   8.820  71.731  1.00  0.00    -0.280 C  
HETATM   18  O   UNL     1      -7.019   8.371  71.402  1.00  0.00    -0.058 OA 
HETATM   19  O   UNL     1     -10.419  10.347  70.217  1.00  0.00    -0.227 OA 
HETATM   20  C   UNL     1      -7.025   8.728  70.016  1.00  0.00    -0.043 C  
HETATM   21  H   UNL     1     -11.298   9.020  72.177  1.00  0.00     0.000 HD 
HETATM   22  C   UNL     1      -9.535   9.208  70.271  1.00  0.00    -0.219 C  
HETATM   23  C   UNL     1      -8.222   9.585  69.567  1.00  0.00    -0.134 C  
BRANCH  20  24
HETATM   24  C   UNL     1      -5.672   9.410  69.712  1.00  0.00    -0.032 C  
HETATM   25  O   UNL     1      -5.491  10.663  70.376  1.00  0.00    -0.057 OA 
HETATM   26  H   UNL     1      -4.659  11.081  70.188  1.00  0.00     0.000 HD 
ENDBRANCH  20  24
BRANCH  23  27
HETATM   27  O   UNL     1      -8.334   9.397  68.128  1.00  0.00    -0.117 OA 
BRANCH  27  28
HETATM   28  C   UNL     1      -7.841  10.508  67.369  1.00  0.00    -0.106 C  
HETATM   29  O   UNL     1      -8.318  10.450  66.032  1.00  0.00    -0.137 OA 
HETATM   30  C   UNL     1      -9.745  10.500  65.962  1.00  0.00    -0.205 C  
HETATM   31  C   UNL     1     -10.240  11.877  66.473  1.00  0.00    -0.203 C  
HETATM   32  C   UNL     1     -10.099  10.183  64.511  1.00  0.00    -0.158 C  
HETATM   33  C   UNL     1      -9.740  12.086  67.928  1.00  0.00    -0.194 C  
HETATM   34  H   UNL     1      -9.668  13.567  69.246  1.00  0.00     0.000 HD 
HETATM   35  C   UNL     1      -8.234  11.835  68.036  1.00  0.00    -0.152 C  
HETATM   36  O   UNL     1      -9.974  13.439  68.356  1.00  0.00    -0.235 OA 
HETATM   37  O   UNL     1      -7.824  11.880  69.414  1.00  0.00    -0.327 OA 
HETATM   38  H   UNL     1      -8.066  12.700  69.827  1.00  0.00     0.000 HD 
BRANCH  31  39
HETATM   39  N   UNL     1     -11.712  11.971  66.317  1.00  0.00    -0.547 NA 
HETATM   40  H   UNL     1     -12.324  11.168  66.467  1.00  0.00     0.000 HD 
BRANCH  39  41
HETATM   41  C   UNL     1     -12.246  13.309  65.927  1.00  0.00    -0.441 C  
HETATM   42  C   UNL     1     -11.568  15.361  67.246  1.00  0.00    -0.094 C  
HETATM   43  C   UNL     1     -12.251  14.223  67.115  1.00  0.00    -0.312 C  
HETATM   44  C   UNL     1     -10.758  15.925  66.110  1.00  0.00    -0.271 C  
HETATM   45  H   UNL     1      -9.654  13.342  63.888  1.00  0.00     0.000 HD 
HETATM   46  O   UNL     1     -10.173  13.037  64.622  1.00  0.00    -0.338 OA 
HETATM   47  C   UNL     1     -11.032  15.307  64.715  1.00  0.00    -0.386 C  
HETATM   48  O   UNL     1      -9.381  15.801  66.455  1.00  0.00    -0.239 OA 
HETATM   49  H   UNL     1     -12.246  15.654  63.197  1.00  0.00     0.000 HD 
HETATM   50  O   UNL     1     -12.079  16.033  64.052  1.00  0.00    -0.810 OA 
HETATM   51  C   UNL     1     -11.389  13.813  64.719  1.00  0.00    -0.360 C  
HETATM   52  H   UNL     1      -8.870  16.156  65.738  1.00  0.00     0.000 HD 
BRANCH  42  53
HETATM   53  C   UNL     1     -11.532  16.163  68.528  1.00  0.00    -0.324 C  
HETATM   54  O   UNL     1     -12.411  15.638  69.517  1.00  0.00    -0.571 OA 
HETATM   55  H   UNL     1     -12.389  16.142  70.323  1.00  0.00     0.000 HD 
ENDBRANCH  42  53
ENDBRANCH  39  41
ENDBRANCH  31  39
ENDBRANCH  27  28
ENDBRANCH  23  27
ENDBRANCH  13  14
ENDBRANCH   4  13
ENDBRANCH   1   4
BRANCH   1  56
HETATM   56  C   UNL     1      -8.818   4.473  73.003  1.00  0.00    -0.114 C  
HETATM   57  O   UNL     1      -9.118   3.077  72.947  1.00  0.00    -0.086 OA 
HETATM   58  H   UNL     1      -8.335   2.584  73.165  1.00  0.00     0.000 HD 
ENDBRANCH   1  56
TORSDOF 12
ENDMDL
MODEL      226
REMARK 921   NORMALIZED FREE ENERGY PREDICTED BY IDOCK:   -2.20 KCAL/MOL
REMARK 922        TOTAL FREE ENERGY PREDICTED BY IDOCK:   -6.94 KCAL/MOL
REMARK 923 INTER-LIGAND FREE ENERGY PREDICTED BY IDOCK:   -7.18 KCAL/MOL
REMARK 924 INTRA-LIGAND FREE ENERGY PREDICTED BY IDOCK:    0.23 KCAL/MOL
REMARK 927      BINDING AFFINITY PREDICTED BY RF-SCORE:    0.00 PKD
ROOT
HETATM    1  C   UNL     1     -11.337  13.456  67.038  1.00  0.00    -0.317 C  
HETATM    2  H   UNL     1     -11.660  14.399  68.701  1.00  0.00     0.000 HD 
HETATM    3  O   UNL     1     -12.203  14.104  67.979  1.00  0.00    -0.310 OA 
ENDROOT
BRANCH   1   4
HETATM    4  C   UNL     1     -10.490  12.318  67.683  1.00  0.00    -0.214 C  
BRANCH   4   5
HETATM    5  C   UNL     1     -11.373  11.199  68.320  1.00  0.00    -0.297 C  
HETATM    6  O   UNL     1     -12.771  11.509  68.216  1.00  0.00     0.413 OA 
HETATM    7  H   UNL     1     -13.308  10.828  68.603  1.00  0.00     0.000 HD 
BRANCH   5   8
HETATM    8  C   UNL     1     -11.084  10.917  69.800  1.00  0.00    -0.262 C  
HETATM    9  C   UNL     1     -11.589   9.551  70.207  1.00  0.00    -0.169 C  
HETATM   10  O   UNL     1     -11.775  11.909  70.577  1.00  0.00    -0.508 OA 
HETATM   11  O   UNL     1     -10.895   8.538  70.139  1.00  0.00    -0.235 OA 
HETATM   12  H   UNL     1     -11.596  11.734  71.493  1.00  0.00     0.000 HD 
ENDBRANCH   5   8
ENDBRANCH   4   5
BRANCH   4  13
HETATM   13  O   UNL     1      -9.552  12.811  68.671  1.00  0.00    -0.148 OA 
BRANCH  13  14
HETATM   14  C   UNL     1      -8.190  12.898  68.221  1.00  0.00    -0.153 C  
HETATM   15  H   UNL     1      -8.543  10.831  64.822  1.00  0.00     0.000 HD 
HETATM   16  O   UNL     1      -8.872  13.034  65.832  1.00  0.00    -0.292 OA 
HETATM   17  C   UNL     1      -8.063  12.339  66.794  1.00  0.00    -0.024 C  
HETATM   18  O   UNL     1      -7.270  12.199  69.047  1.00  0.00    -0.103 OA 
HETATM   19  O   UNL     1      -8.102  10.320  65.491  1.00  0.00    -0.145 OA 
HETATM   20  C   UNL     1      -7.553  10.803  69.184  1.00  0.00    -0.133 C  
HETATM   21  H   UNL     1      -8.793  12.688  64.951  1.00  0.00     0.000 HD 
HETATM   22  C   UNL     1      -8.451  10.867  66.779  1.00  0.00    -0.139 C  
HETATM   23  C   UNL     1      -7.738  10.039  67.861  1.00  0.00    -0.090 C  
BRANCH  20  24
HETATM   24  C   UNL     1      -6.434  10.192  70.059  1.00  0.00    -0.106 C  
HETATM   25  O   UNL     1      -6.910   9.539  71.237  1.00  0.00    -0.281 OA 
HETATM   26  H   UNL     1      -6.222   9.164  71.774  1.00  0.00     0.000 HD 
ENDBRANCH  20  24
BRANCH  23  27
HETATM   27  O   UNL     1      -8.504   8.846  68.188  1.00  0.00    -0.127 OA 
BRANCH  27  28
HETATM   28  C   UNL     1      -8.370   7.799  67.219  1.00  0.00    -0.118 C  
HETATM   29  O   UNL     1      -7.133   7.122  67.382  1.00  0.00    -0.079 OA 
HETATM   30  C   UNL     1      -7.013   6.514  68.670  1.00  0.00    -0.080 C  
HETATM   31  C   UNL     1      -8.071   5.390  68.812  1.00  0.00    -0.087 C  
HETATM   32  C   UNL     1      -5.561   6.052  68.776  1.00  0.00    -0.011 C  
HETATM   33  C   UNL     1      -9.485   5.998  68.606  1.00  0.00    -0.124 C  
HETATM   34  H   UNL     1     -11.338   5.331  68.369  1.00  0.00     0.000 HD 
HETATM   35  C   UNL     1      -9.550   6.820  67.317  1.00  0.00    -0.137 C  
HETATM   36  O   UNL     1     -10.473   4.959  68.495  1.00  0.00    -0.034 OA 
HETATM   37  O   UNL     1     -10.816   7.498  67.227  1.00  0.00    -0.462 OA 
HETATM   38  H   UNL     1     -11.545   6.893  67.287  1.00  0.00     0.000 HD 
BRANCH  31  39
HETATM   39  N   UNL     1      -7.893   4.692  70.109  1.00  0.00    -0.060 NA 
HETATM   40  H   UNL     1      -7.804   3.677  70.169  1.00  0.00     0.000 HD 
BRANCH  39  41
HETATM   41  C   UNL     1      -7.850   5.562  71.321  1.00  0.00    -0.110 C  
HETATM   42  C   UNL     1      -9.919   5.808  72.760  1.00  0.00    -0.196 C  
HETATM   43  C   UNL     1      -9.228   6.054  71.646  1.00  0.00    -0.153 C  
HETATM   44  C   UNL     1      -9.308   5.054  73.911  1.00  0.00    -0.124 C  
HETATM   45  H   UNL     1      -6.732   2.831  72.794  1.00  0.00     0.000 HD 
HETATM   46  O   UNL     1      -7.148   3.333  72.103  1.00  0.00    -0.036 OA 
HETATM   47  C   UNL     1      -7.767   4.886  73.864  1.00  0.00    -0.098 C  
HETATM   48  O   UNL     1      -9.952   3.786  73.990  1.00  0.00    -0.113 OA 
HETATM   49  H   UNL     1      -6.187   5.888  74.496  1.00  0.00     0.000 HD 
HETATM   50  O   UNL     1      -7.132   5.992  74.524  1.00  0.00    -0.090 OA 
HETATM   51  C   UNL     1      -7.167   4.734  72.459  1.00  0.00    -0.082 C  
HETATM   52  H   UNL     1      -9.566   3.310  74.716  1.00  0.00     0.000 HD 
BRANCH  42  53
HETATM   53  C   UNL     1     -11.355   6.239  72.957  1.00  0.00    -0.082 C  
HETATM   54  O   UNL     1     -12.240   5.130  73.079  1.00  0.00    -0.472 OA 
HETATM   55  H   UNL     1     -13.142   5.401  73.203  1.00  0.00     0.000 HD 
ENDBRANCH  42  53
ENDBRANCH  39  41
ENDBRANCH  31  39
ENDBRANCH  27  28
ENDBRANCH  23  27
ENDBRANCH  13  14
ENDBRANCH   4  13
ENDBRANCH   1   4
BRANCH   1  56
HETATM   56  C   UNL     1     -12.212  12.980  65.876  1.00  0.00    -0.432 C  
HETATM   57  O   UNL     1     -11.876  13.730  64.706  1.00  0.00    -0.357 OA 
HETATM   58  H   UNL     1     -12.419  13.434  63.984  1.00  0.00     0.000 HD 
ENDBRANCH   1  56
TORSDOF 12
ENDMDL
MODEL      227
REMARK 921   NORMALIZED FREE ENERGY PREDICTED BY IDOCK:   -2.20 KCAL/MOL
REMARK 922        TOTAL FREE ENERGY PREDICTED BY IDOCK:   -6.93 KCAL/MOL
REMARK 923 INTER-LIGAND FREE ENERGY PREDICTED BY IDOCK:   -7.90 KCAL/MOL
REMARK 924 INTRA-LIGAND FREE ENERGY PREDICTED BY IDOCK:    0.97 KCAL/MOL
REMARK 927      BINDING AFFINITY PREDICTED BY RF-SCORE:    0.00 PKD
ROOT
HETATM    1  C   UNL     1      -9.396   3.015  65.874  1.00  0.00    -0.077 C  
HETATM    2  H   UNL     1      -9.090   1.723  67.286  1.00  0.00     0.000 HD 
HETATM    3  O   UNL     1      -9.243   1.672  66.350  1.00  0.00    -0.074 OA 
ENDROOT
BRANCH   1   4
HETATM    4  C   UNL     1      -8.196   3.932  66.257  1.00  0.00    -0.104 C  
BRANCH   4   5
HETATM    5  C   UNL     1      -6.815   3.260  65.978  1.00  0.00    -0.052 C  
HETATM    6  O   UNL     1      -5.986   3.256  67.150  1.00  0.00    -0.023 OA 
HETATM    7  H   UNL     1      -5.145   2.847  66.981  1.00  0.00     0.000 HD 
BRANCH   5   8
HETATM    8  C   UNL     1      -5.999   3.909  64.853  1.00  0.00    -0.022 C  
HETATM    9  C   UNL     1      -6.579   5.248  64.456  1.00  0.00    -0.042 C  
HETATM   10  O   UNL     1      -6.050   3.034  63.715  1.00  0.00    -0.017 OA 
HETATM   11  O   UNL     1      -6.230   6.305  64.978  1.00  0.00    -0.029 OA 
HETATM   12  H   UNL     1      -5.545   3.436  63.018  1.00  0.00     0.000 HD 
ENDBRANCH   5   8
ENDBRANCH   4   5
BRANCH   4  13
HETATM   13  O   UNL     1      -8.246   4.372  67.636  1.00  0.00    -0.098 OA 
BRANCH  13  14
HETATM   14  C   UNL     1      -9.557   4.364  68.225  1.00  0.00    -0.138 C  
HETATM   15  H   UNL     1     -10.844   7.899  66.886  1.00  0.00     0.000 HD 
HETATM   16  O   UNL     1     -10.561   5.547  66.280  1.00  0.00    -0.411 OA 
HETATM   17  C   UNL     1     -10.383   5.552  67.706  1.00  0.00    -0.189 C  
HETATM   18  O   UNL     1      -9.545   4.429  69.644  1.00  0.00    -0.171 OA 
HETATM   19  O   UNL     1     -10.623   7.941  67.809  1.00  0.00    -0.223 OA 
HETATM   20  C   UNL     1      -8.881   5.582  70.170  1.00  0.00    -0.136 C  
HETATM   21  H   UNL     1     -11.071   6.281  65.960  1.00  0.00     0.000 HD 
HETATM   22  C   UNL     1      -9.715   6.860  68.105  1.00  0.00    -0.131 C  
HETATM   23  C   UNL     1      -9.357   6.929  69.598  1.00  0.00    -0.145 C  
BRANCH  20  24
HETATM   24  C   UNL     1      -9.009   5.523  71.710  1.00  0.00    -0.136 C  
HETATM   25  O   UNL     1      -8.244   6.516  72.394  1.00  0.00    -0.106 OA 
HETATM   26  H   UNL     1      -8.323   6.480  73.340  1.00  0.00     0.000 HD 
ENDBRANCH  20  24
BRANCH  23  27
HETATM   27  O   UNL     1      -8.271   7.870  69.828  1.00  0.00    -0.117 OA 
BRANCH  27  28
HETATM   28  C   UNL     1      -8.570   8.851  70.829  1.00  0.00    -0.199 C  
HETATM   29  O   UNL     1      -7.748   9.997  70.666  1.00  0.00    -0.268 OA 
HETATM   30  C   UNL     1      -7.939  10.628  69.398  1.00  0.00    -0.111 C  
HETATM   31  C   UNL     1      -9.380  11.191  69.313  1.00  0.00     0.146 C  
HETATM   32  C   UNL     1      -6.829  11.670  69.282  1.00  0.00    -0.104 C  
HETATM   33  C   UNL     1     -10.390  10.030  69.523  1.00  0.00    -0.235 C  
HETATM   34  H   UNL     1     -12.342   9.831  69.815  1.00  0.00     0.000 HD 
HETATM   35  C   UNL     1     -10.058   9.231  70.785  1.00  0.00    -0.291 C  
HETATM   36  O   UNL     1     -11.725  10.542  69.686  1.00  0.00    -0.258 OA 
HETATM   37  O   UNL     1     -10.907   8.073  70.874  1.00  0.00    -0.223 OA 
HETATM   38  H   UNL     1     -11.827   8.308  70.847  1.00  0.00     0.000 HD 
BRANCH  31  39
HETATM   39  N   UNL     1      -9.558  11.927  68.037  1.00  0.00    -0.187 NA 
HETATM   40  H   UNL     1      -9.307  12.912  67.942  1.00  0.00     0.000 HD 
BRANCH  39  41
HETATM   41  C   UNL     1     -10.125  11.142  66.901  1.00  0.00    -0.214 C  
HETATM   42  C   UNL     1     -11.463  12.324  65.105  1.00  0.00    -0.390 C  
HETATM   43  C   UNL     1     -11.325  11.845  66.342  1.00  0.00    -0.400 C  
HETATM   44  C   UNL     1     -10.406  12.103  64.057  1.00  0.00    -0.385 C  
HETATM   45  H   UNL     1      -7.171  11.679  65.534  1.00  0.00     0.000 HD 
HETATM   46  O   UNL     1      -7.875  11.819  66.157  1.00  0.00     0.094 OA 
HETATM   47  C   UNL     1      -9.340  11.027  64.390  1.00  0.00    -0.195 C  
HETATM   48  O   UNL     1      -9.788  13.360  63.792  1.00  0.00    -0.543 OA 
HETATM   49  H   UNL     1      -9.123   9.083  64.125  1.00  0.00     0.000 HD 
HETATM   50  O   UNL     1      -9.777   9.741  63.921  1.00  0.00    -0.082 OA 
HETATM   51  C   UNL     1      -8.966  10.913  65.874  1.00  0.00    -0.192 C  
HETATM   52  H   UNL     1      -9.121  13.220  63.131  1.00  0.00     0.000 HD 
BRANCH  42  53
HETATM   53  C   UNL     1     -12.661  13.132  64.658  1.00  0.00    -0.322 C  
HETATM   54  O   UNL     1     -12.381  14.527  64.603  1.00  0.00    -0.474 OA 
HETATM   55  H   UNL     1     -13.134  15.034  64.322  1.00  0.00     0.000 HD 
ENDBRANCH  42  53
ENDBRANCH  39  41
ENDBRANCH  31  39
ENDBRANCH  27  28
ENDBRANCH  23  27
ENDBRANCH  13  14
ENDBRANCH   4  13
ENDBRANCH   1   4
BRANCH   1  56
HETATM   56  C   UNL     1      -9.642   2.932  64.365  1.00  0.00    -0.151 C  
HETATM   57  O   UNL     1     -10.943   3.453  64.079  1.00  0.00    -0.479 OA 
HETATM   58  H   UNL     1     -11.096   3.401  63.142  1.00  0.00     0.000 HD 
ENDBRANCH   1  56
TORSDOF 12
ENDMDL
MODEL      228
REMARK 921   NORMALIZED FREE ENERGY PREDICTED BY IDOCK:   -2.10 KCAL/MOL
REMARK 922        TOTAL FREE ENERGY PREDICTED BY IDOCK:   -6.76 KCAL/MOL
REMARK 923 INTER-LIGAND FREE ENERGY PREDICTED BY IDOCK:   -5.70 KCAL/MOL
REMARK 924 INTRA-LIGAND FREE ENERGY PREDICTED BY IDOCK:   -1.05 KCAL/MOL
REMARK 927      BINDING AFFINITY PREDICTED BY RF-SCORE:    0.00 PKD
ROOT
HETATM    1  C   UNL     1      -7.457   5.476  66.692  1.00  0.00    -0.087 C  
HETATM    2  H   UNL     1      -6.618   4.226  65.471  1.00  0.00     0.000 HD 
HETATM    3  O   UNL     1      -6.926   4.184  66.369  1.00  0.00    -0.057 OA 
ENDROOT
BRANCH   1   4
HETATM    4  C   UNL     1      -8.546   5.950  65.685  1.00  0.00    -0.155 C  
BRANCH   4   5
HETATM    5  C   UNL     1      -8.446   5.224  64.306  1.00  0.00    -0.115 C  
HETATM    6  O   UNL     1      -8.909   6.062  63.236  1.00  0.00    -0.321 OA 
HETATM    7  H   UNL     1      -8.848   5.621  62.397  1.00  0.00     0.000 HD 
BRANCH   5   8
HETATM    8  C   UNL     1      -9.227   3.907  64.215  1.00  0.00    -0.146 C  
HETATM    9  C   UNL     1     -10.336   3.853  65.242  1.00  0.00    -0.028 C  
HETATM   10  O   UNL     1      -8.308   2.835  64.479  1.00  0.00    -0.086 OA 
HETATM   11  O   UNL     1     -11.476   4.253  65.011  1.00  0.00    -0.127 OA 
HETATM   12  H   UNL     1      -8.791   2.019  64.422  1.00  0.00     0.000 HD 
ENDBRANCH   5   8
ENDBRANCH   4   5
BRANCH   4  13
HETATM   13  O   UNL     1      -8.528   7.383  65.475  1.00  0.00    -0.144 OA 
BRANCH  13  14
HETATM   14  C   UNL     1      -7.454   7.859  64.647  1.00  0.00    -0.101 C  
HETATM   15  H   UNL     1      -5.870  10.512  67.177  1.00  0.00     0.000 HD 
HETATM   16  O   UNL     1      -5.929   8.138  66.593  1.00  0.00    -0.043 OA 
HETATM   17  C   UNL     1      -6.525   8.781  65.455  1.00  0.00    -0.067 C  
HETATM   18  O   UNL     1      -7.891   8.577  63.502  1.00  0.00    -0.135 OA 
HETATM   19  O   UNL     1      -6.358  10.946  66.486  1.00  0.00    -0.102 OA 
HETATM   20  C   UNL     1      -8.697   9.721  63.802  1.00  0.00    -0.224 C  
HETATM   21  H   UNL     1      -5.356   8.708  67.092  1.00  0.00     0.000 HD 
HETATM   22  C   UNL     1      -7.299  10.000  65.938  1.00  0.00    -0.115 C  
HETATM   23  C   UNL     1      -8.089  10.701  64.821  1.00  0.00    -0.004 C  
BRANCH  20  24
HETATM   24  C   UNL     1      -9.035  10.409  62.459  1.00  0.00    -0.270 C  
HETATM   25  O   UNL     1      -8.587  11.763  62.373  1.00  0.00    -0.532 OA 
HETATM   26  H   UNL     1      -8.794  12.185  61.547  1.00  0.00     0.000 HD 
ENDBRANCH  20  24
BRANCH  23  27
HETATM   27  O   UNL     1      -9.205  11.455  65.370  1.00  0.00    -0.210 OA 
BRANCH  27  28
HETATM   28  C   UNL     1     -10.457  10.762  65.285  1.00  0.00    -0.212 C  
HETATM   29  O   UNL     1     -10.710  10.039  66.481  1.00  0.00    -0.136 OA 
HETATM   30  C   UNL     1     -10.785  10.892  67.626  1.00  0.00    -0.242 C  
HETATM   31  C   UNL     1     -12.012  11.829  67.493  1.00  0.00    -0.002 C  
HETATM   32  C   UNL     1     -10.811   9.960  68.835  1.00  0.00    -0.239 C  
HETATM   33  C   UNL     1     -11.878  12.655  66.184  1.00  0.00    -0.418 C  
HETATM   34  H   UNL     1     -13.018  13.865  65.102  1.00  0.00     0.000 HD 
HETATM   35  C   UNL     1     -11.599  11.746  64.985  1.00  0.00    -0.147 C  
HETATM   36  O   UNL     1     -13.100  13.360  65.902  1.00  0.00    -0.203 OA 
HETATM   37  O   UNL     1     -11.325  12.540  63.817  1.00  0.00    -0.395 OA 
HETATM   38  H   UNL     1     -12.030  13.148  63.631  1.00  0.00     0.000 HD 
BRANCH  31  39
HETATM   39  N   UNL     1     -12.150  12.653  68.719  1.00  0.00    -0.208 NA 
HETATM   40  H   UNL     1     -13.057  12.837  69.147  1.00  0.00     0.000 HD 
BRANCH  39  41
HETATM   41  C   UNL     1     -10.882  13.198  69.289  1.00  0.00    -0.006 C  
HETATM   42  C   UNL     1      -9.468  14.783  67.911  1.00  0.00    -0.201 C  
HETATM   43  C   UNL     1      -9.941  13.566  68.182  1.00  0.00    -0.240 C  
HETATM   44  C   UNL     1      -9.769  15.957  68.802  1.00  0.00    -0.216 C  
HETATM   45  H   UNL     1     -12.869  15.515  70.541  1.00  0.00     0.000 HD 
HETATM   46  O   UNL     1     -12.632  14.796  69.966  1.00  0.00    -0.301 OA 
HETATM   47  C   UNL     1     -10.357  15.614  70.195  1.00  0.00    -0.254 C  
HETATM   48  O   UNL     1     -10.641  16.831  68.089  1.00  0.00    -0.319 OA 
HETATM   49  H   UNL     1      -9.655  15.223  71.999  1.00  0.00     0.000 HD 
HETATM   50  O   UNL     1      -9.294  15.433  71.145  1.00  0.00     1.590 OA 
HETATM   51  C   UNL     1     -11.273  14.382  70.234  1.00  0.00    -0.051 C  
HETATM   52  H   UNL     1     -10.831  17.572  68.652  1.00  0.00     0.000 HD 
BRANCH  42  53
HETATM   53  C   UNL     1      -8.618  15.091  66.698  1.00  0.00    -0.211 C  
HETATM   54  O   UNL     1      -8.972  14.291  65.574  1.00  0.00    -0.052 OA 
HETATM   55  H   UNL     1      -8.438  14.484  64.812  1.00  0.00     0.000 HD 
ENDBRANCH  42  53
ENDBRANCH  39  41
ENDBRANCH  31  39
ENDBRANCH  27  28
ENDBRANCH  23  27
ENDBRANCH  13  14
ENDBRANCH   4  13
ENDBRANCH   1   4
BRANCH   1  56
HETATM   56  C   UNL     1      -7.953   5.408  68.139  1.00  0.00    -0.095 C  
HETATM   57  O   UNL     1      -8.095   4.036  68.516  1.00  0.00    -0.075 OA 
HETATM   58  H   UNL     1      -8.404   3.994  69.414  1.00  0.00     0.000 HD 
ENDBRANCH   1  56
TORSDOF 12
ENDMDL
MODEL      229
REMARK 921   NORMALIZED FREE ENERGY PREDICTED BY IDOCK:   -2.04 KCAL/MOL
REMARK 922        TOTAL FREE ENERGY PREDICTED BY IDOCK:   -6.67 KCAL/MOL
REMARK 923 INTER-LIGAND FREE ENERGY PREDICTED BY IDOCK:   -9.58 KCAL/MOL
REMARK 924 INTRA-LIGAND FREE ENERGY PREDICTED BY IDOCK:    2.91 KCAL/MOL
REMARK 927      BINDING AFFINITY PREDICTED BY RF-SCORE:    0.00 PKD
ROOT
HETATM    1  C   UNL     1      -8.011   7.219  65.205  1.00  0.00    -0.127 C  
HETATM    2  H   UNL     1      -6.618   6.699  66.450  1.00  0.00     0.000 HD 
HETATM    3  O   UNL     1      -6.673   6.802  65.506  1.00  0.00    -0.049 OA 
ENDROOT
BRANCH   1   4
HETATM    4  C   UNL     1      -8.438   8.492  65.994  1.00  0.00    -0.140 C  
BRANCH   4   5
HETATM    5  C   UNL     1      -8.794   8.185  67.483  1.00  0.00    -0.135 C  
HETATM    6  O   UNL     1      -8.243   6.929  67.908  1.00  0.00    -0.113 OA 
HETATM    7  H   UNL     1      -8.460   6.743  68.814  1.00  0.00     0.000 HD 
BRANCH   5   8
HETATM    8  C   UNL     1     -10.297   8.144  67.790  1.00  0.00    -0.233 C  
HETATM    9  C   UNL     1     -10.669   9.154  68.852  1.00  0.00    -0.141 C  
HETATM   10  O   UNL     1     -10.606   6.830  68.281  1.00  0.00    -0.196 OA 
HETATM   11  O   UNL     1     -11.011  10.304  68.585  1.00  0.00    -0.226 OA 
HETATM   12  H   UNL     1     -11.537   6.804  68.470  1.00  0.00     0.000 HD 
ENDBRANCH   5   8
ENDBRANCH   4   5
BRANCH   4  13
HETATM   13  O   UNL     1      -9.543   9.192  65.371  1.00  0.00    -0.231 OA 
BRANCH  13  14
HETATM   14  C   UNL     1      -9.165  10.141  64.361  1.00  0.00    -0.258 C  
HETATM   15  H   UNL     1      -7.809  13.048  66.740  1.00  0.00     0.000 HD 
HETATM   16  O   UNL     1      -7.207  10.929  65.678  1.00  0.00    -0.329 OA 
HETATM   17  C   UNL     1      -8.408  11.321  64.993  1.00  0.00     0.366 C  
HETATM   18  O   UNL     1     -10.265  10.669  63.634  1.00  0.00    -0.310 OA 
HETATM   19  O   UNL     1      -8.659  13.269  66.378  1.00  0.00     0.086 OA 
HETATM   20  C   UNL     1     -11.242  11.325  64.448  1.00  0.00    -0.126 C  
HETATM   21  H   UNL     1      -6.739  11.658  66.069  1.00  0.00     0.000 HD 
HETATM   22  C   UNL     1      -9.312  12.046  65.981  1.00  0.00    -0.190 C  
HETATM   23  C   UNL     1     -10.687  12.404  65.395  1.00  0.00    -0.282 C  
BRANCH  20  24
HETATM   24  C   UNL     1     -12.328  11.883  63.500  1.00  0.00    -0.490 C  
HETATM   25  O   UNL     1     -13.624  11.980  64.095  1.00  0.00    -0.519 OA 
HETATM   26  H   UNL     1     -14.291  12.323  63.512  1.00  0.00     0.000 HD 
ENDBRANCH  20  24
BRANCH  23  27
HETATM   27  O   UNL     1     -11.676  12.558  66.452  1.00  0.00    -0.374 OA 
BRANCH  27  28
HETATM   28  C   UNL     1     -12.423  13.776  66.360  1.00  0.00    -0.355 C  
HETATM   29  O   UNL     1     -12.505  14.410  67.628  1.00  0.00    -0.130 OA 
HETATM   30  C   UNL     1     -11.218  14.751  68.149  1.00  0.00    -0.294 C  
HETATM   31  C   UNL     1     -10.560  15.821  67.243  1.00  0.00    -0.313 C  
HETATM   32  C   UNL     1     -11.458  15.185  69.593  1.00  0.00    -0.314 C  
HETATM   33  C   UNL     1     -10.453  15.264  65.797  1.00  0.00    -0.349 C  
HETATM   34  H   UNL     1     -10.003  15.961  63.995  1.00  0.00     0.000 HD 
HETATM   35  C   UNL     1     -11.798  14.715  65.316  1.00  0.00    -0.324 C  
HETATM   36  O   UNL     1     -10.068  16.302  64.879  1.00  0.00    -0.412 OA 
HETATM   37  O   UNL     1     -11.639  14.065  64.042  1.00  0.00    -0.606 OA 
HETATM   38  H   UNL     1     -11.253  14.645  63.397  1.00  0.00     0.000 HD 
BRANCH  31  39
HETATM   39  N   UNL     1      -9.265  16.248  67.827  1.00  0.00    -0.203 NA 
HETATM   40  H   UNL     1      -8.800  15.711  68.559  1.00  0.00     0.000 HD 
BRANCH  39  41
HETATM   41  C   UNL     1      -8.683  17.508  67.280  1.00  0.00    -0.230 C  
HETATM   42  C   UNL     1      -7.387  19.056  68.808  1.00  0.00    -0.366 C  
HETATM   43  C   UNL     1      -8.528  18.518  68.377  1.00  0.00    -0.352 C  
HETATM   44  C   UNL     1      -6.076  18.763  68.129  1.00  0.00    -0.212 C  
HETATM   45  H   UNL     1      -6.128  15.566  66.516  1.00  0.00     0.000 HD 
HETATM   46  O   UNL     1      -6.936  15.799  66.958  1.00  0.00    -0.197 OA 
HETATM   47  C   UNL     1      -6.174  18.094  66.734  1.00  0.00    -0.176 C  
HETATM   48  O   UNL     1      -5.296  17.967  69.017  1.00  0.00    -0.169 OA 
HETATM   49  H   UNL     1      -6.300  18.690  64.855  1.00  0.00     0.000 HD 
HETATM   50  O   UNL     1      -6.240  19.100  65.710  1.00  0.00    -0.189 OA 
HETATM   51  C   UNL     1      -7.351  17.124  66.554  1.00  0.00    -0.276 C  
HETATM   52  H   UNL     1      -4.469  17.782  68.588  1.00  0.00     0.000 HD 
BRANCH  42  53
HETATM   53  C   UNL     1      -7.305  19.977  70.006  1.00  0.00     0.343 C  
HETATM   54  O   UNL     1      -5.976  20.420  70.256  1.00  0.00    -0.358 OA 
HETATM   55  H   UNL     1      -5.924  20.998  71.009  1.00  0.00     0.000 HD 
ENDBRANCH  42  53
ENDBRANCH  39  41
ENDBRANCH  31  39
ENDBRANCH  27  28
ENDBRANCH  23  27
ENDBRANCH  13  14
ENDBRANCH   4  13
ENDBRANCH   1   4
BRANCH   1  56
HETATM   56  C   UNL     1      -8.098   7.386  63.686  1.00  0.00    -0.012 C  
HETATM   57  O   UNL     1      -6.803   7.721  63.182  1.00  0.00    -0.072 OA 
HETATM   58  H   UNL     1      -6.857   7.825  62.239  1.00  0.00     0.000 HD 
ENDBRANCH   1  56
TORSDOF 12
ENDMDL
MODEL      230
REMARK 921   NORMALIZED FREE ENERGY PREDICTED BY IDOCK:   -1.94 KCAL/MOL
REMARK 922        TOTAL FREE ENERGY PREDICTED BY IDOCK:   -6.50 KCAL/MOL
REMARK 923 INTER-LIGAND FREE ENERGY PREDICTED BY IDOCK:   -7.09 KCAL/MOL
REMARK 924 INTRA-LIGAND FREE ENERGY PREDICTED BY IDOCK:    0.60 KCAL/MOL
REMARK 927      BINDING AFFINITY PREDICTED BY RF-SCORE:    0.00 PKD
ROOT
HETATM    1  C   UNL     1     -10.657  15.920  66.513  1.00  0.00    -0.297 C  
HETATM    2  H   UNL     1     -11.938  15.423  65.145  1.00  0.00     0.000 HD 
HETATM    3  O   UNL     1     -11.128  15.920  65.159  1.00  0.00    -0.363 OA 
ENDROOT
BRANCH   1   4
HETATM    4  C   UNL     1     -10.514  14.485  67.101  1.00  0.00    -0.267 C  
BRANCH   4   5
HETATM    5  C   UNL     1     -10.958  14.401  68.596  1.00  0.00    -0.250 C  
HETATM    6  O   UNL     1     -11.747  13.228  68.845  1.00  0.00    -0.285 OA 
HETATM    7  H   UNL     1     -12.018  13.177  69.754  1.00  0.00     0.000 HD 
BRANCH   5   8
HETATM    8  C   UNL     1     -11.772  15.603  69.093  1.00  0.00    -0.390 C  
HETATM    9  C   UNL     1     -10.958  16.466  70.032  1.00  0.00    -0.318 C  
HETATM   10  O   UNL     1     -12.909  15.095  69.809  1.00  0.00    -0.603 OA 
HETATM   11  O   UNL     1     -10.273  17.410  69.643  1.00  0.00    -0.102 OA 
HETATM   12  H   UNL     1     -13.412  15.840  70.117  1.00  0.00     0.000 HD 
ENDBRANCH   5   8
ENDBRANCH   4   5
BRANCH   4  13
HETATM   13  O   UNL     1      -9.171  13.958  66.970  1.00  0.00    -0.231 OA 
BRANCH  13  14
HETATM   14  C   UNL     1      -8.706  13.199  68.099  1.00  0.00    -0.193 C  
HETATM   15  H   UNL     1      -4.881  12.798  67.023  1.00  0.00     0.000 HD 
HETATM   16  O   UNL     1      -6.483  14.316  68.076  1.00  0.00    -0.120 OA 
HETATM   17  C   UNL     1      -7.176  13.057  68.053  1.00  0.00    -0.119 C  
HETATM   18  O   UNL     1      -9.262  11.894  68.176  1.00  0.00    -0.176 OA 
HETATM   19  O   UNL     1      -5.359  11.987  66.899  1.00  0.00    -0.217 OA 
HETATM   20  C   UNL     1      -9.012  11.084  67.023  1.00  0.00    -0.148 C  
HETATM   21  H   UNL     1      -5.538  14.229  68.047  1.00  0.00     0.000 HD 
HETATM   22  C   UNL     1      -6.763  12.302  66.797  1.00  0.00     0.216 C  
HETATM   23  C   UNL     1      -7.537  10.989  66.596  1.00  0.00    -0.146 C  
BRANCH  20  24
HETATM   24  C   UNL     1      -9.631   9.694  67.296  1.00  0.00    -0.164 C  
HETATM   25  O   UNL     1      -9.733   9.367  68.683  1.00  0.00    -0.148 OA 
HETATM   26  H   UNL     1     -10.114   8.513  68.851  1.00  0.00     0.000 HD 
ENDBRANCH  20  24
BRANCH  23  27
HETATM   27  O   UNL     1      -7.547  10.604  65.193  1.00  0.00    -0.092 OA 
BRANCH  27  28
HETATM   28  C   UNL     1      -6.509   9.679  64.848  1.00  0.00    -0.092 C  
HETATM   29  O   UNL     1      -5.856   9.203  66.015  1.00  0.00    -0.049 OA 
HETATM   30  C   UNL     1      -6.749   8.516  66.896  1.00  0.00    -0.062 C  
HETATM   31  C   UNL     1      -7.262   7.226  66.207  1.00  0.00    -0.078 C  
HETATM   32  C   UNL     1      -5.966   8.291  68.187  1.00  0.00    -0.042 C  
HETATM   33  C   UNL     1      -7.967   7.609  64.877  1.00  0.00    -0.135 C  
HETATM   34  H   UNL     1      -8.679   6.669  63.282  1.00  0.00     0.000 HD 
HETATM   35  C   UNL     1      -7.077   8.514  64.022  1.00  0.00    -0.090 C  
HETATM   36  O   UNL     1      -8.248   6.435  64.095  1.00  0.00    -0.091 OA 
HETATM   37  O   UNL     1      -7.806   8.981  62.873  1.00  0.00    -0.119 OA 
HETATM   38  H   UNL     1      -8.157   8.261  62.362  1.00  0.00     0.000 HD 
BRANCH  31  39
HETATM   39  N   UNL     1      -8.117   6.460  67.148  1.00  0.00    -0.112 NA 
HETATM   40  H   UNL     1      -9.128   6.591  67.188  1.00  0.00     0.000 HD 
BRANCH  39  41
HETATM   41  C   UNL     1      -7.410   5.488  68.032  1.00  0.00    -0.073 C  
HETATM   42  C   UNL     1      -8.749   3.995  69.577  1.00  0.00    -0.124 C  
HETATM   43  C   UNL     1      -8.252   5.183  69.234  1.00  0.00    -0.084 C  
HETATM   44  C   UNL     1      -8.411   2.750  68.802  1.00  0.00    -0.064 C  
HETATM   45  H   UNL     1      -7.602   3.512  65.397  1.00  0.00     0.000 HD 
HETATM   46  O   UNL     1      -7.820   4.268  65.930  1.00  0.00    -0.093 OA 
HETATM   47  C   UNL     1      -7.216   2.870  67.822  1.00  0.00    -0.053 C  
HETATM   48  O   UNL     1      -9.587   2.334  68.113  1.00  0.00    -0.274 OA 
HETATM   49  H   UNL     1      -5.260   2.605  67.894  1.00  0.00     0.000 HD 
HETATM   50  O   UNL     1      -5.992   2.531  68.495  1.00  0.00    -0.023 OA 
HETATM   51  C   UNL     1      -7.051   4.243  67.154  1.00  0.00    -0.067 C  
HETATM   52  H   UNL     1      -9.373   1.548  67.624  1.00  0.00     0.000 HD 
BRANCH  42  53
HETATM   53  C   UNL     1      -9.695   3.797  70.741  1.00  0.00    -0.165 C  
HETATM   54  O   UNL     1      -9.153   2.933  71.735  1.00  0.00    -0.085 OA 
HETATM   55  H   UNL     1      -9.747   2.808  72.466  1.00  0.00     0.000 HD 
ENDBRANCH  42  53
ENDBRANCH  39  41
ENDBRANCH  31  39
ENDBRANCH  27  28
ENDBRANCH  23  27
ENDBRANCH  13  14
ENDBRANCH   4  13
ENDBRANCH   1   4
BRANCH   1  56
HETATM   56  C   UNL     1      -9.353  16.720  66.535  1.00  0.00    -0.264 C  
HETATM   57  O   UNL     1      -9.445  17.784  65.583  1.00  0.00    -0.440 OA 
HETATM   58  H   UNL     1      -8.636  18.281  65.597  1.00  0.00     0.000 HD 
ENDBRANCH   1  56
TORSDOF 12
ENDMDL
MODEL      231
REMARK 921   NORMALIZED FREE ENERGY PREDICTED BY IDOCK:   -1.43 KCAL/MOL
REMARK 922        TOTAL FREE ENERGY PREDICTED BY IDOCK:   -5.63 KCAL/MOL
REMARK 923 INTER-LIGAND FREE ENERGY PREDICTED BY IDOCK:   -6.10 KCAL/MOL
REMARK 924 INTRA-LIGAND FREE ENERGY PREDICTED BY IDOCK:    0.47 KCAL/MOL
REMARK 927      BINDING AFFINITY PREDICTED BY RF-SCORE:    0.00 PKD
ROOT
HETATM    1  C   UNL     1     -10.903  15.764  67.888  1.00  0.00    -0.314 C  
HETATM    2  H   UNL     1     -12.516  15.264  66.935  1.00  0.00     0.000 HD 
HETATM    3  O   UNL     1     -12.193  16.062  67.338  1.00  0.00     0.774 OA 
ENDROOT
BRANCH   1   4
HETATM    4  C   UNL     1      -9.924  15.161  66.837  1.00  0.00    -0.239 C  
BRANCH   4   5
HETATM    5  C   UNL     1     -10.462  15.281  65.376  1.00  0.00    -0.398 C  
HETATM    6  O   UNL     1     -10.893  16.619  65.083  1.00  0.00    -0.565 OA 
HETATM    7  H   UNL     1     -11.220  16.692  64.194  1.00  0.00     0.000 HD 
BRANCH   5   8
HETATM    8  C   UNL     1     -11.635  14.349  65.044  1.00  0.00    -0.374 C  
HETATM    9  C   UNL     1     -11.215  13.261  64.081  1.00  0.00    -0.379 C  
HETATM   10  O   UNL     1     -12.659  15.140  64.422  1.00  0.00    -0.496 OA 
HETATM   11  O   UNL     1     -10.783  12.172  64.455  1.00  0.00    -0.285 OA 
HETATM   12  H   UNL     1     -13.385  14.562  64.216  1.00  0.00     0.000 HD 
ENDBRANCH   5   8
ENDBRANCH   4   5
BRANCH   4  13
HETATM   13  O   UNL     1      -9.589  13.779  67.113  1.00  0.00    -0.229 OA 
BRANCH  13  14
HETATM   14  C   UNL     1      -8.804  13.573  68.299  1.00  0.00    -0.179 C  
HETATM   15  H   UNL     1      -5.321  12.668  66.566  1.00  0.00     0.000 HD 
HETATM   16  O   UNL     1      -6.761  14.525  67.245  1.00  0.00    -0.325 OA 
HETATM   17  C   UNL     1      -7.321  13.394  67.932  1.00  0.00    -0.140 C  
HETATM   18  O   UNL     1      -9.204  12.441  69.058  1.00  0.00     0.201 OA 
HETATM   19  O   UNL     1      -5.739  11.893  66.922  1.00  0.00    -0.138 OA 
HETATM   20  C   UNL     1      -9.161  11.207  68.335  1.00  0.00    -0.168 C  
HETATM   21  H   UNL     1      -5.845  14.414  67.018  1.00  0.00     0.000 HD 
HETATM   22  C   UNL     1      -7.150  12.161  67.055  1.00  0.00    -0.064 C  
HETATM   23  C   UNL     1      -7.825  10.907  67.631  1.00  0.00    -0.113 C  
BRANCH  20  24
HETATM   24  C   UNL     1      -9.568  10.085  69.318  1.00  0.00    -0.216 C  
HETATM   25  O   UNL     1     -10.966   9.789  69.313  1.00  0.00    -0.240 OA 
HETATM   26  H   UNL     1     -11.215   9.099  69.917  1.00  0.00     0.000 HD 
ENDBRANCH  20  24
BRANCH  23  27
HETATM   27  O   UNL     1      -8.132   9.953  66.575  1.00  0.00    -0.115 OA 
BRANCH  27  28
HETATM   28  C   UNL     1      -7.216  10.007  65.475  1.00  0.00    -0.133 C  
HETATM   29  O   UNL     1      -6.076   9.201  65.735  1.00  0.00    -0.054 OA 
HETATM   30  C   UNL     1      -6.414   7.826  65.927  1.00  0.00    -0.042 C  
HETATM   31  C   UNL     1      -6.985   7.245  64.608  1.00  0.00    -0.051 C  
HETATM   32  C   UNL     1      -5.141   7.152  66.432  1.00  0.00    -0.022 C  
HETATM   33  C   UNL     1      -8.226   8.077  64.184  1.00  0.00    -0.057 C  
HETATM   34  H   UNL     1      -9.401   8.235  62.594  1.00  0.00     0.000 HD 
HETATM   35  C   UNL     1      -7.909   9.575  64.174  1.00  0.00    -0.126 C  
HETATM   36  O   UNL     1      -8.642   7.726  62.853  1.00  0.00     0.063 OA 
HETATM   37  O   UNL     1      -9.109  10.331  63.932  1.00  0.00    -0.208 OA 
HETATM   38  H   UNL     1      -9.537  10.065  63.128  1.00  0.00     0.000 HD 
BRANCH  31  39
HETATM   39  N   UNL     1      -7.253   5.795  64.771  1.00  0.00    -0.063 NA 
HETATM   40  H   UNL     1      -7.497   5.199  63.980  1.00  0.00     0.000 HD 
BRANCH  39  41
HETATM   41  C   UNL     1      -7.143   5.261  66.160  1.00  0.00    -0.072 C  
HETATM   42  C   UNL     1      -9.067   5.569  67.776  1.00  0.00    -0.107 C  
HETATM   43  C   UNL     1      -8.033   6.041  67.080  1.00  0.00    -0.102 C  
HETATM   44  C   UNL     1      -9.400   4.102  67.789  1.00  0.00    -0.168 C  
HETATM   45  H   UNL     1      -8.289   2.487  64.792  1.00  0.00     0.000 HD 
HETATM   46  O   UNL     1      -8.099   3.417  64.833  1.00  0.00    -0.089 OA 
HETATM   47  C   UNL     1      -8.301   3.156  67.239  1.00  0.00    -0.085 C  
HETATM   48  O   UNL     1     -10.619   3.927  67.072  1.00  0.00     0.267 OA 
HETATM   49  H   UNL     1      -6.750   2.173  67.966  1.00  0.00     0.000 HD 
HETATM   50  O   UNL     1      -7.423   2.752  68.303  1.00  0.00    -0.052 OA 
HETATM   51  C   UNL     1      -7.458   3.729  66.091  1.00  0.00    -0.080 C  
HETATM   52  H   UNL     1     -10.829   3.001  67.080  1.00  0.00     0.000 HD 
BRANCH  42  53
HETATM   53  C   UNL     1      -9.992   6.451  68.587  1.00  0.00    -0.146 C  
HETATM   54  O   UNL     1      -9.947   6.146  69.977  1.00  0.00    -0.166 OA 
HETATM   55  H   UNL     1     -10.529   6.699  70.485  1.00  0.00     0.000 HD 
ENDBRANCH  42  53
ENDBRANCH  39  41
ENDBRANCH  31  39
ENDBRANCH  27  28
ENDBRANCH  23  27
ENDBRANCH  13  14
ENDBRANCH   4  13
ENDBRANCH   1   4
BRANCH   1  56
HETATM   56  C   UNL     1     -10.384  17.049  68.538  1.00  0.00    -0.359 C  
HETATM   57  O   UNL     1      -9.157  17.424  67.906  1.00  0.00    -0.246 OA 
HETATM   58  H   UNL     1      -8.834  18.222  68.309  1.00  0.00     0.000 HD 
ENDBRANCH   1  56
TORSDOF 12
ENDMDL
MODEL      232
REMARK 921   NORMALIZED FREE ENERGY PREDICTED BY IDOCK:   -1.38 KCAL/MOL
REMARK 922        TOTAL FREE ENERGY PREDICTED BY IDOCK:   -5.55 KCAL/MOL
REMARK 923 INTER-LIGAND FREE ENERGY PREDICTED BY IDOCK:   -6.68 KCAL/MOL
REMARK 924 INTRA-LIGAND FREE ENERGY PREDICTED BY IDOCK:    1.13 KCAL/MOL
REMARK 927      BINDING AFFINITY PREDICTED BY RF-SCORE:    0.00 PKD
ROOT
HETATM    1  C   UNL     1     -10.036  12.651  64.516  1.00  0.00    -0.160 C  
HETATM    2  H   UNL     1     -11.849  13.192  64.098  1.00  0.00     0.000 HD 
HETATM    3  O   UNL     1     -11.287  12.471  63.840  1.00  0.00    -0.370 OA 
ENDROOT
BRANCH   1   4
HETATM    4  C   UNL     1     -10.199  12.789  66.060  1.00  0.00    -0.278 C  
BRANCH   4   5
HETATM    5  C   UNL     1      -9.543  14.091  66.619  1.00  0.00    -0.289 C  
HETATM    6  O   UNL     1      -8.732  13.819  67.772  1.00  0.00    -0.161 OA 
HETATM    7  H   UNL     1      -8.333  14.611  68.112  1.00  0.00     0.000 HD 
BRANCH   5   8
HETATM    8  C   UNL     1     -10.536  15.191  67.017  1.00  0.00    -0.300 C  
HETATM    9  C   UNL     1      -9.860  16.543  67.084  1.00  0.00    -0.255 C  
HETATM   10  O   UNL     1     -11.044  14.870  68.321  1.00  0.00    -0.260 OA 
HETATM   11  O   UNL     1      -9.794  17.302  66.119  1.00  0.00    -0.356 OA 
HETATM   12  H   UNL     1     -11.659  15.550  68.568  1.00  0.00     0.000 HD 
ENDBRANCH   5   8
ENDBRANCH   4   5
BRANCH   4  13
HETATM   13  O   UNL     1      -9.682  11.645  66.781  1.00  0.00    -0.196 OA 
BRANCH  13  14
HETATM   14  C   UNL     1     -10.582  10.527  66.865  1.00  0.00    -0.243 C  
HETATM   15  H   UNL     1     -11.928  11.114  70.579  1.00  0.00     0.000 HD 
HETATM   16  O   UNL     1     -12.211  11.801  68.249  1.00  0.00    -0.486 OA 
HETATM   17  C   UNL     1     -11.415  10.608  68.156  1.00  0.00    -0.228 C  
HETATM   18  O   UNL     1      -9.929   9.266  66.848  1.00  0.00    -0.197 OA 
HETATM   19  O   UNL     1     -11.314  10.390  70.547  1.00  0.00    -0.310 OA 
HETATM   20  C   UNL     1      -8.975   9.087  67.900  1.00  0.00    -0.132 C  
HETATM   21  H   UNL     1     -12.725  11.851  69.047  1.00  0.00     0.000 HD 
HETATM   22  C   UNL     1     -10.497  10.544  69.369  1.00  0.00    -0.240 C  
HETATM   23  C   UNL     1      -9.503   9.372  69.317  1.00  0.00    -0.164 C  
BRANCH  20  24
HETATM   24  C   UNL     1      -8.407   7.656  67.765  1.00  0.00    -0.118 C  
HETATM   25  O   UNL     1      -6.992   7.574  67.944  1.00  0.00    -0.071 OA 
HETATM   26  H   UNL     1      -6.643   6.695  67.862  1.00  0.00     0.000 HD 
ENDBRANCH  20  24
BRANCH  23  27
HETATM   27  O   UNL     1      -8.332   9.650  70.135  1.00  0.00    -0.173 OA 
BRANCH  27  28
HETATM   28  C   UNL     1      -8.511   9.320  71.517  1.00  0.00     0.287 C  
HETATM   29  O   UNL     1      -9.629   8.462  71.685  1.00  0.00    -0.178 OA 
HETATM   30  C   UNL     1      -9.479   7.227  70.980  1.00  0.00    -0.158 C  
HETATM   31  C   UNL     1      -8.302   6.424  71.589  1.00  0.00    -0.125 C  
HETATM   32  C   UNL     1     -10.839   6.538  71.055  1.00  0.00    -0.301 C  
HETATM   33  C   UNL     1      -7.009   7.281  71.508  1.00  0.00    -0.059 C  
HETATM   34  H   UNL     1      -5.159   7.200  72.219  1.00  0.00     0.000 HD 
HETATM   35  C   UNL     1      -7.236   8.679  72.088  1.00  0.00    -0.023 C  
HETATM   36  O   UNL     1      -5.950   6.675  72.269  1.00  0.00    -0.038 OA 
HETATM   37  O   UNL     1      -6.078   9.502  71.861  1.00  0.00    -0.258 OA 
HETATM   38  H   UNL     1      -5.290   9.107  72.214  1.00  0.00     0.000 HD 
BRANCH  31  39
HETATM   39  N   UNL     1      -8.197   5.103  70.923  1.00  0.00    -0.107 NA 
HETATM   40  H   UNL     1      -7.888   4.269  71.423  1.00  0.00     0.000 HD 
BRANCH  39  41
HETATM   41  C   UNL     1      -8.570   5.065  69.478  1.00  0.00    -0.091 C  
HETATM   42  C   UNL     1      -7.043   3.913  67.820  1.00  0.00    -0.056 C  
HETATM   43  C   UNL     1      -7.338   4.925  68.636  1.00  0.00    -0.062 C  
HETATM   44  C   UNL     1      -8.020   2.796  67.571  1.00  0.00    -0.068 C  
HETATM   45  H   UNL     1     -10.232   2.354  70.353  1.00  0.00     0.000 HD 
HETATM   46  O   UNL     1      -9.596   3.051  70.461  1.00  0.00    -0.165 OA 
HETATM   47  C   UNL     1      -9.476   3.058  68.035  1.00  0.00    -0.159 C  
HETATM   48  O   UNL     1      -7.500   1.619  68.184  1.00  0.00    -0.046 OA 
HETATM   49  H   UNL     1     -11.120   3.830  67.259  1.00  0.00     0.000 HD 
HETATM   50  O   UNL     1     -10.227   3.670  66.975  1.00  0.00     0.303 OA 
HETATM   51  C   UNL     1      -9.616   3.915  69.301  1.00  0.00    -0.162 C  
HETATM   52  H   UNL     1      -8.117   0.914  68.027  1.00  0.00     0.000 HD 
BRANCH  42  53
HETATM   53  C   UNL     1      -5.719   3.789  67.098  1.00  0.00    -0.022 C  
HETATM   54  O   UNL     1      -5.808   4.188  65.735  1.00  0.00    -0.021 OA 
HETATM   55  H   UNL     1      -4.976   4.110  65.282  1.00  0.00     0.000 HD 
ENDBRANCH  42  53
ENDBRANCH  39  41
ENDBRANCH  31  39
ENDBRANCH  27  28
ENDBRANCH  23  27
ENDBRANCH  13  14
ENDBRANCH   4  13
ENDBRANCH   1   4
BRANCH   1  56
HETATM   56  C   UNL     1      -9.129  11.489  64.101  1.00  0.00     0.195 C  
HETATM   57  O   UNL     1      -8.419  11.856  62.916  1.00  0.00    -0.380 OA 
HETATM   58  H   UNL     1      -7.856  11.135  62.659  1.00  0.00     0.000 HD 
ENDBRANCH   1  56
TORSDOF 12
ENDMDL
MODEL      233
REMARK 921   NORMALIZED FREE ENERGY PREDICTED BY IDOCK:   -1.36 KCAL/MOL
REMARK 922        TOTAL FREE ENERGY PREDICTED BY IDOCK:   -5.51 KCAL/MOL
REMARK 923 INTER-LIGAND FREE ENERGY PREDICTED BY IDOCK:   -8.24 KCAL/MOL
REMARK 924 INTRA-LIGAND FREE ENERGY PREDICTED BY IDOCK:    2.73 KCAL/MOL
REMARK 927      BINDING AFFINITY PREDICTED BY RF-SCORE:    0.00 PKD
ROOT
HETATM    1  C   UNL     1      -6.200  15.477  68.484  1.00  0.00    -0.098 C  
HETATM    2  H   UNL     1      -5.744  16.987  69.611  1.00  0.00     0.000 HD 
HETATM    3  O   UNL     1      -5.266  16.250  69.249  1.00  0.00    -0.110 OA 
ENDROOT
BRANCH   1   4
HETATM    4  C   UNL     1      -6.943  16.322  67.407  1.00  0.00    -0.174 C  
BRANCH   4   5
HETATM    5  C   UNL     1      -7.656  17.572  68.011  1.00  0.00    -0.220 C  
HETATM    6  O   UNL     1      -8.994  17.710  67.509  1.00  0.00    -0.233 OA 
HETATM    7  H   UNL     1      -9.428  18.471  67.877  1.00  0.00     0.000 HD 
BRANCH   5   8
HETATM    8  C   UNL     1      -6.941  18.906  67.756  1.00  0.00    -0.219 C  
HETATM    9  C   UNL     1      -6.896  19.231  66.280  1.00  0.00    -0.215 C  
HETATM   10  O   UNL     1      -5.594  18.778  68.237  1.00  0.00    -0.187 OA 
HETATM   11  O   UNL     1      -7.773  19.882  65.715  1.00  0.00    -0.340 OA 
HETATM   12  H   UNL     1      -5.151  19.604  68.080  1.00  0.00     0.000 HD 
ENDBRANCH   5   8
ENDBRANCH   4   5
BRANCH   4  13
HETATM   13  O   UNL     1      -7.901  15.544  66.649  1.00  0.00    -0.194 OA 
BRANCH  13  14
HETATM   14  C   UNL     1      -9.269  15.700  67.062  1.00  0.00    -0.222 C  
HETATM   15  H   UNL     1      -9.512  12.578  69.540  1.00  0.00     0.000 HD 
HETATM   16  O   UNL     1      -8.780  14.905  69.368  1.00  0.00    -0.370 OA 
HETATM   17  C   UNL     1      -9.598  14.721  68.201  1.00  0.00    -0.209 C  
HETATM   18  O   UNL     1     -10.208  15.484  66.018  1.00  0.00    -0.288 OA 
HETATM   19  O   UNL     1      -9.965  12.404  68.723  1.00  0.00    -0.152 OA 
HETATM   20  C   UNL     1     -10.122  14.190  65.413  1.00  0.00    -0.333 C  
HETATM   21  H   UNL     1      -8.982  14.300  70.072  1.00  0.00     0.000 HD 
HETATM   22  C   UNL     1      -9.432  13.287  67.716  1.00  0.00    -0.208 C  
HETATM   23  C   UNL     1     -10.164  13.005  66.394  1.00  0.00    -0.280 C  
BRANCH  20  24
HETATM   24  C   UNL     1     -11.241  14.107  64.349  1.00  0.00    -0.278 C  
HETATM   25  O   UNL     1     -11.196  12.921  63.553  1.00  0.00    -0.555 OA 
HETATM   26  H   UNL     1     -11.883  12.870  62.899  1.00  0.00     0.000 HD 
ENDBRANCH  20  24
BRANCH  23  27
HETATM   27  O   UNL     1      -9.555  11.883  65.695  1.00  0.00    -0.233 OA 
BRANCH  27  28
HETATM   28  C   UNL     1     -10.507  10.917  65.231  1.00  0.00    -0.230 C  
HETATM   29  O   UNL     1      -9.898  10.011  64.324  1.00  0.00    -0.280 OA 
HETATM   30  C   UNL     1      -8.825   9.281  64.924  1.00  0.00    -0.193 C  
HETATM   31  C   UNL     1      -9.385   8.365  66.042  1.00  0.00    -0.177 C  
HETATM   32  C   UNL     1      -8.129   8.550  63.778  1.00  0.00    -0.154 C  
HETATM   33  C   UNL     1     -10.125   9.241  67.090  1.00  0.00    -0.236 C  
HETATM   34  H   UNL     1     -11.310   8.954  68.654  1.00  0.00     0.000 HD 
HETATM   35  C   UNL     1     -11.138  10.169  66.416  1.00  0.00     0.359 C  
HETATM   36  O   UNL     1     -10.858   8.418  68.014  1.00  0.00    -0.101 OA 
HETATM   37  O   UNL     1     -11.696  11.077  67.383  1.00  0.00    -0.539 OA 
HETATM   38  H   UNL     1     -12.087  10.615  68.115  1.00  0.00     0.000 HD 
BRANCH  31  39
HETATM   39  N   UNL     1      -8.292   7.536  66.608  1.00  0.00    -0.123 NA 
HETATM   40  H   UNL     1      -7.828   7.779  67.483  1.00  0.00     0.000 HD 
BRANCH  39  41
HETATM   41  C   UNL     1      -7.911   6.328  65.819  1.00  0.00    -0.116 C  
HETATM   42  C   UNL     1      -6.607   4.465  66.933  1.00  0.00    -0.046 C  
HETATM   43  C   UNL     1      -6.692   5.691  66.416  1.00  0.00    -0.057 C  
HETATM   44  C   UNL     1      -7.766   3.506  66.873  1.00  0.00    -0.080 C  
HETATM   45  H   UNL     1     -10.893   5.247  66.727  1.00  0.00     0.000 HD 
HETATM   46  O   UNL     1     -10.128   5.810  66.763  1.00  0.00    -0.161 OA 
HETATM   47  C   UNL     1      -8.911   3.893  65.902  1.00  0.00    -0.125 C  
HETATM   48  O   UNL     1      -8.263   3.342  68.198  1.00  0.00    -0.077 OA 
HETATM   49  H   UNL     1      -9.360   3.579  64.004  1.00  0.00     0.000 HD 
HETATM   50  O   UNL     1      -8.658   3.342  64.599  1.00  0.00    -0.096 OA 
HETATM   51  C   UNL     1      -9.170   5.400  65.761  1.00  0.00    -0.138 C  
HETATM   52  H   UNL     1      -8.994   2.737  68.160  1.00  0.00     0.000 HD 
BRANCH  42  53
HETATM   53  C   UNL     1      -5.370   3.943  67.629  1.00  0.00    -0.016 C  
HETATM   54  O   UNL     1      -5.242   2.530  67.514  1.00  0.00    -0.011 OA 
HETATM   55  H   UNL     1      -4.464   2.202  67.952  1.00  0.00     0.000 HD 
ENDBRANCH  42  53
ENDBRANCH  39  41
ENDBRANCH  31  39
ENDBRANCH  27  28
ENDBRANCH  23  27
ENDBRANCH  13  14
ENDBRANCH   4  13
ENDBRANCH   1   4
BRANCH   1  56
HETATM   56  C   UNL     1      -5.429  14.290  67.901  1.00  0.00    -0.078 C  
HETATM   57  O   UNL     1      -6.318  13.509  67.097  1.00  0.00    -0.452 OA 
HETATM   58  H   UNL     1      -5.840  12.772  66.735  1.00  0.00     0.000 HD 
ENDBRANCH   1  56
TORSDOF 12
ENDMDL
MODEL      234
REMARK 921   NORMALIZED FREE ENERGY PREDICTED BY IDOCK:   -1.23 KCAL/MOL
REMARK 922        TOTAL FREE ENERGY PREDICTED BY IDOCK:   -5.28 KCAL/MOL
REMARK 923 INTER-LIGAND FREE ENERGY PREDICTED BY IDOCK:   -7.39 KCAL/MOL
REMARK 924 INTRA-LIGAND FREE ENERGY PREDICTED BY IDOCK:    2.11 KCAL/MOL
REMARK 927      BINDING AFFINITY PREDICTED BY RF-SCORE:    0.00 PKD
ROOT
HETATM    1  C   UNL     1      -8.190   6.422  66.081  1.00  0.00    -0.122 C  
HETATM    2  H   UNL     1      -8.426   4.831  67.163  1.00  0.00     0.000 HD 
HETATM    3  O   UNL     1      -8.075   5.010  66.298  1.00  0.00    -0.107 OA 
ENDROOT
BRANCH   1   4
HETATM    4  C   UNL     1      -7.519   7.262  67.208  1.00  0.00    -0.099 C  
BRANCH   4   5
HETATM    5  C   UNL     1      -6.363   8.167  66.676  1.00  0.00    -0.055 C  
HETATM    6  O   UNL     1      -5.393   8.438  67.699  1.00  0.00    -0.033 OA 
HETATM    7  H   UNL     1      -4.690   8.989  67.375  1.00  0.00     0.000 HD 
BRANCH   5   8
HETATM    8  C   UNL     1      -6.814   9.522  66.114  1.00  0.00    -0.090 C  
HETATM    9  C   UNL     1      -5.901   9.987  65.002  1.00  0.00    -0.105 C  
HETATM   10  O   UNL     1      -6.755  10.480  67.183  1.00  0.00    -0.074 OA 
HETATM   11  O   UNL     1      -6.101   9.714  63.820  1.00  0.00    -0.095 OA 
HETATM   12  H   UNL     1      -7.035  11.318  66.835  1.00  0.00     0.000 HD 
ENDBRANCH   5   8
ENDBRANCH   4   5
BRANCH   4  13
HETATM   13  O   UNL     1      -7.025   6.444  68.296  1.00  0.00    -0.075 OA 
BRANCH  13  14
HETATM   14  C   UNL     1      -7.824   6.479  69.490  1.00  0.00    -0.105 C  
HETATM   15  H   UNL     1     -11.429   6.100  67.815  1.00  0.00     0.000 HD 
HETATM   16  O   UNL     1      -9.466   4.852  68.572  1.00  0.00    -0.127 OA 
HETATM   17  C   UNL     1      -9.289   6.150  69.161  1.00  0.00    -0.126 C  
HETATM   18  O   UNL     1      -7.798   7.733  70.158  1.00  0.00    -0.092 OA 
HETATM   19  O   UNL     1     -11.277   6.992  68.104  1.00  0.00    -0.066 OA 
HETATM   20  C   UNL     1      -8.239   8.831  69.354  1.00  0.00    -0.108 C  
HETATM   21  H   UNL     1     -10.372   4.649  68.368  1.00  0.00     0.000 HD 
HETATM   22  C   UNL     1      -9.853   7.196  68.208  1.00  0.00    -0.151 C  
HETATM   23  C   UNL     1      -9.607   8.639  68.675  1.00  0.00    -0.155 C  
BRANCH  20  24
HETATM   24  C   UNL     1      -8.201  10.095  70.243  1.00  0.00     0.200 C  
HETATM   25  O   UNL     1      -7.198  11.041  69.866  1.00  0.00    -0.331 OA 
HETATM   26  H   UNL     1      -7.176  11.817  70.413  1.00  0.00     0.000 HD 
ENDBRANCH  20  24
BRANCH  23  27
HETATM   27  O   UNL     1      -9.630   9.559  67.547  1.00  0.00    -0.139 OA 
BRANCH  27  28
HETATM   28  C   UNL     1     -10.951   9.854  67.080  1.00  0.00    -0.076 C  
HETATM   29  O   UNL     1     -11.710  10.493  68.096  1.00  0.00    -0.431 OA 
HETATM   30  C   UNL     1     -11.129  11.732  68.510  1.00  0.00    -0.239 C  
HETATM   31  C   UNL     1     -11.167  12.739  67.332  1.00  0.00    -0.294 C  
HETATM   32  C   UNL     1     -11.907  12.160  69.752  1.00  0.00    -0.397 C  
HETATM   33  C   UNL     1     -10.401  12.133  66.124  1.00  0.00    -0.234 C  
HETATM   34  H   UNL     1     -10.142  12.554  64.203  1.00  0.00     0.000 HD 
HETATM   35  C   UNL     1     -10.895  10.719  65.811  1.00  0.00    -0.006 C  
HETATM   36  O   UNL     1     -10.611  12.924  64.942  1.00  0.00    -0.297 OA 
HETATM   37  O   UNL     1     -10.069  10.121  64.795  1.00  0.00    -0.331 OA 
HETATM   38  H   UNL     1     -10.034  10.655  64.011  1.00  0.00     0.000 HD 
BRANCH  31  39
HETATM   39  N   UNL     1     -10.650  14.056  67.780  1.00  0.00    -0.241 NA 
HETATM   40  H   UNL     1     -10.994  14.511  68.626  1.00  0.00     0.000 HD 
BRANCH  39  41
HETATM   41  C   UNL     1      -9.599  14.674  66.920  1.00  0.00    -0.244 C  
HETATM   42  C   UNL     1      -9.569  17.184  66.588  1.00  0.00    -0.279 C  
HETATM   43  C   UNL     1     -10.093  15.978  66.367  1.00  0.00    -0.314 C  
HETATM   44  C   UNL     1      -8.298  17.355  67.375  1.00  0.00    -0.205 C  
HETATM   45  H   UNL     1      -7.836  14.677  69.708  1.00  0.00     0.000 HD 
HETATM   46  O   UNL     1      -8.626  14.613  69.183  1.00  0.00    -0.133 OA 
HETATM   47  C   UNL     1      -7.473  16.064  67.613  1.00  0.00    -0.150 C  
HETATM   48  O   UNL     1      -8.634  17.975  68.613  1.00  0.00    -0.303 OA 
HETATM   49  H   UNL     1      -6.031  15.083  66.688  1.00  0.00     0.000 HD 
HETATM   50  O   UNL     1      -6.537  15.874  66.541  1.00  0.00    -0.061 OA 
HETATM   51  C   UNL     1      -8.299  14.781  67.784  1.00  0.00    -0.159 C  
HETATM   52  H   UNL     1      -7.831  18.083  69.110  1.00  0.00     0.000 HD 
BRANCH  42  53
HETATM   53  C   UNL     1     -10.202  18.466  66.092  1.00  0.00    -0.389 C  
HETATM   54  O   UNL     1     -10.424  19.400  67.144  1.00  0.00    -0.405 OA 
HETATM   55  H   UNL     1     -10.822  20.204  66.833  1.00  0.00     0.000 HD 
ENDBRANCH  42  53
ENDBRANCH  39  41
ENDBRANCH  31  39
ENDBRANCH  27  28
ENDBRANCH  23  27
ENDBRANCH  13  14
ENDBRANCH   4  13
ENDBRANCH   1   4
BRANCH   1  56
HETATM   56  C   UNL     1      -7.625   6.710  64.688  1.00  0.00    -0.105 C  
HETATM   57  O   UNL     1      -6.895   5.565  64.239  1.00  0.00    -0.045 OA 
HETATM   58  H   UNL     1      -6.544   5.743  63.374  1.00  0.00     0.000 HD 
ENDBRANCH   1  56
TORSDOF 12
ENDMDL
MODEL      235
REMARK 921   NORMALIZED FREE ENERGY PREDICTED BY IDOCK:   -1.18 KCAL/MOL
REMARK 922        TOTAL FREE ENERGY PREDICTED BY IDOCK:   -5.19 KCAL/MOL
REMARK 923 INTER-LIGAND FREE ENERGY PREDICTED BY IDOCK:   -7.33 KCAL/MOL
REMARK 924 INTRA-LIGAND FREE ENERGY PREDICTED BY IDOCK:    2.13 KCAL/MOL
REMARK 927      BINDING AFFINITY PREDICTED BY RF-SCORE:    0.00 PKD
ROOT
HETATM    1  C   UNL     1     -11.760  14.232  66.055  1.00  0.00    -0.379 C  
HETATM    2  H   UNL     1     -11.647  16.165  66.137  1.00  0.00     0.000 HD 
HETATM    3  O   UNL     1     -12.342  15.539  65.968  1.00  0.00     0.713 OA 
ENDROOT
BRANCH   1   4
HETATM    4  C   UNL     1     -11.020  13.989  67.405  1.00  0.00    -0.293 C  
BRANCH   4   5
HETATM    5  C   UNL     1     -12.003  13.819  68.606  1.00  0.00    -0.366 C  
HETATM    6  O   UNL     1     -12.643  15.059  68.942  1.00  0.00    -0.514 OA 
HETATM    7  H   UNL     1     -13.241  14.955  69.673  1.00  0.00     0.000 HD 
BRANCH   5   8
HETATM    8  C   UNL     1     -11.360  13.282  69.891  1.00  0.00     0.003 C  
HETATM    9  C   UNL     1     -12.322  12.405  70.662  1.00  0.00    -0.279 C  
HETATM   10  O   UNL     1     -11.014  14.410  70.711  1.00  0.00    -0.465 OA 
HETATM   11  O   UNL     1     -12.396  11.190  70.491  1.00  0.00    -0.326 OA 
HETATM   12  H   UNL     1     -10.616  14.078  71.507  1.00  0.00     0.000 HD 
ENDBRANCH   5   8
ENDBRANCH   4   5
BRANCH   4  13
HETATM   13  O   UNL     1     -10.062  15.031  67.712  1.00  0.00    -0.232 OA 
BRANCH  13  14
HETATM   14  C   UNL     1      -8.787  14.890  67.064  1.00  0.00    -0.232 C  
HETATM   15  H   UNL     1      -9.778  12.103  64.381  1.00  0.00     0.000 HD 
HETATM   16  O   UNL     1      -9.835  14.504  64.841  1.00  0.00    -0.474 OA 
HETATM   17  C   UNL     1      -8.916  13.994  65.821  1.00  0.00     0.697 C  
HETATM   18  O   UNL     1      -7.781  14.334  67.899  1.00  0.00    -0.123 OA 
HETATM   19  O   UNL     1      -9.260  11.732  65.086  1.00  0.00    -0.088 OA 
HETATM   20  C   UNL     1      -8.105  13.041  68.421  1.00  0.00    -0.131 C  
HETATM   21  H   UNL     1      -9.915  13.950  64.073  1.00  0.00     0.000 HD 
HETATM   22  C   UNL     1      -9.372  12.601  66.232  1.00  0.00    -0.160 C  
HETATM   23  C   UNL     1      -8.536  12.000  67.373  1.00  0.00    -0.170 C  
BRANCH  20  24
HETATM   24  C   UNL     1      -6.891  12.566  69.252  1.00  0.00    -0.019 C  
HETATM   25  O   UNL     1      -6.588  13.404  70.368  1.00  0.00    -0.378 OA 
HETATM   26  H   UNL     1      -5.842  13.111  70.879  1.00  0.00     0.000 HD 
ENDBRANCH  20  24
BRANCH  23  27
HETATM   27  O   UNL     1      -9.296  10.992  68.096  1.00  0.00    -0.160 OA 
BRANCH  27  28
HETATM   28  C   UNL     1      -9.678   9.876  67.284  1.00  0.00    -0.171 C  
HETATM   29  O   UNL     1      -8.554   9.058  66.995  1.00  0.00    -0.115 OA 
HETATM   30  C   UNL     1      -7.953   8.524  68.178  1.00  0.00    -0.111 C  
HETATM   31  C   UNL     1      -8.946   7.557  68.870  1.00  0.00    -0.134 C  
HETATM   32  C   UNL     1      -6.640   7.889  67.725  1.00  0.00    -0.060 C  
HETATM   33  C   UNL     1     -10.254   8.325  69.201  1.00  0.00    -0.218 C  
HETATM   34  H   UNL     1     -12.084   7.886  69.829  1.00  0.00     0.000 HD 
HETATM   35  C   UNL     1     -10.787   9.063  67.970  1.00  0.00    -0.041 C  
HETATM   36  O   UNL     1     -11.284   7.416  69.627  1.00  0.00    -0.171 OA 
HETATM   37  O   UNL     1     -11.906   9.890  68.337  1.00  0.00    -0.447 OA 
HETATM   38  H   UNL     1     -12.591   9.388  68.761  1.00  0.00     0.000 HD 
BRANCH  31  39
HETATM   39  N   UNL     1      -8.297   6.928  70.047  1.00  0.00    -0.137 NA 
HETATM   40  H   UNL     1      -7.976   5.959  70.033  1.00  0.00     0.000 HD 
BRANCH  39  41
HETATM   41  C   UNL     1      -8.141   7.795  71.251  1.00  0.00    -0.095 C  
HETATM   42  C   UNL     1      -8.855   6.929  73.520  1.00  0.00    -0.161 C  
HETATM   43  C   UNL     1      -9.132   7.395  72.302  1.00  0.00    -0.160 C  
HETATM   44  C   UNL     1      -7.441   6.853  74.028  1.00  0.00    -0.095 C  
HETATM   45  H   UNL     1      -5.105   6.508  71.335  1.00  0.00     0.000 HD 
HETATM   46  O   UNL     1      -6.014   6.564  71.065  1.00  0.00    -0.027 OA 
HETATM   47  C   UNL     1      -6.387   7.642  73.209  1.00  0.00    -0.063 C  
HETATM   48  O   UNL     1      -7.084   5.476  74.114  1.00  0.00    -0.080 OA 
HETATM   49  H   UNL     1      -5.628   9.465  73.212  1.00  0.00     0.000 HD 
HETATM   50  O   UNL     1      -6.274   8.982  73.714  1.00  0.00    -0.291 OA 
HETATM   51  C   UNL     1      -6.644   7.702  71.696  1.00  0.00    -0.042 C  
HETATM   52  H   UNL     1      -6.191   5.428  74.434  1.00  0.00     0.000 HD 
BRANCH  42  53
HETATM   53  C   UNL     1      -9.915   6.429  74.477  1.00  0.00    -0.351 C  
HETATM   54  O   UNL     1     -10.307   5.090  74.196  1.00  0.00    -0.221 OA 
HETATM   55  H   UNL     1     -10.973   4.776  74.797  1.00  0.00     0.000 HD 
ENDBRANCH  42  53
ENDBRANCH  39  41
ENDBRANCH  31  39
ENDBRANCH  27  28
ENDBRANCH  23  27
ENDBRANCH  13  14
ENDBRANCH   4  13
ENDBRANCH   1   4
BRANCH   1  56
HETATM   56  C   UNL     1     -12.879  13.223  65.784  1.00  0.00    -0.065 C  
HETATM   57  O   UNL     1     -12.855  12.865  64.400  1.00  0.00    -0.696 OA 
HETATM   58  H   UNL     1     -13.549  12.238  64.231  1.00  0.00     0.000 HD 
ENDBRANCH   1  56
TORSDOF 12
ENDMDL
MODEL      236
REMARK 921   NORMALIZED FREE ENERGY PREDICTED BY IDOCK:   -1.17 KCAL/MOL
REMARK 922        TOTAL FREE ENERGY PREDICTED BY IDOCK:   -5.18 KCAL/MOL
REMARK 923 INTER-LIGAND FREE ENERGY PREDICTED BY IDOCK:   -8.14 KCAL/MOL
REMARK 924 INTRA-LIGAND FREE ENERGY PREDICTED BY IDOCK:    2.96 KCAL/MOL
REMARK 927      BINDING AFFINITY PREDICTED BY RF-SCORE:    0.00 PKD
ROOT
HETATM    1  C   UNL     1      -7.941   6.593  66.264  1.00  0.00    -0.108 C  
HETATM    2  H   UNL     1      -6.657   6.027  67.602  1.00  0.00     0.000 HD 
HETATM    3  O   UNL     1      -6.697   5.996  66.653  1.00  0.00    -0.057 OA 
ENDROOT
BRANCH   1   4
HETATM    4  C   UNL     1      -8.131   8.025  66.847  1.00  0.00    -0.108 C  
BRANCH   4   5
HETATM    5  C   UNL     1      -8.454   8.014  68.374  1.00  0.00    -0.127 C  
HETATM    6  O   UNL     1      -9.795   8.456  68.632  1.00  0.00    -0.162 OA 
HETATM    7  H   UNL     1      -9.991   8.449  69.562  1.00  0.00     0.000 HD 
BRANCH   5   8
HETATM    8  C   UNL     1      -7.522   8.878  69.235  1.00  0.00    -0.075 C  
HETATM    9  C   UNL     1      -6.119   8.312  69.263  1.00  0.00    -0.038 C  
HETATM   10  O   UNL     1      -8.041   8.879  70.574  1.00  0.00    -0.103 OA 
HETATM   11  O   UNL     1      -5.256   8.636  68.450  1.00  0.00    -0.033 OA 
HETATM   12  H   UNL     1      -7.464   9.414  71.107  1.00  0.00     0.000 HD 
ENDBRANCH   5   8
ENDBRANCH   4   5
BRANCH   4  13
HETATM   13  O   UNL     1      -9.149   8.782  66.147  1.00  0.00    -0.174 OA 
BRANCH  13  14
HETATM   14  C   UNL     1      -8.658   9.616  65.084  1.00  0.00    -0.157 C  
HETATM   15  H   UNL     1      -7.396  12.708  67.274  1.00  0.00     0.000 HD 
HETATM   16  O   UNL     1      -6.785  10.478  66.476  1.00  0.00    -0.090 OA 
HETATM   17  C   UNL     1      -7.913  10.832  65.660  1.00  0.00    -0.095 C  
HETATM   18  O   UNL     1      -9.678  10.098  64.221  1.00  0.00    -0.310 OA 
HETATM   19  O   UNL     1      -8.206  12.915  66.823  1.00  0.00    -0.063 OA 
HETATM   20  C   UNL     1     -10.693  10.858  64.883  1.00  0.00    -0.170 C  
HETATM   21  H   UNL     1      -6.325  11.230  66.832  1.00  0.00     0.000 HD 
HETATM   22  C   UNL     1      -8.868  11.676  66.493  1.00  0.00    -0.188 C  
HETATM   23  C   UNL     1     -10.178  12.010  65.764  1.00  0.00    -0.242 C  
BRANCH  20  24
HETATM   24  C   UNL     1     -11.680  11.348  63.799  1.00  0.00     0.003 C  
HETATM   25  O   UNL     1     -12.988  11.640  64.295  1.00  0.00    -0.200 OA 
HETATM   26  H   UNL     1     -13.594  11.941  63.628  1.00  0.00     0.000 HD 
ENDBRANCH  20  24
BRANCH  23  27
HETATM   27  O   UNL     1     -11.242  12.296  66.716  1.00  0.00    -0.282 OA 
BRANCH  27  28
HETATM   28  C   UNL     1     -11.939  13.517  66.442  1.00  0.00    -0.414 C  
HETATM   29  O   UNL     1     -12.187  14.231  67.644  1.00  0.00    -0.337 OA 
HETATM   30  C   UNL     1     -10.981  14.585  68.325  1.00  0.00    -0.247 C  
HETATM   31  C   UNL     1     -10.174  15.586  67.460  1.00  0.00    -0.254 C  
HETATM   32  C   UNL     1     -11.416  15.114  69.690  1.00  0.00    -0.314 C  
HETATM   33  C   UNL     1      -9.873  14.936  66.082  1.00  0.00    -0.308 C  
HETATM   34  H   UNL     1      -9.151  15.510  64.326  1.00  0.00     0.000 HD 
HETATM   35  C   UNL     1     -11.147  14.378  65.445  1.00  0.00    -0.331 C  
HETATM   36  O   UNL     1      -9.335  15.908  65.169  1.00  0.00    -0.125 OA 
HETATM   37  O   UNL     1     -10.822  13.646  64.250  1.00  0.00    -0.519 OA 
HETATM   38  H   UNL     1     -10.333  14.178  63.633  1.00  0.00     0.000 HD 
BRANCH  31  39
HETATM   39  N   UNL     1      -8.966  16.029  68.200  1.00  0.00    -0.181 NA 
HETATM   40  H   UNL     1      -8.779  15.730  69.157  1.00  0.00     0.000 HD 
BRANCH  39  41
HETATM   41  C   UNL     1      -8.042  16.939  67.461  1.00  0.00    -0.173 C  
HETATM   42  C   UNL     1      -8.352  19.446  67.628  1.00  0.00    -0.334 C  
HETATM   43  C   UNL     1      -8.724  18.245  67.183  1.00  0.00    -0.256 C  
HETATM   44  C   UNL     1      -7.082  19.633  68.412  1.00  0.00    -0.309 C  
HETATM   45  H   UNL     1      -6.177  16.644  70.165  1.00  0.00     0.000 HD 
HETATM   46  O   UNL     1      -6.973  16.576  69.651  1.00  0.00    -0.198 OA 
HETATM   47  C   UNL     1      -6.087  18.445  68.379  1.00  0.00    -0.193 C  
HETATM   48  O   UNL     1      -7.443  19.952  69.753  1.00  0.00    -0.105 OA 
HETATM   49  H   UNL     1      -4.571  17.864  67.254  1.00  0.00     0.000 HD 
HETATM   50  O   UNL     1      -5.180  18.593  67.274  1.00  0.00    -0.140 OA 
HETATM   51  C   UNL     1      -6.732  17.053  68.308  1.00  0.00    -0.158 C  
HETATM   52  H   UNL     1      -6.640  20.070  70.248  1.00  0.00     0.000 HD 
BRANCH  42  53
HETATM   53  C   UNL     1      -9.167  20.701  67.404  1.00  0.00    -0.300 C  
HETATM   54  O   UNL     1     -10.307  20.763  68.256  1.00  0.00    -0.002 OA 
HETATM   55  H   UNL     1     -10.819  21.551  68.115  1.00  0.00     0.000 HD 
ENDBRANCH  42  53
ENDBRANCH  39  41
ENDBRANCH  31  39
ENDBRANCH  27  28
ENDBRANCH  23  27
ENDBRANCH  13  14
ENDBRANCH   4  13
ENDBRANCH   1   4
BRANCH   1  56
HETATM   56  C   UNL     1      -8.004   6.544  64.735  1.00  0.00    -0.120 C  
HETATM   57  O   UNL     1      -6.967   5.684  64.256  1.00  0.00    -0.048 OA 
HETATM   58  H   UNL     1      -7.006   5.653  63.307  1.00  0.00     0.000 HD 
ENDBRANCH   1  56
TORSDOF 12
ENDMDL
MODEL      237
REMARK 921   NORMALIZED FREE ENERGY PREDICTED BY IDOCK:   -1.15 KCAL/MOL
REMARK 922        TOTAL FREE ENERGY PREDICTED BY IDOCK:   -5.16 KCAL/MOL
REMARK 923 INTER-LIGAND FREE ENERGY PREDICTED BY IDOCK:   -6.66 KCAL/MOL
REMARK 924 INTRA-LIGAND FREE ENERGY PREDICTED BY IDOCK:    1.50 KCAL/MOL
REMARK 927      BINDING AFFINITY PREDICTED BY RF-SCORE:    0.00 PKD
ROOT
HETATM    1  C   UNL     1     -11.968  13.942  69.288  1.00  0.00    -0.357 C  
HETATM    2  H   UNL     1     -10.081  13.670  69.639  1.00  0.00     0.000 HD 
HETATM    3  O   UNL     1     -10.799  14.085  70.104  1.00  0.00     0.143 OA 
ENDROOT
BRANCH   1   4
HETATM    4  C   UNL     1     -12.255  12.461  68.898  1.00  0.00     0.043 C  
BRANCH   4   5
HETATM    5  C   UNL     1     -11.361  11.450  69.682  1.00  0.00    -0.275 C  
HETATM    6  O   UNL     1     -10.613  10.609  68.792  1.00  0.00    -0.182 OA 
HETATM    7  H   UNL     1     -10.068   9.993  69.269  1.00  0.00     0.000 HD 
BRANCH   5   8
HETATM    8  C   UNL     1     -12.123  10.525  70.640  1.00  0.00    -0.356 C  
HETATM    9  C   UNL     1     -12.590  11.272  71.869  1.00  0.00    -0.039 C  
HETATM   10  O   UNL     1     -11.222   9.485  71.052  1.00  0.00    -0.300 OA 
HETATM   11  O   UNL     1     -13.686  11.826  71.934  1.00  0.00    -0.124 OA 
HETATM   12  H   UNL     1     -11.695   8.912  71.645  1.00  0.00     0.000 HD 
ENDBRANCH   5   8
ENDBRANCH   4   5
BRANCH   4  13
HETATM   13  O   UNL     1     -12.119  12.220  67.477  1.00  0.00    -0.514 OA 
BRANCH  13  14
HETATM   14  C   UNL     1     -11.765  13.376  66.699  1.00  0.00    -0.385 C  
HETATM   15  H   UNL     1     -11.624  11.660  63.096  1.00  0.00     0.000 HD 
HETATM   16  O   UNL     1     -13.132  12.626  64.760  1.00  0.00    -0.852 OA 
HETATM   17  C   UNL     1     -11.831  13.050  65.198  1.00  0.00    -0.369 C  
HETATM   18  O   UNL     1     -10.466  13.878  66.979  1.00  0.00    -0.274 OA 
HETATM   19  O   UNL     1     -10.750  11.836  63.427  1.00  0.00    -0.391 OA 
HETATM   20  C   UNL     1      -9.417  12.927  66.775  1.00  0.00    -0.245 C  
HETATM   21  H   UNL     1     -13.173  12.424  63.833  1.00  0.00     0.000 HD 
HETATM   22  C   UNL     1     -10.828  11.955  64.862  1.00  0.00    -0.305 C  
HETATM   23  C   UNL     1      -9.416  12.239  65.398  1.00  0.00     0.028 C  
BRANCH  20  24
HETATM   24  C   UNL     1      -8.081  13.648  67.068  1.00  0.00     0.017 C  
HETATM   25  O   UNL     1      -7.997  14.200  68.383  1.00  0.00    -0.129 OA 
HETATM   26  H   UNL     1      -7.176  14.643  68.563  1.00  0.00     0.000 HD 
ENDBRANCH  20  24
BRANCH  23  27
HETATM   27  O   UNL     1      -8.667  11.003  65.566  1.00  0.00    -0.187 OA 
BRANCH  27  28
HETATM   28  C   UNL     1      -8.985  10.007  64.586  1.00  0.00    -0.214 C  
HETATM   29  O   UNL     1      -7.937   9.889  63.635  1.00  0.00    -0.134 OA 
HETATM   30  C   UNL     1      -6.699   9.500  64.236  1.00  0.00    -0.101 C  
HETATM   31  C   UNL     1      -6.834   8.070  64.817  1.00  0.00    -0.062 C  
HETATM   32  C   UNL     1      -5.642   9.658  63.145  1.00  0.00    -0.083 C  
HETATM   33  C   UNL     1      -7.992   8.051  65.851  1.00  0.00    -0.107 C  
HETATM   34  H   UNL     1      -9.013   6.691  66.872  1.00  0.00     0.000 HD 
HETATM   35  C   UNL     1      -9.268   8.656  65.262  1.00  0.00     0.037 C  
HETATM   36  O   UNL     1      -8.305   6.702  66.239  1.00  0.00    -0.114 OA 
HETATM   37  O   UNL     1     -10.277   8.771  66.282  1.00  0.00    -0.359 OA 
HETATM   38  H   UNL     1     -10.452   7.937  66.699  1.00  0.00     0.000 HD 
BRANCH  31  39
HETATM   39  N   UNL     1      -5.527   7.623  65.360  1.00  0.00    -0.032 NA 
HETATM   40  H   UNL     1      -4.928   8.244  65.906  1.00  0.00     0.000 HD 
BRANCH  39  41
HETATM   41  C   UNL     1      -5.141   6.213  65.061  1.00  0.00    -0.013 C  
HETATM   42  C   UNL     1      -6.447   4.309  66.099  1.00  0.00    -0.041 C  
HETATM   43  C   UNL     1      -5.577   5.316  66.180  1.00  0.00    -0.017 C  
HETATM   44  C   UNL     1      -7.035   3.885  64.780  1.00  0.00    -0.050 C  
HETATM   45  H   UNL     1      -7.124   6.608  62.455  1.00  0.00     0.000 HD 
HETATM   46  O   UNL     1      -6.757   6.825  63.304  1.00  0.00    -0.041 OA 
HETATM   47  C   UNL     1      -6.331   4.443  63.517  1.00  0.00    -0.026 C  
HETATM   48  O   UNL     1      -8.415   4.240  64.786  1.00  0.00    -0.112 OA 
HETATM   49  H   UNL     1      -4.855   3.892  62.326  1.00  0.00     0.000 HD 
HETATM   50  O   UNL     1      -5.286   3.549  63.101  1.00  0.00    -0.008 OA 
HETATM   51  C   UNL     1      -5.746   5.856  63.663  1.00  0.00    -0.021 C  
HETATM   52  H   UNL     1      -8.786   3.972  63.953  1.00  0.00     0.000 HD 
BRANCH  42  53
HETATM   53  C   UNL     1      -6.928   3.530  67.303  1.00  0.00    -0.054 C  
HETATM   54  O   UNL     1      -7.278   4.379  68.391  1.00  0.00    -0.058 OA 
HETATM   55  H   UNL     1      -7.580   3.890  69.147  1.00  0.00     0.000 HD 
ENDBRANCH  42  53
ENDBRANCH  39  41
ENDBRANCH  31  39
ENDBRANCH  27  28
ENDBRANCH  23  27
ENDBRANCH  13  14
ENDBRANCH   4  13
ENDBRANCH   1   4
BRANCH   1  56
HETATM   56  C   UNL     1     -13.124  14.609  70.038  1.00  0.00     0.224 C  
HETATM   57  O   UNL     1     -13.203  15.981  69.642  1.00  0.00    -0.214 OA 
HETATM   58  H   UNL     1     -13.920  16.395  70.107  1.00  0.00     0.000 HD 
ENDBRANCH   1  56
TORSDOF 12
ENDMDL
MODEL      238
REMARK 921   NORMALIZED FREE ENERGY PREDICTED BY IDOCK:   -1.15 KCAL/MOL
REMARK 922        TOTAL FREE ENERGY PREDICTED BY IDOCK:   -5.15 KCAL/MOL
REMARK 923 INTER-LIGAND FREE ENERGY PREDICTED BY IDOCK:   -9.45 KCAL/MOL
REMARK 924 INTRA-LIGAND FREE ENERGY PREDICTED BY IDOCK:    4.30 KCAL/MOL
REMARK 927      BINDING AFFINITY PREDICTED BY RF-SCORE:    0.00 PKD
ROOT
HETATM    1  C   UNL     1     -11.746  13.470  67.576  1.00  0.00    -0.367 C  
HETATM    2  H   UNL     1     -12.217  14.434  65.961  1.00  0.00     0.000 HD 
HETATM    3  O   UNL     1     -12.147  14.658  66.881  1.00  0.00    -0.361 OA 
ENDROOT
BRANCH   1   4
HETATM    4  C   UNL     1     -10.446  12.840  66.991  1.00  0.00    -0.237 C  
BRANCH   4   5
HETATM    5  C   UNL     1     -10.191  13.257  65.508  1.00  0.00    -0.290 C  
HETATM    6  O   UNL     1      -9.758  14.622  65.413  1.00  0.00    -0.484 OA 
HETATM    7  H   UNL     1      -9.602  14.876  64.511  1.00  0.00     0.000 HD 
BRANCH   5   8
HETATM    8  C   UNL     1     -11.402  13.103  64.579  1.00  0.00    -0.349 C  
HETATM    9  C   UNL     1     -11.043  12.324  63.333  1.00  0.00    -0.418 C  
HETATM   10  O   UNL     1     -11.823  14.419  64.189  1.00  0.00    -0.615 OA 
HETATM   11  O   UNL     1     -11.149  11.101  63.260  1.00  0.00    -0.194 OA 
HETATM   12  H   UNL     1     -12.573  14.324  63.614  1.00  0.00     0.000 HD 
ENDBRANCH   5   8
ENDBRANCH   4   5
BRANCH   4  13
HETATM   13  O   UNL     1     -10.432  11.395  67.093  1.00  0.00    -0.208 OA 
BRANCH  13  14
HETATM   14  C   UNL     1      -9.841  10.880  68.298  1.00  0.00    -0.170 C  
HETATM   15  H   UNL     1      -6.028  10.801  67.116  1.00  0.00     0.000 HD 
HETATM   16  O   UNL     1      -7.785  12.249  68.007  1.00  0.00    -0.112 OA 
HETATM   17  C   UNL     1      -8.307  10.925  68.202  1.00  0.00    -0.123 C  
HETATM   18  O   UNL     1     -10.220   9.543  68.592  1.00  0.00    -0.181 OA 
HETATM   19  O   UNL     1      -6.399   9.926  67.135  1.00  0.00    -0.066 OA 
HETATM   20  C   UNL     1      -9.899   8.604  67.561  1.00  0.00    -0.180 C  
HETATM   21  H   UNL     1      -6.837  12.277  67.948  1.00  0.00     0.000 HD 
HETATM   22  C   UNL     1      -7.834  10.045  67.054  1.00  0.00    -0.102 C  
HETATM   23  C   UNL     1      -8.435   8.631  67.085  1.00  0.00    -0.114 C  
BRANCH  20  24
HETATM   24  C   UNL     1     -10.324   7.206  68.065  1.00  0.00    -0.194 C  
HETATM   25  O   UNL     1     -11.592   6.772  67.571  1.00  0.00    -0.668 OA 
HETATM   26  H   UNL     1     -11.853   5.912  67.880  1.00  0.00     0.000 HD 
ENDBRANCH  20  24
BRANCH  23  27
HETATM   27  O   UNL     1      -8.434   8.038  65.755  1.00  0.00    -0.133 OA 
BRANCH  27  28
HETATM   28  C   UNL     1      -7.433   7.028  65.583  1.00  0.00    -0.085 C  
HETATM   29  O   UNL     1      -6.318   7.279  66.425  1.00  0.00    -0.042 OA 
HETATM   30  C   UNL     1      -6.673   7.280  67.810  1.00  0.00    -0.065 C  
HETATM   31  C   UNL     1      -7.138   5.862  68.226  1.00  0.00    -0.078 C  
HETATM   32  C   UNL     1      -5.444   7.801  68.552  1.00  0.00    -0.027 C  
HETATM   33  C   UNL     1      -8.341   5.443  67.337  1.00  0.00    -0.103 C  
HETATM   34  H   UNL     1      -9.387   3.795  66.982  1.00  0.00     0.000 HD 
HETATM   35  C   UNL     1      -8.022   5.634  65.852  1.00  0.00    -0.107 C  
HETATM   36  O   UNL     1      -8.651   4.051  67.526  1.00  0.00    -0.098 OA 
HETATM   37  O   UNL     1      -9.198   5.390  65.060  1.00  0.00    -0.345 OA 
HETATM   38  H   UNL     1      -9.562   4.529  65.226  1.00  0.00     0.000 HD 
BRANCH  31  39
HETATM   39  N   UNL     1      -7.420   5.832  69.682  1.00  0.00    -0.074 NA 
HETATM   40  H   UNL     1      -6.811   5.345  70.340  1.00  0.00     0.000 HD 
BRANCH  39  41
HETATM   41  C   UNL     1      -8.647   6.555  70.127  1.00  0.00    -0.140 C  
HETATM   42  C   UNL     1      -9.995   5.658  72.074  1.00  0.00    -0.217 C  
HETATM   43  C   UNL     1      -9.585   5.603  70.806  1.00  0.00    -0.213 C  
HETATM   44  C   UNL     1      -9.616   6.805  72.971  1.00  0.00    -0.148 C  
HETATM   45  H   UNL     1      -6.519   8.288  71.957  1.00  0.00     0.000 HD 
HETATM   46  O   UNL     1      -6.803   7.560  71.417  1.00  0.00    -0.049 OA 
HETATM   47  C   UNL     1      -9.027   8.051  72.261  1.00  0.00    -0.171 C  
HETATM   48  O   UNL     1      -8.710   6.307  73.952  1.00  0.00    -0.122 OA 
HETATM   49  H   UNL     1      -9.720   9.719  71.465  1.00  0.00     0.000 HD 
HETATM   50  O   UNL     1     -10.082   8.956  71.900  1.00  0.00    -0.321 OA 
HETATM   51  C   UNL     1      -8.178   7.755  71.016  1.00  0.00    -0.103 C  
HETATM   52  H   UNL     1      -8.471   7.032  74.518  1.00  0.00     0.000 HD 
BRANCH  42  53
HETATM   53  C   UNL     1     -10.845   4.585  72.717  1.00  0.00    -0.162 C  
HETATM   54  O   UNL     1     -12.092   5.092  73.183  1.00  0.00    -0.473 OA 
HETATM   55  H   UNL     1     -12.626   4.417  73.588  1.00  0.00     0.000 HD 
ENDBRANCH  42  53
ENDBRANCH  39  41
ENDBRANCH  31  39
ENDBRANCH  27  28
ENDBRANCH  23  27
ENDBRANCH  13  14
ENDBRANCH   4  13
ENDBRANCH   1   4
BRANCH   1  56
HETATM   56  C   UNL     1     -11.633  13.833  69.058  1.00  0.00    -0.313 C  
HETATM   57  O   UNL     1     -10.254  14.023  69.385  1.00  0.00    -0.431 OA 
HETATM   58  H   UNL     1     -10.184  14.249  70.306  1.00  0.00     0.000 HD 
ENDBRANCH   1  56
TORSDOF 12
ENDMDL
MODEL      239
REMARK 921   NORMALIZED FREE ENERGY PREDICTED BY IDOCK:   -1.10 KCAL/MOL
REMARK 922        TOTAL FREE ENERGY PREDICTED BY IDOCK:   -5.06 KCAL/MOL
REMARK 923 INTER-LIGAND FREE ENERGY PREDICTED BY IDOCK:   -8.48 KCAL/MOL
REMARK 924 INTRA-LIGAND FREE ENERGY PREDICTED BY IDOCK:    3.42 KCAL/MOL
REMARK 927      BINDING AFFINITY PREDICTED BY RF-SCORE:    0.00 PKD
ROOT
HETATM    1  C   UNL     1     -12.018   9.137  70.659  1.00  0.00    -0.124 C  
HETATM    2  H   UNL     1     -11.303  10.932  70.506  1.00  0.00     0.000 HD 
HETATM    3  O   UNL     1     -11.799  10.460  71.165  1.00  0.00    -0.356 OA 
ENDROOT
BRANCH   1   4
HETATM    4  C   UNL     1     -10.696   8.422  70.248  1.00  0.00    -0.234 C  
BRANCH   4   5
HETATM    5  C   UNL     1     -10.099   7.554  71.400  1.00  0.00    -0.186 C  
HETATM    6  O   UNL     1      -8.804   8.027  71.799  1.00  0.00    -0.121 OA 
HETATM    7  H   UNL     1      -8.441   7.499  72.501  1.00  0.00     0.000 HD 
BRANCH   5   8
HETATM    8  C   UNL     1      -9.951   6.063  71.071  1.00  0.00    -0.187 C  
HETATM    9  C   UNL     1      -8.594   5.765  70.472  1.00  0.00    -0.138 C  
HETATM   10  O   UNL     1     -10.960   5.726  70.106  1.00  0.00    -0.326 OA 
HETATM   11  O   UNL     1      -7.620   5.453  71.155  1.00  0.00    -0.091 OA 
HETATM   12  H   UNL     1     -10.868   4.802  69.903  1.00  0.00     0.000 HD 
ENDBRANCH   5   8
ENDBRANCH   4   5
BRANCH   4  13
HETATM   13  O   UNL     1      -9.686   9.345  69.771  1.00  0.00    -0.176 OA 
BRANCH  13  14
HETATM   14  C   UNL     1      -8.813   8.816  68.759  1.00  0.00    -0.134 C  
HETATM   15  H   UNL     1      -5.756  11.343  69.218  1.00  0.00     0.000 HD 
HETATM   16  O   UNL     1      -6.778   9.306  70.103  1.00  0.00    -0.047 OA 
HETATM   17  C   UNL     1      -7.434   9.491  68.839  1.00  0.00    -0.074 C  
HETATM   18  O   UNL     1      -9.305   8.983  67.437  1.00  0.00    -0.136 OA 
HETATM   19  O   UNL     1      -6.252  11.544  68.433  1.00  0.00    -0.049 OA 
HETATM   20  C   UNL     1      -9.552  10.345  67.074  1.00  0.00    -0.166 C  
HETATM   21  H   UNL     1      -5.926   9.723  70.152  1.00  0.00     0.000 HD 
HETATM   22  C   UNL     1      -7.574  10.985  68.581  1.00  0.00    -0.124 C  
HETATM   23  C   UNL     1      -8.377  11.310  67.311  1.00  0.00    -0.145 C  
BRANCH  20  24
HETATM   24  C   UNL     1     -10.023  10.349  65.602  1.00  0.00    -0.272 C  
HETATM   25  O   UNL     1      -9.519  11.444  64.835  1.00  0.00    -0.263 OA 
HETATM   26  H   UNL     1      -9.809  11.446  63.930  1.00  0.00     0.000 HD 
ENDBRANCH  20  24
BRANCH  23  27
HETATM   27  O   UNL     1      -8.959  12.641  67.394  1.00  0.00    -0.173 OA 
BRANCH  27  28
HETATM   28  C   UNL     1      -8.233  13.627  66.650  1.00  0.00     0.388 C  
HETATM   29  O   UNL     1      -9.071  14.241  65.682  1.00  0.00     0.186 OA 
HETATM   30  C   UNL     1     -10.188  14.908  66.276  1.00  0.00    -0.294 C  
HETATM   31  C   UNL     1      -9.684  16.095  67.135  1.00  0.00    -0.233 C  
HETATM   32  C   UNL     1     -11.105  15.292  65.117  1.00  0.00    -0.412 C  
HETATM   33  C   UNL     1      -8.709  15.558  68.218  1.00  0.00    -0.170 C  
HETATM   34  H   UNL     1      -7.442  16.315  69.543  1.00  0.00     0.000 HD 
HETATM   35  C   UNL     1      -7.624  14.676  67.594  1.00  0.00    -0.180 C  
HETATM   36  O   UNL     1      -8.039  16.644  68.882  1.00  0.00    -0.234 OA 
HETATM   37  O   UNL     1      -6.830  14.066  68.628  1.00  0.00    -0.089 OA 
HETATM   38  H   UNL     1      -6.454  14.713  69.211  1.00  0.00     0.000 HD 
BRANCH  31  39
HETATM   39  N   UNL     1     -10.840  16.848  67.680  1.00  0.00    -0.293 NA 
HETATM   40  H   UNL     1     -10.878  17.868  67.662  1.00  0.00     0.000 HD 
BRANCH  39  41
HETATM   41  C   UNL     1     -11.945  16.026  68.255  1.00  0.00     0.179 C  
HETATM   42  C   UNL     1     -11.862  13.503  68.062  1.00  0.00    -0.400 C  
HETATM   43  C   UNL     1     -12.036  14.715  67.534  1.00  0.00    -0.212 C  
HETATM   44  C   UNL     1     -11.646  13.315  69.539  1.00  0.00    -0.286 C  
HETATM   45  H   UNL     1     -10.157  16.216  71.020  1.00  0.00     0.000 HD 
HETATM   46  O   UNL     1     -10.317  16.287  70.086  1.00  0.00    -0.169 OA 
HETATM   47  C   UNL     1     -11.970  14.542  70.430  1.00  0.00    -0.318 C  
HETATM   48  O   UNL     1     -10.297  12.896  69.731  1.00  0.00     0.122 OA 
HETATM   49  H   UNL     1     -13.545  15.254  71.385  1.00  0.00     0.000 HD 
HETATM   50  O   UNL     1     -13.347  14.502  70.839  1.00  0.00    -0.363 OA 
HETATM   51  C   UNL     1     -11.681  15.909  69.793  1.00  0.00    -0.318 C  
HETATM   52  H   UNL     1     -10.161  12.777  70.663  1.00  0.00     0.000 HD 
BRANCH  42  53
HETATM   53  C   UNL     1     -11.848  12.234  67.238  1.00  0.00    -0.260 C  
HETATM   54  O   UNL     1     -12.411  12.425  65.944  1.00  0.00    -0.638 OA 
HETATM   55  H   UNL     1     -12.402  11.628  65.427  1.00  0.00     0.000 HD 
ENDBRANCH  42  53
ENDBRANCH  39  41
ENDBRANCH  31  39
ENDBRANCH  27  28
ENDBRANCH  23  27
ENDBRANCH  13  14
ENDBRANCH   4  13
ENDBRANCH   1   4
BRANCH   1  56
HETATM   56  C   UNL     1     -12.816   8.377  71.721  1.00  0.00    -0.345 C  
HETATM   57  O   UNL     1     -13.588   7.358  71.079  1.00  0.00    -0.613 OA 
HETATM   58  H   UNL     1     -14.084   6.886  71.738  1.00  0.00     0.000 HD 
ENDBRANCH   1  56
TORSDOF 12
ENDMDL
MODEL      240
REMARK 921   NORMALIZED FREE ENERGY PREDICTED BY IDOCK:   -1.03 KCAL/MOL
REMARK 922        TOTAL FREE ENERGY PREDICTED BY IDOCK:   -4.94 KCAL/MOL
REMARK 923 INTER-LIGAND FREE ENERGY PREDICTED BY IDOCK:   -8.04 KCAL/MOL
REMARK 924 INTRA-LIGAND FREE ENERGY PREDICTED BY IDOCK:    3.09 KCAL/MOL
REMARK 927      BINDING AFFINITY PREDICTED BY RF-SCORE:    0.00 PKD
ROOT
HETATM    1  C   UNL     1      -8.171   6.428  66.058  1.00  0.00    -0.126 C  
HETATM    2  H   UNL     1      -8.456   5.090  67.431  1.00  0.00     0.000 HD 
HETATM    3  O   UNL     1      -8.112   5.081  66.545  1.00  0.00    -0.107 OA 
ENDROOT
BRANCH   1   4
HETATM    4  C   UNL     1      -7.446   7.441  66.994  1.00  0.00    -0.098 C  
BRANCH   4   5
HETATM    5  C   UNL     1      -6.170   8.056  66.339  1.00  0.00    -0.046 C  
HETATM    6  O   UNL     1      -5.236   8.509  67.331  1.00  0.00    -0.032 OA 
HETATM    7  H   UNL     1      -4.459   8.883  66.933  1.00  0.00     0.000 HD 
BRANCH   5   8
HETATM    8  C   UNL     1      -6.435   9.239  65.399  1.00  0.00    -0.069 C  
HETATM    9  C   UNL     1      -5.426   9.284  64.274  1.00  0.00    -0.060 C  
HETATM   10  O   UNL     1      -6.314  10.445  66.170  1.00  0.00    -0.088 OA 
HETATM   11  O   UNL     1      -5.603   8.715  63.199  1.00  0.00    -0.071 OA 
HETATM   12  H   UNL     1      -6.479  11.178  65.588  1.00  0.00     0.000 HD 
ENDBRANCH   5   8
ENDBRANCH   4   5
BRANCH   4  13
HETATM   13  O   UNL     1      -7.098   6.866  68.276  1.00  0.00    -0.080 OA 
BRANCH  13  14
HETATM   14  C   UNL     1      -7.928   7.286  69.373  1.00  0.00    -0.125 C  
HETATM   15  H   UNL     1     -11.495   6.844  67.634  1.00  0.00     0.000 HD 
HETATM   16  O   UNL     1      -9.709   5.647  68.797  1.00  0.00    -0.124 OA 
HETATM   17  C   UNL     1      -9.409   7.029  69.050  1.00  0.00    -0.136 C  
HETATM   18  O   UNL     1      -7.786   8.660  69.702  1.00  0.00    -0.084 OA 
HETATM   19  O   UNL     1     -11.255   7.761  67.696  1.00  0.00     0.118 OA 
HETATM   20  C   UNL     1      -8.076   9.552  68.621  1.00  0.00    -0.097 C  
HETATM   21  H   UNL     1     -10.624   5.488  68.597  1.00  0.00     0.000 HD 
HETATM   22  C   UNL     1      -9.822   7.843  67.831  1.00  0.00    -0.165 C  
HETATM   23  C   UNL     1      -9.433   9.327  67.932  1.00  0.00    -0.137 C  
BRANCH  20  24
HETATM   24  C   UNL     1      -7.928  10.993  69.163  1.00  0.00    -0.078 C  
HETATM   25  O   UNL     1      -6.810  11.703  68.627  1.00  0.00    -0.067 OA 
HETATM   26  H   UNL     1      -6.720  12.588  68.960  1.00  0.00     0.000 HD 
ENDBRANCH  20  24
BRANCH  23  27
HETATM   27  O   UNL     1      -9.317   9.922  66.609  1.00  0.00    -0.149 OA 
BRANCH  27  28
HETATM   28  C   UNL     1     -10.582  10.226  66.008  1.00  0.00    -0.040 C  
HETATM   29  O   UNL     1     -11.214  11.299  66.689  1.00  0.00    -0.284 OA 
HETATM   30  C   UNL     1     -10.438  12.499  66.652  1.00  0.00    -0.233 C  
HETATM   31  C   UNL     1     -10.333  13.000  65.189  1.00  0.00    -0.304 C  
HETATM   32  C   UNL     1     -11.121  13.464  67.618  1.00  0.00    -0.288 C  
HETATM   33  C   UNL     1      -9.690  11.886  64.318  1.00  0.00    -0.117 C  
HETATM   34  H   UNL     1      -9.396  11.533  62.388  1.00  0.00     0.000 HD 
HETATM   35  C   UNL     1     -10.407  10.549  64.516  1.00  0.00    -0.205 C  
HETATM   36  O   UNL     1      -9.789  12.214  62.921  1.00  0.00    -0.270 OA 
HETATM   37  O   UNL     1      -9.701   9.503  63.824  1.00  0.00    -0.415 OA 
HETATM   38  H   UNL     1      -9.593   9.702  62.902  1.00  0.00     0.000 HD 
BRANCH  31  39
HETATM   39  N   UNL     1      -9.607  14.294  65.152  1.00  0.00    -0.471 NA 
HETATM   40  H   UNL     1      -9.185  14.652  64.295  1.00  0.00     0.000 HD 
BRANCH  39  41
HETATM   41  C   UNL     1      -9.532  15.040  66.442  1.00  0.00    -0.297 C  
HETATM   42  C   UNL     1      -7.422  16.310  67.033  1.00  0.00    -0.257 C  
HETATM   43  C   UNL     1      -8.102  15.174  66.872  1.00  0.00    -0.194 C  
HETATM   44  C   UNL     1      -8.091  17.650  66.890  1.00  0.00    -0.224 C  
HETATM   45  H   UNL     1     -10.915  17.473  64.696  1.00  0.00     0.000 HD 
HETATM   46  O   UNL     1     -10.460  16.648  64.822  1.00  0.00    -0.587 OA 
HETATM   47  C   UNL     1      -9.641  17.634  66.885  1.00  0.00    -0.286 C  
HETATM   48  O   UNL     1      -7.589  18.261  65.705  1.00  0.00    -0.509 OA 
HETATM   49  H   UNL     1     -11.089  17.752  68.222  1.00  0.00     0.000 HD 
HETATM   50  O   UNL     1     -10.139  17.762  68.226  1.00  0.00    -0.327 OA 
HETATM   51  C   UNL     1     -10.281  16.398  66.234  1.00  0.00    -0.330 C  
HETATM   52  H   UNL     1      -8.011  19.108  65.615  1.00  0.00     0.000 HD 
BRANCH  42  53
HETATM   53  C   UNL     1      -5.944  16.353  67.350  1.00  0.00    -0.162 C  
HETATM   54  O   UNL     1      -5.212  17.129  66.407  1.00  0.00    -0.268 OA 
HETATM   55  H   UNL     1      -4.283  17.156  66.606  1.00  0.00     0.000 HD 
ENDBRANCH  42  53
ENDBRANCH  39  41
ENDBRANCH  31  39
ENDBRANCH  27  28
ENDBRANCH  23  27
ENDBRANCH  13  14
ENDBRANCH   4  13
ENDBRANCH   1   4
BRANCH   1  56
HETATM   56  C   UNL     1      -7.618   6.413  64.631  1.00  0.00    -0.099 C  
HETATM   57  O   UNL     1      -6.945   5.172  64.407  1.00  0.00    -0.047 OA 
HETATM   58  H   UNL     1      -6.601   5.162  63.521  1.00  0.00     0.000 HD 
ENDBRANCH   1  56
TORSDOF 12
ENDMDL
MODEL      241
REMARK 921   NORMALIZED FREE ENERGY PREDICTED BY IDOCK:   -0.97 KCAL/MOL
REMARK 922        TOTAL FREE ENERGY PREDICTED BY IDOCK:   -4.84 KCAL/MOL
REMARK 923 INTER-LIGAND FREE ENERGY PREDICTED BY IDOCK:   -6.96 KCAL/MOL
REMARK 924 INTRA-LIGAND FREE ENERGY PREDICTED BY IDOCK:    2.12 KCAL/MOL
REMARK 927      BINDING AFFINITY PREDICTED BY RF-SCORE:    0.00 PKD
ROOT
HETATM    1  C   UNL     1     -11.971  11.845  69.583  1.00  0.00    -0.298 C  
HETATM    2  H   UNL     1     -12.368  12.870  71.179  1.00  0.00     0.000 HD 
HETATM    3  O   UNL     1     -12.245  11.948  70.986  1.00  0.00    -0.319 OA 
ENDROOT
BRANCH   1   4
HETATM    4  C   UNL     1     -10.775  12.737  69.134  1.00  0.00    -0.016 C  
BRANCH   4   5
HETATM    5  C   UNL     1     -11.178  13.774  68.039  1.00  0.00    -0.267 C  
HETATM    6  O   UNL     1     -11.353  13.147  66.759  1.00  0.00    -0.293 OA 
HETATM    7  H   UNL     1     -11.598  13.777  66.093  1.00  0.00     0.000 HD 
BRANCH   5   8
HETATM    8  C   UNL     1     -10.180  14.923  67.842  1.00  0.00    -0.228 C  
HETATM    9  C   UNL     1     -10.784  16.250  68.245  1.00  0.00    -0.322 C  
HETATM   10  O   UNL     1      -9.846  14.978  66.446  1.00  0.00    -0.245 OA 
HETATM   11  O   UNL     1     -10.695  16.702  69.385  1.00  0.00    -0.321 OA 
HETATM   12  H   UNL     1      -9.228  15.689  66.325  1.00  0.00     0.000 HD 
ENDBRANCH   5   8
ENDBRANCH   4   5
BRANCH   4  13
HETATM   13  O   UNL     1      -9.643  11.963  68.669  1.00  0.00    -0.178 OA 
BRANCH  13  14
HETATM   14  C   UNL     1      -8.648  12.716  67.955  1.00  0.00    -0.181 C  
HETATM   15  H   UNL     1      -7.525   9.907  65.347  1.00  0.00     0.000 HD 
HETATM   16  O   UNL     1      -9.213  11.619  65.794  1.00  0.00    -0.265 OA 
HETATM   17  C   UNL     1      -8.164  11.928  66.726  1.00  0.00    -0.129 C  
HETATM   18  O   UNL     1      -7.510  13.045  68.738  1.00  0.00    -0.111 OA 
HETATM   19  O   UNL     1      -6.871  10.026  66.026  1.00  0.00    -0.093 OA 
HETATM   20  C   UNL     1      -6.831  11.911  69.286  1.00  0.00    -0.080 C  
HETATM   21  H   UNL     1      -8.913  11.132  65.035  1.00  0.00     0.000 HD 
HETATM   22  C   UNL     1      -7.514  10.625  67.171  1.00  0.00    -0.099 C  
HETATM   23  C   UNL     1      -6.456  10.817  68.269  1.00  0.00    -0.058 C  
BRANCH  20  24
HETATM   24  C   UNL     1      -5.598  12.441  70.053  1.00  0.00    -0.125 C  
HETATM   25  O   UNL     1      -5.910  13.026  71.319  1.00  0.00    -0.507 OA 
HETATM   26  H   UNL     1      -5.152  13.352  71.790  1.00  0.00     0.000 HD 
ENDBRANCH  20  24
BRANCH  23  27
HETATM   27  O   UNL     1      -6.281   9.595  69.039  1.00  0.00    -0.041 OA 
BRANCH  27  28
HETATM   28  C   UNL     1      -7.454   8.773  69.077  1.00  0.00    -0.081 C  
HETATM   29  O   UNL     1      -7.110   7.404  68.924  1.00  0.00    -0.075 OA 
HETATM   30  C   UNL     1      -6.246   6.942  69.965  1.00  0.00    -0.031 C  
HETATM   31  C   UNL     1      -6.998   6.986  71.319  1.00  0.00    -0.061 C  
HETATM   32  C   UNL     1      -5.778   5.555  69.530  1.00  0.00    -0.012 C  
HETATM   33  C   UNL     1      -7.474   8.440  71.587  1.00  0.00    -0.101 C  
HETATM   34  H   UNL     1      -8.665   9.371  72.871  1.00  0.00     0.000 HD 
HETATM   35  C   UNL     1      -8.232   9.002  70.382  1.00  0.00    -0.151 C  
HETATM   36  O   UNL     1      -8.374   8.481  72.708  1.00  0.00    -0.335 OA 
HETATM   37  O   UNL     1      -8.525  10.395  70.590  1.00  0.00    -0.120 OA 
HETATM   38  H   UNL     1      -9.006  10.538  71.396  1.00  0.00     0.000 HD 
BRANCH  31  39
HETATM   39  N   UNL     1      -6.140   6.421  72.390  1.00  0.00    -0.038 NA 
HETATM   40  H   UNL     1      -5.154   6.670  72.479  1.00  0.00     0.000 HD 
BRANCH  39  41
HETATM   41  C   UNL     1      -6.803   5.469  73.328  1.00  0.00    -0.079 C  
HETATM   42  C   UNL     1      -9.330   5.323  73.387  1.00  0.00    -0.135 C  
HETATM   43  C   UNL     1      -8.184   5.951  73.654  1.00  0.00    -0.110 C  
HETATM   44  C   UNL     1      -9.346   3.942  72.789  1.00  0.00    -0.112 C  
HETATM   45  H   UNL     1      -6.394   3.321  70.858  1.00  0.00     0.000 HD 
HETATM   46  O   UNL     1      -6.430   4.181  71.260  1.00  0.00    -0.018 OA 
HETATM   47  C   UNL     1      -7.998   3.178  72.820  1.00  0.00    -0.063 C  
HETATM   48  O   UNL     1      -9.832   4.053  71.454  1.00  0.00    -0.180 OA 
HETATM   49  H   UNL     1      -7.062   1.954  74.056  1.00  0.00     0.000 HD 
HETATM   50  O   UNL     1      -7.889   2.422  74.037  1.00  0.00    -0.052 OA 
HETATM   51  C   UNL     1      -6.745   4.053  72.665  1.00  0.00    -0.041 C  
HETATM   52  H   UNL     1      -9.842   3.181  71.077  1.00  0.00     0.000 HD 
BRANCH  42  53
HETATM   53  C   UNL     1     -10.690   5.937  73.638  1.00  0.00    -0.235 C  
HETATM   54  O   UNL     1     -10.634   7.357  73.715  1.00  0.00    -0.349 OA 
HETATM   55  H   UNL     1     -11.488   7.743  73.873  1.00  0.00     0.000 HD 
ENDBRANCH  42  53
ENDBRANCH  39  41
ENDBRANCH  31  39
ENDBRANCH  27  28
ENDBRANCH  23  27
ENDBRANCH  13  14
ENDBRANCH   4  13
ENDBRANCH   1   4
BRANCH   1  56
HETATM   56  C   UNL     1     -11.771  10.359  69.272  1.00  0.00    -0.140 C  
HETATM   57  O   UNL     1     -11.547   9.656  70.497  1.00  0.00    -0.264 OA 
HETATM   58  H   UNL     1     -11.423   8.733  70.304  1.00  0.00     0.000 HD 
ENDBRANCH   1  56
TORSDOF 12
ENDMDL
MODEL      242
REMARK 921   NORMALIZED FREE ENERGY PREDICTED BY IDOCK:   -0.77 KCAL/MOL
REMARK 922        TOTAL FREE ENERGY PREDICTED BY IDOCK:   -4.50 KCAL/MOL
REMARK 923 INTER-LIGAND FREE ENERGY PREDICTED BY IDOCK:   -6.08 KCAL/MOL
REMARK 924 INTRA-LIGAND FREE ENERGY PREDICTED BY IDOCK:    1.59 KCAL/MOL
REMARK 927      BINDING AFFINITY PREDICTED BY RF-SCORE:    0.00 PKD
ROOT
HETATM    1  C   UNL     1      -9.799   7.374  66.003  1.00  0.00     0.316 C  
HETATM    2  H   UNL     1     -10.717   6.763  67.597  1.00  0.00     0.000 HD 
HETATM    3  O   UNL     1      -9.966   6.463  67.097  1.00  0.00    -0.134 OA 
ENDROOT
BRANCH   1   4
HETATM    4  C   UNL     1      -9.685   8.858  66.465  1.00  0.00    -0.254 C  
BRANCH   4   5
HETATM    5  C   UNL     1      -9.825   9.867  65.282  1.00  0.00    -0.303 C  
HETATM    6  O   UNL     1      -9.397   9.286  64.041  1.00  0.00    -0.401 OA 
HETATM    7  H   UNL     1      -9.482   9.901  63.321  1.00  0.00     0.000 HD 
BRANCH   5   8
HETATM    8  C   UNL     1      -9.044  11.176  65.458  1.00  0.00    -0.195 C  
HETATM    9  C   UNL     1      -9.847  12.364  64.976  1.00  0.00    -0.114 C  
HETATM   10  O   UNL     1      -7.849  11.082  64.667  1.00  0.00    -0.336 OA 
HETATM   11  O   UNL     1     -10.594  13.004  65.713  1.00  0.00    -0.269 OA 
HETATM   12  H   UNL     1      -7.365  11.892  64.776  1.00  0.00     0.000 HD 
ENDBRANCH   5   8
ENDBRANCH   4   5
BRANCH   4  13
HETATM   13  O   UNL     1      -8.456   9.126  67.182  1.00  0.00    -0.119 OA 
BRANCH  13  14
HETATM   14  C   UNL     1      -8.538   8.954  68.607  1.00  0.00    -0.133 C  
HETATM   15  H   UNL     1     -11.646  11.356  69.327  1.00  0.00     0.000 HD 
HETATM   16  O   UNL     1     -11.021   9.108  68.594  1.00  0.00    -0.429 OA 
HETATM   17  C   UNL     1      -9.806   9.631  69.154  1.00  0.00    -0.186 C  
HETATM   18  O   UNL     1      -7.423   9.484  69.310  1.00  0.00    -0.072 OA 
HETATM   19  O   UNL     1     -10.830  11.759  69.602  1.00  0.00    -0.073 OA 
HETATM   20  C   UNL     1      -7.205  10.881  69.092  1.00  0.00    -0.118 C  
HETATM   21  H   UNL     1     -11.804   9.527  68.932  1.00  0.00     0.000 HD 
HETATM   22  C   UNL     1      -9.752  11.128  68.881  1.00  0.00    -0.150 C  
HETATM   23  C   UNL     1      -8.432  11.780  69.324  1.00  0.00     0.543 C  
BRANCH  20  24
HETATM   24  C   UNL     1      -6.001  11.299  69.968  1.00  0.00    -0.131 C  
HETATM   25  O   UNL     1      -5.126  12.239  69.340  1.00  0.00    -0.064 OA 
HETATM   26  H   UNL     1      -4.387  12.496  69.879  1.00  0.00     0.000 HD 
ENDBRANCH  20  24
BRANCH  23  27
HETATM   27  O   UNL     1      -8.183  13.003  68.576  1.00  0.00    -0.140 OA 
BRANCH  27  28
HETATM   28  C   UNL     1      -7.976  14.149  69.411  1.00  0.00     0.294 C  
HETATM   29  O   UNL     1      -6.723  14.754  69.129  1.00  0.00    -0.106 OA 
HETATM   30  C   UNL     1      -6.631  15.205  67.775  1.00  0.00    -0.165 C  
HETATM   31  C   UNL     1      -7.654  16.345  67.540  1.00  0.00    -0.145 C  
HETATM   32  C   UNL     1      -5.169  15.595  67.567  1.00  0.00    -0.022 C  
HETATM   33  C   UNL     1      -9.080  15.820  67.862  1.00  0.00    -0.186 C  
HETATM   34  H   UNL     1     -10.898  16.581  68.083  1.00  0.00     0.000 HD 
HETATM   35  C   UNL     1      -9.124  15.156  69.241  1.00  0.00    -0.201 C  
HETATM   36  O   UNL     1     -10.026  16.902  67.886  1.00  0.00    -0.259 OA 
HETATM   37  O   UNL     1     -10.408  14.541  69.451  1.00  0.00    -0.370 OA 
HETATM   38  H   UNL     1     -11.117  15.163  69.346  1.00  0.00     0.000 HD 
BRANCH  31  39
HETATM   39  N   UNL     1      -7.502  16.881  66.165  1.00  0.00    -0.247 NA 
HETATM   40  H   UNL     1      -7.420  16.270  65.352  1.00  0.00     0.000 HD 
BRANCH  39  41
HETATM   41  C   UNL     1      -7.474  18.368  66.041  1.00  0.00    -0.221 C  
HETATM   42  C   UNL     1      -9.569  19.705  66.524  1.00  0.00    -0.483 C  
HETATM   43  C   UNL     1      -8.853  18.883  65.756  1.00  0.00     0.387 C  
HETATM   44  C   UNL     1      -8.992  20.313  67.773  1.00  0.00    -0.237 C  
HETATM   45  H   UNL     1      -6.421  18.244  69.164  1.00  0.00     0.000 HD 
HETATM   46  O   UNL     1      -6.816  17.904  68.370  1.00  0.00    -0.211 OA 
HETATM   47  C   UNL     1      -7.453  20.205  67.927  1.00  0.00    -0.281 C  
HETATM   48  O   UNL     1      -9.653  19.722  68.889  1.00  0.00    -0.349 OA 
HETATM   49  H   UNL     1      -5.875  21.280  67.424  1.00  0.00     0.000 HD 
HETATM   50  O   UNL     1      -6.818  21.347  67.330  1.00  0.00    -0.572 OA 
HETATM   51  C   UNL     1      -6.825  18.929  67.350  1.00  0.00    -0.200 C  
HETATM   52  H   UNL     1      -9.289  20.106  69.678  1.00  0.00     0.000 HD 
BRANCH  42  53
HETATM   53  C   UNL     1     -11.004  20.079  66.224  1.00  0.00     0.070 C  
HETATM   54  O   UNL     1     -11.523  19.371  65.102  1.00  0.00     0.193 OA 
HETATM   55  H   UNL     1     -12.424  19.606  64.913  1.00  0.00     0.000 HD 
ENDBRANCH  42  53
ENDBRANCH  39  41
ENDBRANCH  31  39
ENDBRANCH  27  28
ENDBRANCH  23  27
ENDBRANCH  13  14
ENDBRANCH   4  13
ENDBRANCH   1   4
BRANCH   1  56
HETATM   56  C   UNL     1      -8.590   6.892  65.198  1.00  0.00     0.059 C  
HETATM   57  O   UNL     1      -7.396   7.231  65.908  1.00  0.00    -0.071 OA 
HETATM   58  H   UNL     1      -6.645   6.931  65.408  1.00  0.00     0.000 HD 
ENDBRANCH   1  56
TORSDOF 12
ENDMDL
MODEL      243
REMARK 921   NORMALIZED FREE ENERGY PREDICTED BY IDOCK:   -0.74 KCAL/MOL
REMARK 922        TOTAL FREE ENERGY PREDICTED BY IDOCK:   -4.45 KCAL/MOL
REMARK 923 INTER-LIGAND FREE ENERGY PREDICTED BY IDOCK:   -6.91 KCAL/MOL
REMARK 924 INTRA-LIGAND FREE ENERGY PREDICTED BY IDOCK:    2.46 KCAL/MOL
REMARK 927      BINDING AFFINITY PREDICTED BY RF-SCORE:    0.00 PKD
ROOT
HETATM    1  C   UNL     1      -9.496   6.129  68.980  1.00  0.00    -0.127 C  
HETATM    2  H   UNL     1      -8.470   6.101  70.625  1.00  0.00     0.000 HD 
HETATM    3  O   UNL     1      -9.112   5.527  70.223  1.00  0.00    -0.134 OA 
ENDROOT
BRANCH   1   4
HETATM    4  C   UNL     1      -8.279   6.440  68.058  1.00  0.00    -0.116 C  
BRANCH   4   5
HETATM    5  C   UNL     1      -6.999   5.644  68.465  1.00  0.00    -0.064 C  
HETATM    6  O   UNL     1      -6.598   4.729  67.434  1.00  0.00    -0.044 OA 
HETATM    7  H   UNL     1      -5.819   4.245  67.682  1.00  0.00     0.000 HD 
BRANCH   5   8
HETATM    8  C   UNL     1      -7.131   4.833  69.761  1.00  0.00    -0.054 C  
HETATM    9  C   UNL     1      -5.842   4.850  70.553  1.00  0.00    -0.017 C  
HETATM   10  O   UNL     1      -7.425   3.475  69.397  1.00  0.00    -0.048 OA 
HETATM   11  O   UNL     1      -5.599   5.700  71.407  1.00  0.00    -0.015 OA 
HETATM   12  H   UNL     1      -7.507   2.972  70.199  1.00  0.00     0.000 HD 
ENDBRANCH   5   8
ENDBRANCH   4   5
BRANCH   4  13
HETATM   13  O   UNL     1      -7.968   7.853  68.000  1.00  0.00    -0.124 OA 
BRANCH  13  14
HETATM   14  C   UNL     1      -6.578   8.174  68.178  1.00  0.00    -0.057 C  
HETATM   15  H   UNL     1      -6.933  10.726  71.229  1.00  0.00     0.000 HD 
HETATM   16  O   UNL     1      -6.821   8.354  70.647  1.00  0.00    -0.036 OA 
HETATM   17  C   UNL     1      -6.383   9.016  69.450  1.00  0.00    -0.044 C  
HETATM   18  O   UNL     1      -6.015   8.892  67.090  1.00  0.00    -0.054 OA 
HETATM   19  O   UNL     1      -6.752  11.185  70.417  1.00  0.00    -0.233 OA 
HETATM   20  C   UNL     1      -6.674  10.130  66.803  1.00  0.00    -0.077 C  
HETATM   21  H   UNL     1      -6.701   8.874  71.433  1.00  0.00     0.000 HD 
HETATM   22  C   UNL     1      -7.139  10.331  69.321  1.00  0.00    -0.083 C  
HETATM   23  C   UNL     1      -6.847  11.073  68.007  1.00  0.00    -0.067 C  
BRANCH  20  24
HETATM   24  C   UNL     1      -5.905  10.800  65.641  1.00  0.00    -0.121 C  
HETATM   25  O   UNL     1      -5.212  11.992  66.016  1.00  0.00    -0.410 OA 
HETATM   26  H   UNL     1      -4.740  12.404  65.302  1.00  0.00     0.000 HD 
ENDBRANCH  20  24
BRANCH  23  27
HETATM   27  O   UNL     1      -7.942  11.968  67.663  1.00  0.00    -0.131 OA 
BRANCH  27  28
HETATM   28  C   UNL     1      -7.505  13.259  67.222  1.00  0.00    -0.055 C  
HETATM   29  O   UNL     1      -8.615  14.066  66.858  1.00  0.00    -0.204 OA 
HETATM   30  C   UNL     1      -9.511  14.281  67.951  1.00  0.00    -0.212 C  
HETATM   31  C   UNL     1      -8.797  15.110  69.049  1.00  0.00    -0.219 C  
HETATM   32  C   UNL     1     -10.750  14.940  67.348  1.00  0.00    -0.292 C  
HETATM   33  C   UNL     1      -7.522  14.349  69.507  1.00  0.00     0.033 C  
HETATM   34  H   UNL     1      -5.928  14.719  70.628  1.00  0.00     0.000 HD 
HETATM   35  C   UNL     1      -6.661  13.944  68.309  1.00  0.00    -0.110 C  
HETATM   36  O   UNL     1      -6.707  15.185  70.348  1.00  0.00    -0.064 OA 
HETATM   37  O   UNL     1      -5.572  13.109  68.743  1.00  0.00    -0.069 OA 
HETATM   38  H   UNL     1      -5.051  13.532  69.414  1.00  0.00     0.000 HD 
BRANCH  31  39
HETATM   39  N   UNL     1      -9.747  15.417  70.146  1.00  0.00    -0.384 NA 
HETATM   40  H   UNL     1      -9.436  15.799  71.039  1.00  0.00     0.000 HD 
BRANCH  39  41
HETATM   41  C   UNL     1     -11.185  15.133  69.865  1.00  0.00    -0.283 C  
HETATM   42  C   UNL     1     -12.247  13.022  70.775  1.00  0.00    -0.359 C  
HETATM   43  C   UNL     1     -11.437  13.657  69.927  1.00  0.00    -0.206 C  
HETATM   44  C   UNL     1     -13.117  13.778  71.742  1.00  0.00    -0.379 C  
HETATM   45  H   UNL     1     -11.695  16.961  72.563  1.00  0.00     0.000 HD 
HETATM   46  O   UNL     1     -11.183  16.445  71.951  1.00  0.00    -0.058 OA 
HETATM   47  C   UNL     1     -13.268  15.297  71.469  1.00  0.00    -0.459 C  
HETATM   48  O   UNL     1     -12.608  13.550  73.054  1.00  0.00    -0.033 OA 
HETATM   49  H   UNL     1     -14.481  16.462  70.435  1.00  0.00     0.000 HD 
HETATM   50  O   UNL     1     -14.389  15.531  70.602  1.00  0.00    -0.157 OA 
HETATM   51  C   UNL     1     -12.029  15.982  70.874  1.00  0.00    -0.339 C  
HETATM   52  H   UNL     1     -13.157  14.028  73.664  1.00  0.00     0.000 HD 
BRANCH  42  53
HETATM   53  C   UNL     1     -12.349  11.515  70.852  1.00  0.00    -0.359 C  
HETATM   54  O   UNL     1     -11.181  10.869  70.358  1.00  0.00    -0.435 OA 
HETATM   55  H   UNL     1     -11.245   9.922  70.406  1.00  0.00     0.000 HD 
ENDBRANCH  42  53
ENDBRANCH  39  41
ENDBRANCH  31  39
ENDBRANCH  27  28
ENDBRANCH  23  27
ENDBRANCH  13  14
ENDBRANCH   4  13
ENDBRANCH   1   4
BRANCH   1  56
HETATM   56  C   UNL     1     -10.530   5.204  68.333  1.00  0.00    -0.014 C  
HETATM   57  O   UNL     1      -9.947   4.592  67.180  1.00  0.00    -0.194 OA 
HETATM   58  H   UNL     1     -10.588   4.018  66.779  1.00  0.00     0.000 HD 
ENDBRANCH   1  56
TORSDOF 12
ENDMDL
MODEL      244
REMARK 921   NORMALIZED FREE ENERGY PREDICTED BY IDOCK:   -0.70 KCAL/MOL
REMARK 922        TOTAL FREE ENERGY PREDICTED BY IDOCK:   -4.38 KCAL/MOL
REMARK 923 INTER-LIGAND FREE ENERGY PREDICTED BY IDOCK:   -6.15 KCAL/MOL
REMARK 924 INTRA-LIGAND FREE ENERGY PREDICTED BY IDOCK:    1.77 KCAL/MOL
REMARK 927      BINDING AFFINITY PREDICTED BY RF-SCORE:    0.00 PKD
ROOT
HETATM    1  C   UNL     1      -9.148   4.060  73.242  1.00  0.00    -0.106 C  
HETATM    2  H   UNL     1      -7.508   3.819  74.247  1.00  0.00     0.000 HD 
HETATM    3  O   UNL     1      -8.413   3.555  74.365  1.00  0.00    -0.083 OA 
ENDROOT
BRANCH   1   4
HETATM    4  C   UNL     1      -8.545   3.615  71.876  1.00  0.00    -0.090 C  
BRANCH   4   5
HETATM    5  C   UNL     1      -6.993   3.776  71.825  1.00  0.00    -0.027 C  
HETATM    6  O   UNL     1      -6.328   2.683  72.478  1.00  0.00    -0.013 OA 
HETATM    7  H   UNL     1      -5.384   2.781  72.446  1.00  0.00     0.000 HD 
BRANCH   5   8
HETATM    8  C   UNL     1      -6.458   5.068  72.456  1.00  0.00    -0.043 C  
HETATM    9  C   UNL     1      -7.335   6.251  72.110  1.00  0.00    -0.093 C  
HETATM   10  O   UNL     1      -5.145   5.303  71.924  1.00  0.00    -0.005 OA 
HETATM   11  O   UNL     1      -8.285   6.600  72.808  1.00  0.00    -0.108 OA 
HETATM   12  H   UNL     1      -4.814   6.103  72.315  1.00  0.00     0.000 HD 
ENDBRANCH   5   8
ENDBRANCH   4   5
BRANCH   4  13
HETATM   13  O   UNL     1      -9.137   4.308  70.751  1.00  0.00    -0.098 OA 
BRANCH  13  14
HETATM   14  C   UNL     1      -9.298   3.511  69.566  1.00  0.00    -0.173 C  
HETATM   15  H   UNL     1      -5.692   4.089  67.952  1.00  0.00     0.000 HD 
HETATM   16  O   UNL     1      -6.923   2.773  69.605  1.00  0.00    -0.034 OA 
HETATM   17  C   UNL     1      -7.959   3.385  68.821  1.00  0.00    -0.061 C  
HETATM   18  O   UNL     1     -10.257   4.030  68.656  1.00  0.00     0.197 OA 
HETATM   19  O   UNL     1      -6.357   4.588  67.493  1.00  0.00    -0.038 OA 
HETATM   20  C   UNL     1      -9.973   5.358  68.204  1.00  0.00    -0.158 C  
HETATM   21  H   UNL     1      -6.095   2.696  69.145  1.00  0.00     0.000 HD 
HETATM   22  C   UNL     1      -7.482   4.762  68.379  1.00  0.00    -0.069 C  
HETATM   23  C   UNL     1      -8.559   5.568  67.636  1.00  0.00    -0.108 C  
BRANCH  20  24
HETATM   24  C   UNL     1     -11.074   5.741  67.187  1.00  0.00     0.066 C  
HETATM   25  O   UNL     1     -11.163   7.144  66.930  1.00  0.00    -0.576 OA 
HETATM   26  H   UNL     1     -11.839   7.378  66.305  1.00  0.00     0.000 HD 
ENDBRANCH  20  24
BRANCH  23  27
HETATM   27  O   UNL     1      -8.294   6.996  67.732  1.00  0.00    -0.116 OA 
BRANCH  27  28
HETATM   28  C   UNL     1      -7.687   7.380  68.972  1.00  0.00    -0.118 C  
HETATM   29  O   UNL     1      -6.666   8.342  68.752  1.00  0.00    -0.055 OA 
HETATM   30  C   UNL     1      -7.165   9.537  68.147  1.00  0.00    -0.080 C  
HETATM   31  C   UNL     1      -8.136  10.245  69.126  1.00  0.00    -0.138 C  
HETATM   32  C   UNL     1      -5.933  10.349  67.756  1.00  0.00    -0.044 C  
HETATM   33  C   UNL     1      -9.290   9.271  69.487  1.00  0.00    -0.173 C  
HETATM   34  H   UNL     1     -10.786   9.203  70.788  1.00  0.00     0.000 HD 
HETATM   35  C   UNL     1      -8.746   7.917  69.948  1.00  0.00    -0.140 C  
HETATM   36  O   UNL     1     -10.080   9.798  70.568  1.00  0.00    -0.270 OA 
HETATM   37  O   UNL     1      -9.828   6.985  70.126  1.00  0.00    -0.175 OA 
HETATM   38  H   UNL     1     -10.483   7.317  70.729  1.00  0.00     0.000 HD 
BRANCH  31  39
HETATM   39  N   UNL     1      -8.587  11.532  68.543  1.00  0.00    -0.190 NA 
HETATM   40  H   UNL     1      -7.967  12.339  68.469  1.00  0.00     0.000 HD 
BRANCH  39  41
HETATM   41  C   UNL     1     -10.002  11.577  68.070  1.00  0.00    -0.189 C  
HETATM   42  C   UNL     1     -11.212  13.798  67.945  1.00  0.00    -0.299 C  
HETATM   43  C   UNL     1     -10.692  12.782  68.635  1.00  0.00    -0.273 C  
HETATM   44  C   UNL     1     -11.250  13.786  66.441  1.00  0.00    -0.316 C  
HETATM   45  H   UNL     1      -8.613  11.778  65.084  1.00  0.00     0.000 HD 
HETATM   46  O   UNL     1      -8.634  11.814  66.033  1.00  0.00    -0.084 OA 
HETATM   47  C   UNL     1     -10.972  12.417  65.770  1.00  0.00    -0.298 C  
HETATM   48  O   UNL     1     -10.331  14.771  65.976  1.00  0.00    -0.279 OA 
HETATM   49  H   UNL     1     -12.031  10.855  65.186  1.00  0.00     0.000 HD 
HETATM   50  O   UNL     1     -12.202  11.695  65.598  1.00  0.00    -0.134 OA 
HETATM   51  C   UNL     1      -9.968  11.518  66.506  1.00  0.00    -0.210 C  
HETATM   52  H   UNL     1     -10.355  14.764  65.026  1.00  0.00     0.000 HD 
BRANCH  42  53
HETATM   53  C   UNL     1     -11.782  15.038  68.599  1.00  0.00    -0.337 C  
HETATM   54  O   UNL     1     -12.139  14.815  69.959  1.00  0.00    -0.293 OA 
HETATM   55  H   UNL     1     -12.497  15.593  70.369  1.00  0.00     0.000 HD 
ENDBRANCH  42  53
ENDBRANCH  39  41
ENDBRANCH  31  39
ENDBRANCH  27  28
ENDBRANCH  23  27
ENDBRANCH  13  14
ENDBRANCH   4  13
ENDBRANCH   1   4
BRANCH   1  56
HETATM   56  C   UNL     1     -10.606   3.633  73.431  1.00  0.00    -0.193 C  
HETATM   57  O   UNL     1     -10.832   2.421  72.707  1.00  0.00    -0.127 OA 
HETATM   58  H   UNL     1     -11.737   2.156  72.825  1.00  0.00     0.000 HD 
ENDBRANCH   1  56
TORSDOF 12
ENDMDL
MODEL      245
REMARK 921   NORMALIZED FREE ENERGY PREDICTED BY IDOCK:   -0.65 KCAL/MOL
REMARK 922        TOTAL FREE ENERGY PREDICTED BY IDOCK:   -4.30 KCAL/MOL
REMARK 923 INTER-LIGAND FREE ENERGY PREDICTED BY IDOCK:   -6.30 KCAL/MOL
REMARK 924 INTRA-LIGAND FREE ENERGY PREDICTED BY IDOCK:    2.00 KCAL/MOL
REMARK 927      BINDING AFFINITY PREDICTED BY RF-SCORE:    0.00 PKD
ROOT
HETATM    1  C   UNL     1      -7.408  15.178  67.580  1.00  0.00    -0.183 C  
HETATM    2  H   UNL     1      -8.211  13.644  68.452  1.00  0.00     0.000 HD 
HETATM    3  O   UNL     1      -7.362  14.070  68.488  1.00  0.00    -0.101 OA 
ENDROOT
BRANCH   1   4
HETATM    4  C   UNL     1      -8.599  16.142  67.865  1.00  0.00    -0.168 C  
BRANCH   4   5
HETATM    5  C   UNL     1      -8.147  17.471  68.547  1.00  0.00    -0.275 C  
HETATM    6  O   UNL     1      -8.791  17.657  69.817  1.00  0.00     0.791 OA 
HETATM    7  H   UNL     1      -8.515  18.465  70.232  1.00  0.00     0.000 HD 
BRANCH   5   8
HETATM    8  C   UNL     1      -8.406  18.738  67.722  1.00  0.00    -0.271 C  
HETATM    9  C   UNL     1      -9.233  18.434  66.493  1.00  0.00    -0.296 C  
HETATM   10  O   UNL     1      -7.133  19.253  67.300  1.00  0.00    -0.204 OA 
HETATM   11  O   UNL     1     -10.461  18.483  66.490  1.00  0.00    -0.389 OA 
HETATM   12  H   UNL     1      -7.293  20.037  66.789  1.00  0.00     0.000 HD 
ENDBRANCH   5   8
ENDBRANCH   4   5
BRANCH   4  13
HETATM   13  O   UNL     1      -9.640  15.524  68.660  1.00  0.00    -0.190 OA 
BRANCH  13  14
HETATM   14  C   UNL     1     -10.931  15.471  68.031  1.00  0.00    -0.311 C  
HETATM   15  H   UNL     1     -12.599  12.650  70.313  1.00  0.00     0.000 HD 
HETATM   16  O   UNL     1     -12.089  15.038  70.190  1.00  0.00    -0.292 OA 
HETATM   17  C   UNL     1     -11.885  14.580  68.844  1.00  0.00    -0.324 C  
HETATM   18  O   UNL     1     -10.897  14.973  66.701  1.00  0.00    -0.308 OA 
HETATM   19  O   UNL     1     -12.366  12.307  69.458  1.00  0.00    -0.125 OA 
HETATM   20  C   UNL     1     -10.345  13.658  66.584  1.00  0.00    -0.275 C  
HETATM   21  H   UNL     1     -12.678  14.487  70.692  1.00  0.00     0.000 HD 
HETATM   22  C   UNL     1     -11.346  13.157  68.894  1.00  0.00    -0.289 C  
HETATM   23  C   UNL     1     -10.968  12.601  67.512  1.00  0.00    -0.246 C  
BRANCH  20  24
HETATM   24  C   UNL     1     -10.436  13.254  65.094  1.00  0.00    -0.333 C  
HETATM   25  O   UNL     1      -9.167  13.038  64.473  1.00  0.00     0.117 OA 
HETATM   26  H   UNL     1      -9.224  12.790  63.558  1.00  0.00     0.000 HD 
ENDBRANCH  20  24
BRANCH  23  27
HETATM   27  O   UNL     1      -9.980  11.540  67.634  1.00  0.00    -0.180 OA 
BRANCH  27  28
HETATM   28  C   UNL     1      -8.994  11.557  66.594  1.00  0.00    -0.185 C  
HETATM   29  O   UNL     1      -7.686  11.590  67.145  1.00  0.00    -0.143 OA 
HETATM   30  C   UNL     1      -7.411  10.447  67.959  1.00  0.00    -0.085 C  
HETATM   31  C   UNL     1      -7.409   9.173  67.076  1.00  0.00    -0.090 C  
HETATM   32  C   UNL     1      -6.090  10.748  68.662  1.00  0.00    -0.039 C  
HETATM   33  C   UNL     1      -8.787   9.043  66.371  1.00  0.00    -0.146 C  
HETATM   34  H   UNL     1      -9.592   7.935  64.937  1.00  0.00     0.000 HD 
HETATM   35  C   UNL     1      -9.169  10.346  65.664  1.00  0.00    -0.182 C  
HETATM   36  O   UNL     1      -8.749   8.014  65.367  1.00  0.00    -0.147 OA 
HETATM   37  O   UNL     1     -10.511  10.255  65.154  1.00  0.00    -0.222 OA 
HETATM   38  H   UNL     1     -10.620   9.507  64.580  1.00  0.00     0.000 HD 
BRANCH  31  39
HETATM   39  N   UNL     1      -7.033   7.994  67.896  1.00  0.00    -0.076 NA 
HETATM   40  H   UNL     1      -6.369   8.062  68.667  1.00  0.00     0.000 HD 
BRANCH  39  41
HETATM   41  C   UNL     1      -7.684   6.704  67.525  1.00  0.00    -0.110 C  
HETATM   42  C   UNL     1      -6.792   4.532  68.472  1.00  0.00    -0.051 C  
HETATM   43  C   UNL     1      -6.700   5.580  67.652  1.00  0.00    -0.055 C  
HETATM   44  C   UNL     1      -8.010   4.309  69.327  1.00  0.00    -0.060 C  
HETATM   45  H   UNL     1      -9.669   7.395  70.067  1.00  0.00     0.000 HD 
HETATM   46  O   UNL     1      -8.893   7.483  69.526  1.00  0.00    -0.137 OA 
HETATM   47  C   UNL     1      -9.258   5.151  68.955  1.00  0.00    -0.117 C  
HETATM   48  O   UNL     1      -7.636   4.532  70.683  1.00  0.00    -0.051 OA 
HETATM   49  H   UNL     1     -10.824   4.962  67.768  1.00  0.00     0.000 HD 
HETATM   50  O   UNL     1     -10.059   4.445  67.995  1.00  0.00    -0.061 OA 
HETATM   51  C   UNL     1      -8.961   6.558  68.417  1.00  0.00    -0.125 C  
HETATM   52  H   UNL     1      -8.406   4.391  71.222  1.00  0.00     0.000 HD 
BRANCH  42  53
HETATM   53  C   UNL     1      -5.692   3.504  68.629  1.00  0.00    -0.022 C  
HETATM   54  O   UNL     1      -5.588   3.026  69.966  1.00  0.00    -0.015 OA 
HETATM   55  H   UNL     1      -4.897   2.380  70.064  1.00  0.00     0.000 HD 
ENDBRANCH  42  53
ENDBRANCH  39  41
ENDBRANCH  31  39
ENDBRANCH  27  28
ENDBRANCH  23  27
ENDBRANCH  13  14
ENDBRANCH   4  13
ENDBRANCH   1   4
BRANCH   1  56
HETATM   56  C   UNL     1      -6.042  15.865  67.640  1.00  0.00    -0.156 C  
HETATM   57  O   UNL     1      -6.030  16.955  66.714  1.00  0.00    -0.174 OA 
HETATM   58  H   UNL     1      -5.182  17.382  66.751  1.00  0.00     0.000 HD 
ENDBRANCH   1  56
TORSDOF 12
ENDMDL
MODEL      246
REMARK 921   NORMALIZED FREE ENERGY PREDICTED BY IDOCK:   -0.63 KCAL/MOL
REMARK 922        TOTAL FREE ENERGY PREDICTED BY IDOCK:   -4.27 KCAL/MOL
REMARK 923 INTER-LIGAND FREE ENERGY PREDICTED BY IDOCK:   -4.71 KCAL/MOL
REMARK 924 INTRA-LIGAND FREE ENERGY PREDICTED BY IDOCK:    0.44 KCAL/MOL
REMARK 927      BINDING AFFINITY PREDICTED BY RF-SCORE:    0.00 PKD
ROOT
HETATM    1  C   UNL     1     -11.462   9.766  68.244  1.00  0.00     0.280 C  
HETATM    2  H   UNL     1     -11.903  10.204  70.080  1.00  0.00     0.000 HD 
HETATM    3  O   UNL     1     -11.779   9.398  69.593  1.00  0.00     0.091 OA 
ENDROOT
BRANCH   1   4
HETATM    4  C   UNL     1     -10.247  10.737  68.153  1.00  0.00    -0.172 C  
BRANCH   4   5
HETATM    5  C   UNL     1     -10.682  12.232  68.035  1.00  0.00    -0.218 C  
HETATM    6  O   UNL     1     -11.733  12.549  68.959  1.00  0.00    -0.285 OA 
HETATM    7  H   UNL     1     -11.998  13.459  68.888  1.00  0.00     0.000 HD 
BRANCH   5   8
HETATM    8  C   UNL     1     -11.166  12.653  66.641  1.00  0.00    -0.300 C  
HETATM    9  C   UNL     1     -10.525  13.951  66.206  1.00  0.00    -0.287 C  
HETATM   10  O   UNL     1     -12.588  12.848  66.714  1.00  0.00    -0.205 OA 
HETATM   11  O   UNL     1      -9.470  13.993  65.575  1.00  0.00    -0.070 OA 
HETATM   12  H   UNL     1     -12.888  13.108  65.851  1.00  0.00     0.000 HD 
ENDBRANCH   5   8
ENDBRANCH   4   5
BRANCH   4  13
HETATM   13  O   UNL     1      -9.350  10.411  67.064  1.00  0.00    -0.152 OA 
BRANCH  13  14
HETATM   14  C   UNL     1      -8.207   9.624  67.438  1.00  0.00    -0.114 C  
HETATM   15  H   UNL     1      -7.555  11.185  71.055  1.00  0.00     0.000 HD 
HETATM   16  O   UNL     1      -8.898   9.552  69.826  1.00  0.00    -0.165 OA 
HETATM   17  C   UNL     1      -7.842   9.879  68.910  1.00  0.00    -0.091 C  
HETATM   18  O   UNL     1      -7.053   9.884  66.651  1.00  0.00    -0.084 OA 
HETATM   19  O   UNL     1      -6.913  11.495  70.427  1.00  0.00     0.156 OA 
HETATM   20  C   UNL     1      -6.622  11.248  66.681  1.00  0.00    -0.135 C  
HETATM   21  H   UNL     1      -8.673   9.710  70.736  1.00  0.00     0.000 HD 
HETATM   22  C   UNL     1      -7.467  11.342  69.104  1.00  0.00    -0.084 C  
HETATM   23  C   UNL     1      -6.430  11.844  68.087  1.00  0.00    -0.052 C  
BRANCH  20  24
HETATM   24  C   UNL     1      -5.336  11.342  65.827  1.00  0.00     0.042 C  
HETATM   25  O   UNL     1      -5.526  10.993  64.454  1.00  0.00    -0.439 OA 
HETATM   26  H   UNL     1      -4.736  11.051  63.930  1.00  0.00     0.000 HD 
ENDBRANCH  20  24
BRANCH  23  27
HETATM   27  O   UNL     1      -6.517  13.288  67.928  1.00  0.00    -0.112 OA 
BRANCH  27  28
HETATM   28  C   UNL     1      -5.265  13.958  68.115  1.00  0.00    -0.113 C  
HETATM   29  O   UNL     1      -5.129  15.030  67.194  1.00  0.00    -0.197 OA 
HETATM   30  C   UNL     1      -6.154  16.014  67.350  1.00  0.00    -0.139 C  
HETATM   31  C   UNL     1      -6.009  16.696  68.734  1.00  0.00    -0.141 C  
HETATM   32  C   UNL     1      -6.016  16.949  66.151  1.00  0.00     0.405 C  
HETATM   33  C   UNL     1      -6.095  15.612  69.843  1.00  0.00    -0.162 C  
HETATM   34  H   UNL     1      -5.785  15.500  71.799  1.00  0.00     0.000 HD 
HETATM   35  C   UNL     1      -5.131  14.457  69.563  1.00  0.00    -0.090 C  
HETATM   36  O   UNL     1      -5.732  16.163  71.121  1.00  0.00     0.136 OA 
HETATM   37  O   UNL     1      -5.339  13.397  70.513  1.00  0.00    -0.111 OA 
HETATM   38  H   UNL     1      -5.256  13.705  71.408  1.00  0.00     0.000 HD 
BRANCH  31  39
HETATM   39  N   UNL     1      -7.011  17.781  68.867  1.00  0.00    -0.246 NA 
HETATM   40  H   UNL     1      -7.050  18.383  69.690  1.00  0.00     0.000 HD 
BRANCH  39  41
HETATM   41  C   UNL     1      -7.960  17.941  67.726  1.00  0.00    -0.230 C  
HETATM   42  C   UNL     1     -10.455  17.913  68.157  1.00  0.00    -0.380 C  
HETATM   43  C   UNL     1      -9.274  17.301  68.060  1.00  0.00    -0.256 C  
HETATM   44  C   UNL     1     -10.612  19.372  67.822  1.00  0.00    -0.422 C  
HETATM   45  H   UNL     1      -7.549  21.161  68.311  1.00  0.00     0.000 HD 
HETATM   46  O   UNL     1      -7.500  20.233  68.507  1.00  0.00    -0.182 OA 
HETATM   47  C   UNL     1      -9.432  20.018  67.052  1.00  0.00    -0.395 C  
HETATM   48  O   UNL     1     -10.864  20.072  69.037  1.00  0.00    -0.282 OA 
HETATM   49  H   UNL     1      -8.914  20.281  65.164  1.00  0.00     0.000 HD 
HETATM   50  O   UNL     1      -9.637  19.885  65.636  1.00  0.00    -0.333 OA 
HETATM   51  C   UNL     1      -8.041  19.470  67.404  1.00  0.00    -0.280 C  
HETATM   52  H   UNL     1     -10.963  20.993  68.825  1.00  0.00     0.000 HD 
BRANCH  42  53
HETATM   53  C   UNL     1     -11.714  17.215  68.622  1.00  0.00     0.998 C  
HETATM   54  O   UNL     1     -11.699  15.823  68.325  1.00  0.00    -0.345 OA 
HETATM   55  H   UNL     1     -12.491  15.384  68.617  1.00  0.00     0.000 HD 
ENDBRANCH  42  53
ENDBRANCH  39  41
ENDBRANCH  31  39
ENDBRANCH  27  28
ENDBRANCH  23  27
ENDBRANCH  13  14
ENDBRANCH   4  13
ENDBRANCH   1   4
BRANCH   1  56
HETATM   56  C   UNL     1     -11.262   8.466  67.460  1.00  0.00     0.722 C  
HETATM   57  O   UNL     1     -10.549   7.536  68.278  1.00  0.00    -0.271 OA 
HETATM   58  H   UNL     1     -10.425   6.729  67.792  1.00  0.00     0.000 HD 
ENDBRANCH   1  56
TORSDOF 12
ENDMDL
MODEL      247
REMARK 921   NORMALIZED FREE ENERGY PREDICTED BY IDOCK:   -0.13 KCAL/MOL
REMARK 922        TOTAL FREE ENERGY PREDICTED BY IDOCK:   -3.42 KCAL/MOL
REMARK 923 INTER-LIGAND FREE ENERGY PREDICTED BY IDOCK:   -4.60 KCAL/MOL
REMARK 924 INTRA-LIGAND FREE ENERGY PREDICTED BY IDOCK:    1.18 KCAL/MOL
REMARK 927      BINDING AFFINITY PREDICTED BY RF-SCORE:    0.00 PKD
ROOT
HETATM    1  C   UNL     1      -8.520  14.954  69.780  1.00  0.00     0.193 C  
HETATM    2  H   UNL     1      -7.813  14.878  71.584  1.00  0.00     0.000 HD 
HETATM    3  O   UNL     1      -8.632  15.163  71.194  1.00  0.00     2.106 OA 
ENDROOT
BRANCH   1   4
HETATM    4  C   UNL     1      -8.136  13.488  69.416  1.00  0.00     0.713 C  
BRANCH   4   5
HETATM    5  C   UNL     1      -6.612  13.321  69.121  1.00  0.00    -0.105 C  
HETATM    6  O   UNL     1      -5.809  13.884  70.169  1.00  0.00    -0.122 OA 
HETATM    7  H   UNL     1      -4.881  13.782  69.990  1.00  0.00     0.000 HD 
BRANCH   5   8
HETATM    8  C   UNL     1      -6.139  13.951  67.804  1.00  0.00    -0.129 C  
HETATM    9  C   UNL     1      -6.262  15.458  67.842  1.00  0.00    -0.150 C  
HETATM   10  O   UNL     1      -6.981  13.450  66.753  1.00  0.00    -0.268 OA 
HETATM   11  O   UNL     1      -5.352  16.190  68.226  1.00  0.00    -0.095 OA 
HETATM   12  H   UNL     1      -6.688  13.840  65.938  1.00  0.00     0.000 HD 
ENDBRANCH   5   8
ENDBRANCH   4   5
BRANCH   4  13
HETATM   13  O   UNL     1      -8.901  12.971  68.300  1.00  0.00    -0.189 OA 
BRANCH  13  14
HETATM   14  C   UNL     1     -10.317  13.200  68.379  1.00  0.00    -0.253 C  
HETATM   15  H   UNL     1     -11.531   9.402  68.601  1.00  0.00     0.000 HD 
HETATM   16  O   UNL     1     -10.655  11.271  69.913  1.00  0.00    -0.436 OA 
HETATM   17  C   UNL     1     -11.055  11.884  68.677  1.00  0.00    -0.246 C  
HETATM   18  O   UNL     1     -10.874  13.753  67.195  1.00  0.00    -0.279 OA 
HETATM   19  O   UNL     1     -11.700   9.767  67.740  1.00  0.00     0.313 OA 
HETATM   20  C   UNL     1     -10.666  12.955  66.025  1.00  0.00    -0.277 C  
HETATM   21  H   UNL     1     -11.110  10.457  70.097  1.00  0.00     0.000 HD 
HETATM   22  C   UNL     1     -10.819  10.892  67.546  1.00  0.00    -0.272 C  
HETATM   23  C   UNL     1     -11.092  11.481  66.154  1.00  0.00    -0.244 C  
BRANCH  20  24
HETATM   24  C   UNL     1     -11.377  13.668  64.852  1.00  0.00    -0.344 C  
HETATM   25  O   UNL     1     -12.764  13.922  65.082  1.00  0.00    -0.620 OA 
HETATM   26  H   UNL     1     -13.201  14.360  64.361  1.00  0.00     0.000 HD 
ENDBRANCH  20  24
BRANCH  23  27
HETATM   27  O   UNL     1     -10.352  10.758  65.131  1.00  0.00    -0.291 OA 
BRANCH  27  28
HETATM   28  C   UNL     1      -8.952  10.643  65.415  1.00  0.00    -0.189 C  
HETATM   29  O   UNL     1      -8.726   9.679  66.432  1.00  0.00    -0.131 OA 
HETATM   30  C   UNL     1      -9.181   8.377  66.058  1.00  0.00    -0.187 C  
HETATM   31  C   UNL     1      -8.340   7.859  64.864  1.00  0.00    -0.079 C  
HETATM   32  C   UNL     1      -9.097   7.528  67.324  1.00  0.00    -0.137 C  
HETATM   33  C   UNL     1      -8.467   8.860  63.683  1.00  0.00    -0.138 C  
HETATM   34  H   UNL     1      -7.600   9.157  61.924  1.00  0.00     0.000 HD 
HETATM   35  C   UNL     1      -8.170  10.291  64.140  1.00  0.00    -0.152 C  
HETATM   36  O   UNL     1      -7.522   8.544  62.646  1.00  0.00    -0.095 OA 
HETATM   37  O   UNL     1      -8.445  11.216  63.073  1.00  0.00    -0.409 OA 
HETATM   38  H   UNL     1      -7.961  10.999  62.285  1.00  0.00     0.000 HD 
BRANCH  31  39
HETATM   39  N   UNL     1      -8.745   6.471  64.528  1.00  0.00    -0.311 NA 
HETATM   40  H   UNL     1      -9.631   6.263  64.067  1.00  0.00     0.000 HD 
BRANCH  39  41
HETATM   41  C   UNL     1      -7.779   5.398  64.904  1.00  0.00    -0.088 C  
HETATM   42  C   UNL     1      -8.567   3.434  66.295  1.00  0.00    -0.119 C  
HETATM   43  C   UNL     1      -8.234   4.718  66.161  1.00  0.00    -0.107 C  
HETATM   44  C   UNL     1      -8.413   2.461  65.157  1.00  0.00    -0.099 C  
HETATM   45  H   UNL     1      -8.631   4.114  61.988  1.00  0.00     0.000 HD 
HETATM   46  O   UNL     1      -8.719   4.688  62.740  1.00  0.00    -0.112 OA 
HETATM   47  C   UNL     1      -7.549   2.948  63.965  1.00  0.00    -0.071 C  
HETATM   48  O   UNL     1      -9.719   2.097  64.718  1.00  0.00    -0.314 OA 
HETATM   49  H   UNL     1      -5.644   2.893  63.447  1.00  0.00     0.000 HD 
HETATM   50  O   UNL     1      -6.173   2.595  64.178  1.00  0.00    -0.017 OA 
HETATM   51  C   UNL     1      -7.635   4.452  63.666  1.00  0.00    -0.066 C  
HETATM   52  H   UNL     1      -9.621   1.483  64.000  1.00  0.00     0.000 HD 
BRANCH  42  53
HETATM   53  C   UNL     1      -9.135   2.854  67.571  1.00  0.00    -0.181 C  
HETATM   54  O   UNL     1      -8.230   1.958  68.207  1.00  0.00    -0.056 OA 
HETATM   55  H   UNL     1      -8.588   1.594  69.009  1.00  0.00     0.000 HD 
ENDBRANCH  42  53
ENDBRANCH  39  41
ENDBRANCH  31  39
ENDBRANCH  27  28
ENDBRANCH  23  27
ENDBRANCH  13  14
ENDBRANCH   4  13
ENDBRANCH   1   4
BRANCH   1  56
HETATM   56  C   UNL     1      -9.838  15.412  69.152  1.00  0.00    -0.247 C  
HETATM   57  O   UNL     1     -10.582  16.152  70.124  1.00  0.00    -0.293 OA 
HETATM   58  H   UNL     1     -11.400  16.437  69.735  1.00  0.00     0.000 HD 
ENDBRANCH   1  56
TORSDOF 12
ENDMDL
MODEL      248
REMARK 921   NORMALIZED FREE ENERGY PREDICTED BY IDOCK:   -0.13 KCAL/MOL
REMARK 922        TOTAL FREE ENERGY PREDICTED BY IDOCK:   -3.41 KCAL/MOL
REMARK 923 INTER-LIGAND FREE ENERGY PREDICTED BY IDOCK:   -6.37 KCAL/MOL
REMARK 924 INTRA-LIGAND FREE ENERGY PREDICTED BY IDOCK:    2.97 KCAL/MOL
REMARK 927      BINDING AFFINITY PREDICTED BY RF-SCORE:    0.00 PKD
ROOT
HETATM    1  C   UNL     1     -10.678  17.121  66.524  1.00  0.00    -0.074 C  
HETATM    2  H   UNL     1      -9.614  15.950  65.404  1.00  0.00     0.000 HD 
HETATM    3  O   UNL     1      -9.759  16.889  65.449  1.00  0.00    -0.506 OA 
ENDROOT
BRANCH   1   4
HETATM    4  C   UNL     1     -10.200  16.502  67.871  1.00  0.00    -0.273 C  
BRANCH   4   5
HETATM    5  C   UNL     1      -9.460  17.535  68.778  1.00  0.00    -0.249 C  
HETATM    6  O   UNL     1     -10.234  18.732  68.951  1.00  0.00    -0.454 OA 
HETATM    7  H   UNL     1      -9.783  19.361  69.502  1.00  0.00     0.000 HD 
BRANCH   5   8
HETATM    8  C   UNL     1      -8.077  17.963  68.269  1.00  0.00    -0.293 C  
HETATM    9  C   UNL     1      -7.263  18.607  69.369  1.00  0.00    -0.037 C  
HETATM   10  O   UNL     1      -8.276  18.928  67.224  1.00  0.00    -0.265 OA 
HETATM   11  O   UNL     1      -6.516  17.965  70.105  1.00  0.00     0.028 OA 
HETATM   12  H   UNL     1      -7.420  19.192  66.908  1.00  0.00     0.000 HD 
ENDBRANCH   5   8
ENDBRANCH   4   5
BRANCH   4  13
HETATM   13  O   UNL     1      -9.358  15.338  67.684  1.00  0.00    -0.197 OA 
BRANCH  13  14
HETATM   14  C   UNL     1      -9.072  14.600  68.883  1.00  0.00    -0.148 C  
HETATM   15  H   UNL     1      -5.949  12.490  67.563  1.00  0.00     0.000 HD 
HETATM   16  O   UNL     1      -6.620  14.661  68.468  1.00  0.00    -0.086 OA 
HETATM   17  C   UNL     1      -7.756  13.820  68.729  1.00  0.00    -0.080 C  
HETATM   18  O   UNL     1     -10.088  13.673  69.238  1.00  0.00     0.078 OA 
HETATM   19  O   UNL     1      -6.727  11.948  67.627  1.00  0.00    -0.084 OA 
HETATM   20  C   UNL     1     -10.367  12.697  68.230  1.00  0.00    -0.241 C  
HETATM   21  H   UNL     1      -5.807  14.179  68.372  1.00  0.00     0.000 HD 
HETATM   22  C   UNL     1      -7.882  12.812  67.595  1.00  0.00    -0.165 C  
HETATM   23  C   UNL     1      -9.140  11.935  67.698  1.00  0.00    -0.179 C  
BRANCH  20  24
HETATM   24  C   UNL     1     -11.444  11.744  68.798  1.00  0.00    -0.291 C  
HETATM   25  O   UNL     1     -11.207  11.341  70.148  1.00  0.00    -0.467 OA 
HETATM   26  H   UNL     1     -11.870  10.756  70.497  1.00  0.00     0.000 HD 
ENDBRANCH  20  24
BRANCH  23  27
HETATM   27  O   UNL     1      -9.520  11.420  66.391  1.00  0.00    -0.193 OA 
BRANCH  27  28
HETATM   28  C   UNL     1      -9.909  10.041  66.414  1.00  0.00    -0.224 C  
HETATM   29  O   UNL     1      -9.959   9.514  65.096  1.00  0.00    -0.196 OA 
HETATM   30  C   UNL     1      -8.692   9.578  64.437  1.00  0.00    -0.208 C  
HETATM   31  C   UNL     1      -7.684   8.655  65.167  1.00  0.00    -0.101 C  
HETATM   32  C   UNL     1      -8.965   9.213  62.980  1.00  0.00    -0.020 C  
HETATM   33  C   UNL     1      -7.570   9.101  66.650  1.00  0.00    -0.089 C  
HETATM   34  H   UNL     1      -6.762   8.408  68.323  1.00  0.00     0.000 HD 
HETATM   35  C   UNL     1      -8.952   9.225  67.296  1.00  0.00    -0.123 C  
HETATM   36  O   UNL     1      -6.831   8.134  67.416  1.00  0.00    -0.070 OA 
HETATM   37  O   UNL     1      -8.831   9.788  68.615  1.00  0.00    -0.121 OA 
HETATM   38  H   UNL     1      -8.240   9.284  69.160  1.00  0.00     0.000 HD 
BRANCH  31  39
HETATM   39  N   UNL     1      -6.393   8.643  64.435  1.00  0.00    -0.067 NA 
HETATM   40  H   UNL     1      -5.973   9.497  64.067  1.00  0.00     0.000 HD 
BRANCH  39  41
HETATM   41  C   UNL     1      -5.745   7.309  64.270  1.00  0.00    -0.033 C  
HETATM   42  C   UNL     1      -6.812   5.260  65.307  1.00  0.00    -0.060 C  
HETATM   43  C   UNL     1      -6.137   6.406  65.401  1.00  0.00    -0.030 C  
HETATM   44  C   UNL     1      -7.180   4.674  63.971  1.00  0.00    -0.050 C  
HETATM   45  H   UNL     1      -7.486   7.219  61.469  1.00  0.00     0.000 HD 
HETATM   46  O   UNL     1      -7.251   7.539  62.332  1.00  0.00    -0.077 OA 
HETATM   47  C   UNL     1      -6.453   5.283  62.744  1.00  0.00    -0.025 C  
HETATM   48  O   UNL     1      -8.594   4.783  63.824  1.00  0.00    -0.127 OA 
HETATM   49  H   UNL     1      -4.790   4.938  61.737  1.00  0.00     0.000 HD 
HETATM   50  O   UNL     1      -5.235   4.564  62.489  1.00  0.00    -0.008 OA 
HETATM   51  C   UNL     1      -6.133   6.781  62.849  1.00  0.00    -0.039 C  
HETATM   52  H   UNL     1      -8.826   4.413  62.980  1.00  0.00     0.000 HD 
BRANCH  42  53
HETATM   53  C   UNL     1      -7.276   4.471  66.511  1.00  0.00    -0.080 C  
HETATM   54  O   UNL     1      -7.293   5.258  67.698  1.00  0.00    -0.074 OA 
HETATM   55  H   UNL     1      -7.584   4.762  68.455  1.00  0.00     0.000 HD 
ENDBRANCH  42  53
ENDBRANCH  39  41
ENDBRANCH  31  39
ENDBRANCH  27  28
ENDBRANCH  23  27
ENDBRANCH  13  14
ENDBRANCH   4  13
ENDBRANCH   1   4
BRANCH   1  56
HETATM   56  C   UNL     1     -10.912  18.632  66.596  1.00  0.00     0.077 C  
HETATM   57  O   UNL     1     -10.481  19.227  65.370  1.00  0.00    -0.451 OA 
HETATM   58  H   UNL     1     -10.626  20.165  65.415  1.00  0.00     0.000 HD 
ENDBRANCH   1  56
TORSDOF 12
ENDMDL
MODEL      249
REMARK 921   NORMALIZED FREE ENERGY PREDICTED BY IDOCK:   -0.04 KCAL/MOL
REMARK 922        TOTAL FREE ENERGY PREDICTED BY IDOCK:   -3.25 KCAL/MOL
REMARK 923 INTER-LIGAND FREE ENERGY PREDICTED BY IDOCK:   -5.98 KCAL/MOL
REMARK 924 INTRA-LIGAND FREE ENERGY PREDICTED BY IDOCK:    2.72 KCAL/MOL
REMARK 927      BINDING AFFINITY PREDICTED BY RF-SCORE:    0.00 PKD
ROOT
HETATM    1  C   UNL     1      -9.895  15.492  67.093  1.00  0.00    -0.235 C  
HETATM    2  H   UNL     1     -11.212  15.104  65.724  1.00  0.00     0.000 HD 
HETATM    3  O   UNL     1     -10.353  15.511  65.735  1.00  0.00    -0.312 OA 
ENDROOT
BRANCH   1   4
HETATM    4  C   UNL     1      -9.912  14.063  67.715  1.00  0.00    -0.236 C  
BRANCH   4   5
HETATM    5  C   UNL     1     -10.813  13.972  68.986  1.00  0.00    -0.243 C  
HETATM    6  O   UNL     1     -11.622  12.786  68.974  1.00  0.00    -0.276 OA 
HETATM    7  H   UNL     1     -12.170  12.730  69.748  1.00  0.00     0.000 HD 
BRANCH   5   8
HETATM    8  C   UNL     1     -11.762  15.161  69.189  1.00  0.00    -0.325 C  
HETATM    9  C   UNL     1     -11.319  16.025  70.349  1.00  0.00    -0.391 C  
HETATM   10  O   UNL     1     -13.065  14.634  69.483  1.00  0.00    -0.261 OA 
HETATM   11  O   UNL     1     -10.557  16.980  70.213  1.00  0.00     0.047 OA 
HETATM   12  H   UNL     1     -13.653  15.370  69.608  1.00  0.00     0.000 HD 
ENDBRANCH   5   8
ENDBRANCH   4   5
BRANCH   4  13
HETATM   13  O   UNL     1      -8.585  13.576  68.031  1.00  0.00    -0.158 OA 
BRANCH  13  14
HETATM   14  C   UNL     1      -8.542  12.546  69.033  1.00  0.00     0.480 C  
HETATM   15  H   UNL     1      -4.678  11.580  68.741  1.00  0.00     0.000 HD 
HETATM   16  O   UNL     1      -6.241  13.175  69.739  1.00  0.00    -0.125 OA 
HETATM   17  C   UNL     1      -7.090  12.108  69.286  1.00  0.00     0.041 C  
HETATM   18  O   UNL     1      -9.293  11.389  68.695  1.00  0.00    -0.185 OA 
HETATM   19  O   UNL     1      -5.229  10.919  68.339  1.00  0.00    -0.041 OA 
HETATM   20  C   UNL     1      -8.889  10.767  67.471  1.00  0.00    -0.128 C  
HETATM   21  H   UNL     1      -5.343  12.904  69.895  1.00  0.00     0.000 HD 
HETATM   22  C   UNL     1      -6.496  11.525  68.011  1.00  0.00    -0.054 C  
HETATM   23  C   UNL     1      -7.386  10.455  67.360  1.00  0.00    -0.093 C  
BRANCH  20  24
HETATM   24  C   UNL     1      -9.763   9.506  67.286  1.00  0.00    -0.167 C  
HETATM   25  O   UNL     1     -10.428   9.440  66.023  1.00  0.00    -0.134 OA 
HETATM   26  H   UNL     1     -10.965   8.664  65.910  1.00  0.00     0.000 HD 
ENDBRANCH  20  24
BRANCH  23  27
HETATM   27  O   UNL     1      -7.102  10.340  65.938  1.00  0.00    -0.117 OA 
BRANCH  27  28
HETATM   28  C   UNL     1      -6.276   9.216  65.610  1.00  0.00    -0.056 C  
HETATM   29  O   UNL     1      -5.706   8.656  66.783  1.00  0.00    -0.045 OA 
HETATM   30  C   UNL     1      -6.699   8.189  67.700  1.00  0.00    -0.062 C  
HETATM   31  C   UNL     1      -7.474   7.007  67.064  1.00  0.00    -0.094 C  
HETATM   32  C   UNL     1      -5.949   7.852  68.987  1.00  0.00    -0.038 C  
HETATM   33  C   UNL     1      -8.116   7.481  65.732  1.00  0.00    -0.127 C  
HETATM   34  H   UNL     1      -9.035   6.654  64.181  1.00  0.00     0.000 HD 
HETATM   35  C   UNL     1      -7.082   8.163  64.833  1.00  0.00    -0.079 C  
HETATM   36  O   UNL     1      -8.643   6.363  64.996  1.00  0.00    -0.087 OA 
HETATM   37  O   UNL     1      -7.728   8.731  63.680  1.00  0.00    -0.119 OA 
HETATM   38  H   UNL     1      -8.226   8.080  63.199  1.00  0.00     0.000 HD 
BRANCH  31  39
HETATM   39  N   UNL     1      -8.444   6.457  68.043  1.00  0.00    -0.118 NA 
HETATM   40  H   UNL     1      -9.242   5.891  67.754  1.00  0.00     0.000 HD 
BRANCH  39  41
HETATM   41  C   UNL     1      -8.183   6.780  69.477  1.00  0.00    -0.131 C  
HETATM   42  C   UNL     1     -10.063   7.659  70.926  1.00  0.00    -0.194 C  
HETATM   43  C   UNL     1      -9.161   7.809  69.955  1.00  0.00    -0.150 C  
HETATM   44  C   UNL     1     -10.123   6.404  71.753  1.00  0.00    -0.185 C  
HETATM   45  H   UNL     1      -8.860   3.585  69.941  1.00  0.00     0.000 HD 
HETATM   46  O   UNL     1      -8.840   4.405  69.461  1.00  0.00    -0.083 OA 
HETATM   47  C   UNL     1      -8.893   5.466  71.645  1.00  0.00    -0.135 C  
HETATM   48  O   UNL     1     -11.318   5.711  71.405  1.00  0.00    -0.173 OA 
HETATM   49  H   UNL     1      -7.161   5.246  72.568  1.00  0.00     0.000 HD 
HETATM   50  O   UNL     1      -7.915   5.821  72.635  1.00  0.00    -0.101 OA 
HETATM   51  C   UNL     1      -8.216   5.430  70.267  1.00  0.00    -0.101 C  
HETATM   52  H   UNL     1     -11.356   4.918  71.928  1.00  0.00     0.000 HD 
BRANCH  42  53
HETATM   53  C   UNL     1     -11.099   8.709  71.264  1.00  0.00    -0.272 C  
HETATM   54  O   UNL     1     -10.815   9.963  70.653  1.00  0.00    -0.301 OA 
HETATM   55  H   UNL     1     -11.465  10.623  70.866  1.00  0.00     0.000 HD 
ENDBRANCH  42  53
ENDBRANCH  39  41
ENDBRANCH  31  39
ENDBRANCH  27  28
ENDBRANCH  23  27
ENDBRANCH  13  14
ENDBRANCH   4  13
ENDBRANCH   1   4
BRANCH   1  56
HETATM   56  C   UNL     1      -8.512  16.147  67.110  1.00  0.00    -0.191 C  
HETATM   57  O   UNL     1      -8.616  17.435  67.721  1.00  0.00    -0.221 OA 
HETATM   58  H   UNL     1      -7.758  17.842  67.732  1.00  0.00     0.000 HD 
ENDBRANCH   1  56
TORSDOF 12
ENDMDL
MODEL      250
REMARK 921   NORMALIZED FREE ENERGY PREDICTED BY IDOCK:    0.04 KCAL/MOL
REMARK 922        TOTAL FREE ENERGY PREDICTED BY IDOCK:   -3.13 KCAL/MOL
REMARK 923 INTER-LIGAND FREE ENERGY PREDICTED BY IDOCK:   -6.10 KCAL/MOL
REMARK 924 INTRA-LIGAND FREE ENERGY PREDICTED BY IDOCK:    2.97 KCAL/MOL
REMARK 927      BINDING AFFINITY PREDICTED BY RF-SCORE:    0.00 PKD
ROOT
HETATM    1  C   UNL     1      -8.711  10.211  63.923  1.00  0.00    -0.210 C  
HETATM    2  H   UNL     1     -10.089   9.330  62.883  1.00  0.00     0.000 HD 
HETATM    3  O   UNL     1      -9.169   9.166  63.057  1.00  0.00    -0.007 OA 
ENDROOT
BRANCH   1   4
HETATM    4  C   UNL     1      -9.572  10.345  65.215  1.00  0.00    -0.259 C  
BRANCH   4   5
HETATM    5  C   UNL     1      -9.998  11.818  65.504  1.00  0.00    -0.242 C  
HETATM    6  O   UNL     1      -8.949  12.552  66.154  1.00  0.00    -0.415 OA 
HETATM    7  H   UNL     1      -9.208  13.449  66.330  1.00  0.00     0.000 HD 
BRANCH   5   8
HETATM    8  C   UNL     1     -11.254  11.966  66.372  1.00  0.00    -0.331 C  
HETATM    9  C   UNL     1     -12.230  12.949  65.763  1.00  0.00    -0.439 C  
HETATM   10  O   UNL     1     -10.843  12.466  67.654  1.00  0.00    -0.214 OA 
HETATM   11  O   UNL     1     -13.116  12.609  64.982  1.00  0.00    -0.808 OA 
HETATM   12  H   UNL     1     -11.621  12.558  68.192  1.00  0.00     0.000 HD 
ENDBRANCH   5   8
ENDBRANCH   4   5
BRANCH   4  13
HETATM   13  O   UNL     1      -8.914   9.798  66.384  1.00  0.00    -0.146 OA 
BRANCH  13  14
HETATM   14  C   UNL     1      -9.015   8.370  66.522  1.00  0.00    -0.157 C  
HETATM   15  H   UNL     1     -11.923   8.232  69.255  1.00  0.00     0.000 HD 
HETATM   16  O   UNL     1     -11.478   8.466  66.862  1.00  0.00     0.528 OA 
HETATM   17  C   UNL     1     -10.226   8.003  67.395  1.00  0.00    -0.261 C  
HETATM   18  O   UNL     1      -7.864   7.770  67.099  1.00  0.00    -0.109 OA 
HETATM   19  O   UNL     1     -11.079   8.031  69.642  1.00  0.00    -0.158 OA 
HETATM   20  C   UNL     1      -7.534   8.272  68.398  1.00  0.00    -0.096 C  
HETATM   21  H   UNL     1     -12.226   8.239  67.402  1.00  0.00     0.000 HD 
HETATM   22  C   UNL     1     -10.052   8.582  68.792  1.00  0.00    -0.196 C  
HETATM   23  C   UNL     1      -8.686   8.258  69.418  1.00  0.00    -0.142 C  
BRANCH  20  24
HETATM   24  C   UNL     1      -6.304   7.478  68.896  1.00  0.00    -0.039 C  
HETATM   25  O   UNL     1      -5.582   6.814  67.857  1.00  0.00    -0.014 OA 
HETATM   26  H   UNL     1      -4.826   6.327  68.164  1.00  0.00     0.000 HD 
ENDBRANCH  20  24
BRANCH  23  27
HETATM   27  O   UNL     1      -8.336   9.240  70.434  1.00  0.00    -0.161 OA 
BRANCH  27  28
HETATM   28  C   UNL     1      -8.542   8.772  71.772  1.00  0.00    -0.128 C  
HETATM   29  O   UNL     1      -9.404   7.644  71.781  1.00  0.00    -0.142 OA 
HETATM   30  C   UNL     1      -8.872   6.547  71.035  1.00  0.00    -0.139 C  
HETATM   31  C   UNL     1      -7.582   6.032  71.723  1.00  0.00    -0.096 C  
HETATM   32  C   UNL     1     -10.003   5.527  70.935  1.00  0.00    -0.260 C  
HETATM   33  C   UNL     1      -6.560   7.197  71.819  1.00  0.00    -0.048 C  
HETATM   34  H   UNL     1      -4.824   7.543  72.714  1.00  0.00     0.000 HD 
HETATM   35  C   UNL     1      -7.198   8.441  72.441  1.00  0.00    -0.083 C  
HETATM   36  O   UNL     1      -5.449   6.830  72.655  1.00  0.00    -0.037 OA 
HETATM   37  O   UNL     1      -6.283   9.550  72.375  1.00  0.00    -0.294 OA 
HETATM   38  H   UNL     1      -5.453   9.346  72.788  1.00  0.00     0.000 HD 
BRANCH  31  39
HETATM   39  N   UNL     1      -7.074   4.835  71.008  1.00  0.00    -0.046 NA 
HETATM   40  H   UNL     1      -6.132   4.474  71.160  1.00  0.00     0.000 HD 
BRANCH  39  41
HETATM   41  C   UNL     1      -8.023   4.192  70.052  1.00  0.00    -0.055 C  
HETATM   42  C   UNL     1      -7.205   3.476  67.765  1.00  0.00    -0.058 C  
HETATM   43  C   UNL     1      -7.560   4.415  68.644  1.00  0.00    -0.063 C  
HETATM   44  C   UNL     1      -7.339   2.012  68.084  1.00  0.00    -0.047 C  
HETATM   45  H   UNL     1      -7.141   1.422  71.611  1.00  0.00     0.000 HD 
HETATM   46  O   UNL     1      -7.065   2.334  71.358  1.00  0.00    -0.031 OA 
HETATM   47  C   UNL     1      -8.208   1.668  69.322  1.00  0.00    -0.044 C  
HETATM   48  O   UNL     1      -6.026   1.476  68.226  1.00  0.00    -0.022 OA 
HETATM   49  H   UNL     1     -10.110   1.283  69.686  1.00  0.00     0.000 HD 
HETATM   50  O   UNL     1      -9.578   1.494  68.927  1.00  0.00    -0.146 OA 
HETATM   51  C   UNL     1      -8.148   2.688  70.468  1.00  0.00    -0.041 C  
HETATM   52  H   UNL     1      -6.111   0.552  68.427  1.00  0.00     0.000 HD 
BRANCH  42  53
HETATM   53  C   UNL     1      -6.630   3.793  66.402  1.00  0.00    -0.041 C  
HETATM   54  O   UNL     1      -6.838   5.151  66.031  1.00  0.00    -0.058 OA 
HETATM   55  H   UNL     1      -6.476   5.350  65.175  1.00  0.00     0.000 HD 
ENDBRANCH  42  53
ENDBRANCH  39  41
ENDBRANCH  31  39
ENDBRANCH  27  28
ENDBRANCH  23  27
ENDBRANCH  13  14
ENDBRANCH   4  13
ENDBRANCH   1   4
BRANCH   1  56
HETATM   56  C   UNL     1      -7.230   9.946  64.204  1.00  0.00    -0.134 C  
HETATM   57  O   UNL     1      -6.463  11.056  63.729  1.00  0.00    -0.208 OA 
HETATM   58  H   UNL     1      -5.543  10.891  63.904  1.00  0.00     0.000 HD 
ENDBRANCH   1  56
TORSDOF 12
ENDMDL
MODEL      251
REMARK 921   NORMALIZED FREE ENERGY PREDICTED BY IDOCK:    0.31 KCAL/MOL
REMARK 922        TOTAL FREE ENERGY PREDICTED BY IDOCK:   -2.67 KCAL/MOL
REMARK 923 INTER-LIGAND FREE ENERGY PREDICTED BY IDOCK:   -7.35 KCAL/MOL
REMARK 924 INTRA-LIGAND FREE ENERGY PREDICTED BY IDOCK:    4.68 KCAL/MOL
REMARK 927      BINDING AFFINITY PREDICTED BY RF-SCORE:    0.00 PKD
ROOT
HETATM    1  C   UNL     1      -8.783  15.321  67.398  1.00  0.00    -0.179 C  
HETATM    2  H   UNL     1      -9.638  15.620  65.684  1.00  0.00     0.000 HD 
HETATM    3  O   UNL     1      -8.778  15.801  66.047  1.00  0.00    -0.313 OA 
ENDROOT
BRANCH   1   4
HETATM    4  C   UNL     1      -9.198  13.824  67.505  1.00  0.00    -0.216 C  
BRANCH   4   5
HETATM    5  C   UNL     1     -10.718  13.642  67.811  1.00  0.00    -0.246 C  
HETATM    6  O   UNL     1     -11.471  13.405  66.611  1.00  0.00    -0.318 OA 
HETATM    7  H   UNL     1     -12.396  13.294  66.797  1.00  0.00     0.000 HD 
BRANCH   5   8
HETATM    8  C   UNL     1     -11.376  14.828  68.527  1.00  0.00    -0.290 C  
HETATM    9  C   UNL     1     -11.338  14.652  70.029  1.00  0.00    -0.242 C  
HETATM   10  O   UNL     1     -12.750  14.884  68.109  1.00  0.00    -0.132 OA 
HETATM   11  O   UNL     1     -10.414  15.069  70.724  1.00  0.00    -0.038 OA 
HETATM   12  H   UNL     1     -13.157  15.619  68.553  1.00  0.00     0.000 HD 
ENDBRANCH   5   8
ENDBRANCH   4   5
BRANCH   4  13
HETATM   13  O   UNL     1      -8.421  13.097  68.488  1.00  0.00    -0.144 OA 
BRANCH  13  14
HETATM   14  C   UNL     1      -8.766  11.709  68.626  1.00  0.00    -0.083 C  
HETATM   15  H   UNL     1      -5.089  10.212  69.053  1.00  0.00     0.000 HD 
HETATM   16  O   UNL     1      -6.925  11.298  70.248  1.00  0.00    -0.470 OA 
HETATM   17  C   UNL     1      -7.525  10.886  69.010  1.00  0.00    -0.124 C  
HETATM   18  O   UNL     1      -9.320  11.139  67.449  1.00  0.00    -0.162 OA 
HETATM   19  O   UNL     1      -5.435  10.029  68.188  1.00  0.00    -0.039 OA 
HETATM   20  C   UNL     1      -8.467  11.223  66.303  1.00  0.00    -0.156 C  
HETATM   21  H   UNL     1      -6.158  10.790  70.485  1.00  0.00     0.000 HD 
HETATM   22  C   UNL     1      -6.478  10.985  67.908  1.00  0.00    -0.062 C  
HETATM   23  C   UNL     1      -7.039  10.690  66.508  1.00  0.00    -0.133 C  
BRANCH  20  24
HETATM   24  C   UNL     1      -9.194  10.512  65.137  1.00  0.00    -0.205 C  
HETATM   25  O   UNL     1     -10.351  11.205  64.667  1.00  0.00    -0.289 OA 
HETATM   26  H   UNL     1     -10.797  10.768  63.951  1.00  0.00     0.000 HD 
ENDBRANCH  20  24
BRANCH  23  27
HETATM   27  O   UNL     1      -6.222  11.318  65.481  1.00  0.00     0.123 OA 
BRANCH  27  28
HETATM   28  C   UNL     1      -5.423  10.387  64.741  1.00  0.00    -0.139 C  
HETATM   29  O   UNL     1      -5.157   9.229  65.517  1.00  0.00    -0.035 OA 
HETATM   30  C   UNL     1      -6.353   8.541  65.893  1.00  0.00    -0.053 C  
HETATM   31  C   UNL     1      -7.050   7.985  64.625  1.00  0.00    -0.076 C  
HETATM   32  C   UNL     1      -5.921   7.486  66.909  1.00  0.00    -0.046 C  
HETATM   33  C   UNL     1      -7.357   9.163  63.660  1.00  0.00    -0.100 C  
HETATM   34  H   UNL     1      -7.974   9.390  61.788  1.00  0.00     0.000 HD 
HETATM   35  C   UNL     1      -6.111  10.017  63.417  1.00  0.00    -0.132 C  
HETATM   36  O   UNL     1      -7.786   8.670  62.378  1.00  0.00    -0.122 OA 
HETATM   37  O   UNL     1      -6.454  11.185  62.650  1.00  0.00    -0.362 OA 
HETATM   38  H   UNL     1      -6.879  10.956  61.832  1.00  0.00     0.000 HD 
BRANCH  31  39
HETATM   39  N   UNL     1      -8.242   7.192  65.014  1.00  0.00    -0.227 NA 
HETATM   40  H   UNL     1      -9.030   7.056  64.381  1.00  0.00     0.000 HD 
BRANCH  39  41
HETATM   41  C   UNL     1      -8.219   6.604  66.385  1.00  0.00    -0.117 C  
HETATM   42  C   UNL     1      -9.916   7.365  68.103  1.00  0.00    -0.190 C  
HETATM   43  C   UNL     1      -8.825   7.565  67.363  1.00  0.00    -0.127 C  
HETATM   44  C   UNL     1     -10.630   6.040  68.105  1.00  0.00    -0.262 C  
HETATM   45  H   UNL     1     -10.127   4.282  65.025  1.00  0.00     0.000 HD 
HETATM   46  O   UNL     1      -9.692   5.126  65.075  1.00  0.00     0.055 OA 
HETATM   47  C   UNL     1      -9.851   4.853  67.483  1.00  0.00    -0.167 C  
HETATM   48  O   UNL     1     -11.882   6.221  67.448  1.00  0.00    -0.252 OA 
HETATM   49  H   UNL     1      -8.591   3.468  68.111  1.00  0.00     0.000 HD 
HETATM   50  O   UNL     1      -9.069   4.196  68.493  1.00  0.00    -0.114 OA 
HETATM   51  C   UNL     1      -8.936   5.216  66.304  1.00  0.00    -0.130 C  
HETATM   52  H   UNL     1     -12.333   5.385  67.449  1.00  0.00     0.000 HD 
BRANCH  42  53
HETATM   53  C   UNL     1     -10.534   8.436  68.976  1.00  0.00    -0.201 C  
HETATM   54  O   UNL     1     -11.353   7.888  70.003  1.00  0.00    -0.436 OA 
HETATM   55  H   UNL     1     -11.741   8.561  70.551  1.00  0.00     0.000 HD 
ENDBRANCH  42  53
ENDBRANCH  39  41
ENDBRANCH  31  39
ENDBRANCH  27  28
ENDBRANCH  23  27
ENDBRANCH  13  14
ENDBRANCH   4  13
ENDBRANCH   1   4
BRANCH   1  56
HETATM   56  C   UNL     1      -7.399  15.613  67.982  1.00  0.00    -0.127 C  
HETATM   57  O   UNL     1      -6.414  15.413  66.965  1.00  0.00    -0.270 OA 
HETATM   58  H   UNL     1      -5.555  15.594  67.327  1.00  0.00     0.000 HD 
ENDBRANCH   1  56
TORSDOF 12
ENDMDL
MODEL      252
REMARK 921   NORMALIZED FREE ENERGY PREDICTED BY IDOCK:    0.46 KCAL/MOL
REMARK 922        TOTAL FREE ENERGY PREDICTED BY IDOCK:   -2.42 KCAL/MOL
REMARK 923 INTER-LIGAND FREE ENERGY PREDICTED BY IDOCK:   -3.45 KCAL/MOL
REMARK 924 INTRA-LIGAND FREE ENERGY PREDICTED BY IDOCK:    1.03 KCAL/MOL
REMARK 927      BINDING AFFINITY PREDICTED BY RF-SCORE:    0.00 PKD
ROOT
HETATM    1  C   UNL     1     -11.309  15.248  68.595  1.00  0.00    -0.317 C  
HETATM    2  H   UNL     1     -11.194  15.571  70.503  1.00  0.00     0.000 HD 
HETATM    3  O   UNL     1     -11.530  14.868  69.960  1.00  0.00    -0.253 OA 
ENDROOT
BRANCH   1   4
HETATM    4  C   UNL     1      -9.820  15.603  68.302  1.00  0.00    -0.209 C  
BRANCH   4   5
HETATM    5  C   UNL     1      -9.643  16.394  66.967  1.00  0.00    -0.237 C  
HETATM    6  O   UNL     1     -10.655  17.401  66.814  1.00  0.00    -0.289 OA 
HETATM    7  H   UNL     1     -10.547  17.882  66.002  1.00  0.00     0.000 HD 
BRANCH   5   8
HETATM    8  C   UNL     1      -9.673  15.530  65.699  1.00  0.00    -0.320 C  
HETATM    9  C   UNL     1     -11.010  15.628  65.000  1.00  0.00    -0.431 C  
HETATM   10  O   UNL     1      -9.462  14.166  66.095  1.00  0.00    -0.408 OA 
HETATM   11  O   UNL     1     -11.247  16.465  64.132  1.00  0.00    -0.882 OA 
HETATM   12  H   UNL     1      -9.480  13.631  65.310  1.00  0.00     0.000 HD 
ENDBRANCH   5   8
ENDBRANCH   4   5
BRANCH   4  13
HETATM   13  O   UNL     1      -8.961  14.437  68.286  1.00  0.00    -0.175 OA 
BRANCH  13  14
HETATM   14  C   UNL     1      -7.618  14.670  68.745  1.00  0.00    -0.138 C  
HETATM   15  H   UNL     1      -5.650  13.470  65.484  1.00  0.00     0.000 HD 
HETATM   16  O   UNL     1      -6.846  15.356  66.482  1.00  0.00    -0.049 OA 
HETATM   17  C   UNL     1      -6.619  14.474  67.593  1.00  0.00    -0.153 C  
HETATM   18  O   UNL     1      -7.225  13.820  69.813  1.00  0.00     0.166 OA 
HETATM   19  O   UNL     1      -5.586  12.826  66.180  1.00  0.00     1.396 OA 
HETATM   20  C   UNL     1      -7.303  12.424  69.507  1.00  0.00     0.455 C  
HETATM   21  H   UNL     1      -6.229  15.234  65.770  1.00  0.00     0.000 HD 
HETATM   22  C   UNL     1      -6.684  13.037  67.091  1.00  0.00     0.166 C  
HETATM   23  C   UNL     1      -6.582  11.995  68.216  1.00  0.00    -0.055 C  
BRANCH  20  24
HETATM   24  C   UNL     1      -6.790  11.654  70.745  1.00  0.00     1.903 C  
HETATM   25  O   UNL     1      -7.482  10.429  70.994  1.00  0.00    -0.093 OA 
HETATM   26  H   UNL     1      -7.166   9.956  71.755  1.00  0.00     0.000 HD 
ENDBRANCH  20  24
BRANCH  23  27
HETATM   27  O   UNL     1      -7.191  10.737  67.813  1.00  0.00    -0.085 OA 
BRANCH  27  28
HETATM   28  C   UNL     1      -8.446  10.902  67.141  1.00  0.00    -0.128 C  
HETATM   29  O   UNL     1      -8.525  10.043  66.013  1.00  0.00    -0.126 OA 
HETATM   30  C   UNL     1      -8.425   8.663  66.373  1.00  0.00    -0.112 C  
HETATM   31  C   UNL     1      -9.652   8.262  67.230  1.00  0.00    -0.166 C  
HETATM   32  C   UNL     1      -8.278   7.902  65.057  1.00  0.00    -0.134 C  
HETATM   33  C   UNL     1      -9.708   9.169  68.489  1.00  0.00    -0.155 C  
HETATM   34  H   UNL     1     -10.987   9.548  69.957  1.00  0.00     0.000 HD 
HETATM   35  C   UNL     1      -9.613  10.649  68.108  1.00  0.00    -0.157 C  
HETATM   36  O   UNL     1     -10.953   8.993  69.187  1.00  0.00    -0.140 OA 
HETATM   37  O   UNL     1      -9.510  11.458  69.292  1.00  0.00    -0.403 OA 
HETATM   38  H   UNL     1     -10.231  11.302  69.890  1.00  0.00     0.000 HD 
BRANCH  31  39
HETATM   39  N   UNL     1      -9.603   6.810  67.530  1.00  0.00    -0.126 NA 
HETATM   40  H   UNL     1     -10.334   6.169  67.220  1.00  0.00     0.000 HD 
BRANCH  39  41
HETATM   41  C   UNL     1      -8.421   6.342  68.312  1.00  0.00    -0.114 C  
HETATM   42  C   UNL     1      -8.485   6.412  70.842  1.00  0.00    -0.131 C  
HETATM   43  C   UNL     1      -8.398   7.010  69.653  1.00  0.00    -0.133 C  
HETATM   44  C   UNL     1      -8.513   4.912  70.965  1.00  0.00    -0.116 C  
HETATM   45  H   UNL     1      -9.856   3.386  68.016  1.00  0.00     0.000 HD 
HETATM   46  O   UNL     1      -9.814   4.335  67.986  1.00  0.00    -0.131 OA 
HETATM   47  C   UNL     1      -8.101   4.124  69.695  1.00  0.00    -0.055 C  
HETATM   48  O   UNL     1      -9.819   4.536  71.390  1.00  0.00    -0.174 OA 
HETATM   49  H   UNL     1      -6.432   3.405  68.921  1.00  0.00     0.000 HD 
HETATM   50  O   UNL     1      -6.684   3.889  69.700  1.00  0.00    -0.033 OA 
HETATM   51  C   UNL     1      -8.490   4.779  68.362  1.00  0.00    -0.094 C  
HETATM   52  H   UNL     1      -9.837   3.589  71.468  1.00  0.00     0.000 HD 
BRANCH  42  53
HETATM   53  C   UNL     1      -8.579   7.171  72.147  1.00  0.00    -0.110 C  
HETATM   54  O   UNL     1      -7.312   7.649  72.586  1.00  0.00    -0.072 OA 
HETATM   55  H   UNL     1      -7.372   8.126  73.406  1.00  0.00     0.000 HD 
ENDBRANCH  42  53
ENDBRANCH  39  41
ENDBRANCH  31  39
ENDBRANCH  27  28
ENDBRANCH  23  27
ENDBRANCH  13  14
ENDBRANCH   4  13
ENDBRANCH   1   4
BRANCH   1  56
HETATM   56  C   UNL     1     -11.849  14.115  67.720  1.00  0.00    -0.379 C  
HETATM   57  O   UNL     1     -11.294  12.877  68.171  1.00  0.00    -0.252 OA 
HETATM   58  H   UNL     1     -11.630  12.173  67.628  1.00  0.00     0.000 HD 
ENDBRANCH   1  56
TORSDOF 12
ENDMDL
MODEL      253
REMARK 921   NORMALIZED FREE ENERGY PREDICTED BY IDOCK:    0.56 KCAL/MOL
REMARK 922        TOTAL FREE ENERGY PREDICTED BY IDOCK:   -2.24 KCAL/MOL
REMARK 923 INTER-LIGAND FREE ENERGY PREDICTED BY IDOCK:   -0.42 KCAL/MOL
REMARK 924 INTRA-LIGAND FREE ENERGY PREDICTED BY IDOCK:   -1.82 KCAL/MOL
REMARK 927      BINDING AFFINITY PREDICTED BY RF-SCORE:    0.00 PKD
ROOT
HETATM    1  C   UNL     1      -8.412  19.794  64.589  1.00  0.00     2.993 C  
HETATM    2  H   UNL     1      -6.485  20.007  64.608  1.00  0.00     0.000 HD 
HETATM    3  O   UNL     1      -7.220  20.558  64.364  1.00  0.00    -0.013 OA 
ENDROOT
BRANCH   1   4
HETATM    4  C   UNL     1      -8.508  19.240  66.041  1.00  0.00    -0.163 C  
BRANCH   4   5
HETATM    5  C   UNL     1      -7.128  19.222  66.770  1.00  0.00    -0.207 C  
HETATM    6  O   UNL     1      -6.680  17.880  67.016  1.00  0.00    -0.167 OA 
HETATM    7  H   UNL     1      -5.840  17.869  67.459  1.00  0.00     0.000 HD 
BRANCH   5   8
HETATM    8  C   UNL     1      -7.101  19.958  68.116  1.00  0.00    -0.291 C  
HETATM    9  C   UNL     1      -6.555  19.074  69.215  1.00  0.00    -0.302 C  
HETATM   10  O   UNL     1      -8.453  20.315  68.446  1.00  0.00    -0.048 OA 
HETATM   11  O   UNL     1      -5.360  19.030  69.501  1.00  0.00    -0.188 OA 
HETATM   12  H   UNL     1      -8.436  20.771  69.279  1.00  0.00     0.000 HD 
ENDBRANCH   5   8
ENDBRANCH   4   5
BRANCH   4  13
HETATM   13  O   UNL     1      -9.098  17.918  66.098  1.00  0.00    -0.462 OA 
BRANCH  13  14
HETATM   14  C   UNL     1     -10.534  17.899  66.146  1.00  0.00    -0.321 C  
HETATM   15  H   UNL     1     -10.994  16.513  69.863  1.00  0.00     0.000 HD 
HETATM   16  O   UNL     1     -10.572  18.533  68.551  1.00  0.00    -0.356 OA 
HETATM   17  C   UNL     1     -11.016  17.581  67.572  1.00  0.00    -0.084 C  
HETATM   18  O   UNL     1     -11.122  16.951  65.266  1.00  0.00    -0.273 OA 
HETATM   19  O   UNL     1     -11.184  15.840  69.220  1.00  0.00    -0.277 OA 
HETATM   20  C   UNL     1     -10.699  15.603  65.494  1.00  0.00    -0.389 C  
HETATM   21  H   UNL     1     -10.869  18.336  69.432  1.00  0.00     0.000 HD 
HETATM   22  C   UNL     1     -10.529  16.199  67.986  1.00  0.00    -0.281 C  
HETATM   23  C   UNL     1     -10.836  15.110  66.945  1.00  0.00    -0.317 C  
BRANCH  20  24
HETATM   24  C   UNL     1     -11.470  14.706  64.498  1.00  0.00    -0.335 C  
HETATM   25  O   UNL     1     -12.584  14.022  65.075  1.00  0.00    -0.565 OA 
HETATM   26  H   UNL     1     -13.058  13.472  64.463  1.00  0.00     0.000 HD 
ENDBRANCH  20  24
BRANCH  23  27
HETATM   27  O   UNL     1      -9.913  13.992  67.079  1.00  0.00    -0.248 OA 
BRANCH  27  28
HETATM   28  C   UNL     1      -9.732  13.562  68.434  1.00  0.00    -0.207 C  
HETATM   29  O   UNL     1     -10.613  12.492  68.741  1.00  0.00    -0.224 OA 
HETATM   30  C   UNL     1     -10.391  11.350  67.911  1.00  0.00    -0.182 C  
HETATM   31  C   UNL     1      -8.984  10.767  68.200  1.00  0.00    -0.140 C  
HETATM   32  C   UNL     1     -11.554  10.401  68.190  1.00  0.00    -0.056 C  
HETATM   33  C   UNL     1      -7.918  11.866  67.943  1.00  0.00    -0.144 C  
HETATM   34  H   UNL     1      -5.977  12.118  68.264  1.00  0.00     0.000 HD 
HETATM   35  C   UNL     1      -8.270  13.160  68.681  1.00  0.00    -0.000 C  
HETATM   36  O   UNL     1      -6.628  11.445  68.422  1.00  0.00    -0.059 OA 
HETATM   37  O   UNL     1      -7.357  14.207  68.305  1.00  0.00    -0.099 OA 
HETATM   38  H   UNL     1      -6.454  13.958  68.458  1.00  0.00     0.000 HD 
BRANCH  31  39
HETATM   39  N   UNL     1      -8.781   9.528  67.409  1.00  0.00    -0.125 NA 
HETATM   40  H   UNL     1      -9.361   9.302  66.601  1.00  0.00     0.000 HD 
BRANCH  39  41
HETATM   41  C   UNL     1      -7.679   8.631  67.867  1.00  0.00    -0.102 C  
HETATM   42  C   UNL     1      -8.229   6.550  69.200  1.00  0.00    -0.116 C  
HETATM   43  C   UNL     1      -8.110   7.874  69.086  1.00  0.00    -0.124 C  
HETATM   44  C   UNL     1      -7.822   5.627  68.083  1.00  0.00    -0.096 C  
HETATM   45  H   UNL     1      -8.067   7.246  64.898  1.00  0.00     0.000 HD 
HETATM   46  O   UNL     1      -8.311   7.790  65.638  1.00  0.00    -0.128 OA 
HETATM   47  C   UNL     1      -6.962   6.265  66.961  1.00  0.00    -0.071 C  
HETATM   48  O   UNL     1      -9.007   5.050  67.544  1.00  0.00    -0.109 OA 
HETATM   49  H   UNL     1      -5.041   6.539  66.597  1.00  0.00     0.000 HD 
HETATM   50  O   UNL     1      -5.567   6.149  67.285  1.00  0.00    -0.008 OA 
HETATM   51  C   UNL     1      -7.278   7.734  66.649  1.00  0.00    -0.087 C  
HETATM   52  H   UNL     1      -8.750   4.467  66.839  1.00  0.00     0.000 HD 
BRANCH  42  53
HETATM   53  C   UNL     1      -8.790   5.871  70.430  1.00  0.00    -0.143 C  
HETATM   54  O   UNL     1     -10.136   6.256  70.692  1.00  0.00    -0.183 OA 
HETATM   55  H   UNL     1     -10.488   5.830  71.465  1.00  0.00     0.000 HD 
ENDBRANCH  42  53
ENDBRANCH  39  41
ENDBRANCH  31  39
ENDBRANCH  27  28
ENDBRANCH  23  27
ENDBRANCH  13  14
ENDBRANCH   4  13
ENDBRANCH   1   4
BRANCH   1  56
HETATM   56  C   UNL     1      -9.595  20.683  64.196  1.00  0.00     4.221 C  
HETATM   57  O   UNL     1     -10.406  20.911  65.351  1.00  0.00     0.060 OA 
HETATM   58  H   UNL     1     -11.141  21.463  65.108  1.00  0.00     0.000 HD 
ENDBRANCH   1  56
TORSDOF 12
ENDMDL
MODEL      254
REMARK 921   NORMALIZED FREE ENERGY PREDICTED BY IDOCK:    0.84 KCAL/MOL
REMARK 922        TOTAL FREE ENERGY PREDICTED BY IDOCK:   -1.76 KCAL/MOL
REMARK 923 INTER-LIGAND FREE ENERGY PREDICTED BY IDOCK:   -4.36 KCAL/MOL
REMARK 924 INTRA-LIGAND FREE ENERGY PREDICTED BY IDOCK:    2.60 KCAL/MOL
REMARK 927      BINDING AFFINITY PREDICTED BY RF-SCORE:    0.00 PKD
ROOT
HETATM    1  C   UNL     1      -8.268  15.503  67.648  1.00  0.00    -0.154 C  
HETATM    2  H   UNL     1      -8.274  14.298  69.167  1.00  0.00     0.000 HD 
HETATM    3  O   UNL     1      -7.713  14.422  68.410  1.00  0.00    -0.116 OA 
ENDROOT
BRANCH   1   4
HETATM    4  C   UNL     1      -8.465  16.797  68.493  1.00  0.00    -0.244 C  
BRANCH   4   5
HETATM    5  C   UNL     1      -7.115  17.398  68.995  1.00  0.00    -0.233 C  
HETATM    6  O   UNL     1      -6.996  17.305  70.422  1.00  0.00     1.060 OA 
HETATM    7  H   UNL     1      -6.174  17.671  70.728  1.00  0.00     0.000 HD 
BRANCH   5   8
HETATM    8  C   UNL     1      -6.887  18.869  68.620  1.00  0.00    -0.276 C  
HETATM    9  C   UNL     1      -6.906  19.756  69.845  1.00  0.00    -0.168 C  
HETATM   10  O   UNL     1      -7.957  19.269  67.750  1.00  0.00    -0.266 OA 
HETATM   11  O   UNL     1      -5.892  20.024  70.487  1.00  0.00    -0.292 OA 
HETATM   12  H   UNL     1      -7.815  20.179  67.517  1.00  0.00     0.000 HD 
ENDBRANCH   5   8
ENDBRANCH   4   5
BRANCH   4  13
HETATM   13  O   UNL     1      -9.351  16.599  69.621  1.00  0.00     0.033 OA 
BRANCH  13  14
HETATM   14  C   UNL     1     -10.693  17.078  69.428  1.00  0.00    -0.184 C  
HETATM   15  H   UNL     1     -12.641  13.624  69.900  1.00  0.00     0.000 HD 
HETATM   16  O   UNL     1     -11.619  15.490  71.105  1.00  0.00    -0.323 OA 
HETATM   17  C   UNL     1     -11.707  15.969  69.754  1.00  0.00    -0.265 C  
HETATM   18  O   UNL     1     -10.952  17.532  68.108  1.00  0.00    -0.316 OA 
HETATM   19  O   UNL     1     -12.609  13.877  68.985  1.00  0.00    -0.054 OA 
HETATM   20  C   UNL     1     -10.736  16.542  67.097  1.00  0.00    -0.220 C  
HETATM   21  H   UNL     1     -12.245  14.804  71.306  1.00  0.00     0.000 HD 
HETATM   22  C   UNL     1     -11.506  14.791  68.809  1.00  0.00    -0.301 C  
HETATM   23  C   UNL     1     -11.454  15.201  67.329  1.00  0.00    -0.279 C  
BRANCH  20  24
HETATM   24  C   UNL     1     -11.116  17.181  65.741  1.00  0.00     0.306 C  
HETATM   25  O   UNL     1     -10.368  16.677  64.633  1.00  0.00    -0.248 OA 
HETATM   26  H   UNL     1     -10.602  17.070  63.800  1.00  0.00     0.000 HD 
ENDBRANCH  20  24
BRANCH  23  27
HETATM   27  O   UNL     1     -10.727  14.214  66.544  1.00  0.00    -0.285 OA 
BRANCH  27  28
HETATM   28  C   UNL     1     -10.941  14.340  65.133  1.00  0.00    -0.363 C  
HETATM   29  O   UNL     1      -9.838  13.812  64.411  1.00  0.00    -0.134 OA 
HETATM   30  C   UNL     1      -9.628  12.424  64.678  1.00  0.00     0.157 C  
HETATM   31  C   UNL     1     -10.837  11.608  64.153  1.00  0.00    -0.372 C  
HETATM   32  C   UNL     1      -8.287  12.077  64.036  1.00  0.00     2.056 C  
HETATM   33  C   UNL     1     -12.132  12.124  64.839  1.00  0.00    -0.272 C  
HETATM   34  H   UNL     1     -14.089  11.878  64.632  1.00  0.00     0.000 HD 
HETATM   35  C   UNL     1     -12.249  13.646  64.722  1.00  0.00    -0.403 C  
HETATM   36  O   UNL     1     -13.298  11.562  64.212  1.00  0.00     0.048 OA 
HETATM   37  O   UNL     1     -13.368  14.115  65.495  1.00  0.00    -0.669 OA 
HETATM   38  H   UNL     1     -14.176  13.687  65.241  1.00  0.00     0.000 HD 
BRANCH  31  39
HETATM   39  N   UNL     1     -10.587  10.159  64.342  1.00  0.00    -0.086 NA 
HETATM   40  H   UNL     1     -11.033   9.452  63.757  1.00  0.00     0.000 HD 
BRANCH  39  41
HETATM   41  C   UNL     1      -9.642   9.794  65.438  1.00  0.00    -0.292 C  
HETATM   42  C   UNL     1     -10.143   7.797  66.912  1.00  0.00    -0.356 C  
HETATM   43  C   UNL     1     -10.372   9.050  66.515  1.00  0.00    -0.263 C  
HETATM   44  C   UNL     1      -8.997   6.996  66.357  1.00  0.00    -0.154 C  
HETATM   45  H   UNL     1      -8.115   8.091  63.062  1.00  0.00     0.000 HD 
HETATM   46  O   UNL     1      -8.834   8.569  63.459  1.00  0.00     0.084 OA 
HETATM   47  C   UNL     1      -7.926   7.802  65.577  1.00  0.00    -0.121 C  
HETATM   48  O   UNL     1      -9.544   5.964  65.541  1.00  0.00    -0.370 OA 
HETATM   49  H   UNL     1      -6.244   8.748  65.997  1.00  0.00     0.000 HD 
HETATM   50  O   UNL     1      -6.900   8.255  66.475  1.00  0.00    -0.065 OA 
HETATM   51  C   UNL     1      -8.459   9.005  64.785  1.00  0.00    -0.180 C  
HETATM   52  H   UNL     1      -8.820   5.458  65.190  1.00  0.00     0.000 HD 
BRANCH  42  53
HETATM   53  C   UNL     1     -11.008   7.077  67.922  1.00  0.00    -0.130 C  
HETATM   54  O   UNL     1     -10.795   5.669  67.909  1.00  0.00    -0.211 OA 
HETATM   55  H   UNL     1     -11.339   5.216  68.543  1.00  0.00     0.000 HD 
ENDBRANCH  42  53
ENDBRANCH  39  41
ENDBRANCH  31  39
ENDBRANCH  27  28
ENDBRANCH  23  27
ENDBRANCH  13  14
ENDBRANCH   4  13
ENDBRANCH   1   4
BRANCH   1  56
HETATM   56  C   UNL     1      -7.365  15.702  66.429  1.00  0.00     0.819 C  
HETATM   57  O   UNL     1      -7.140  17.102  66.244  1.00  0.00    -0.256 OA 
HETATM   58  H   UNL     1      -6.579  17.227  65.487  1.00  0.00     0.000 HD 
ENDBRANCH   1  56
TORSDOF 12
ENDMDL
MODEL      255
REMARK 921   NORMALIZED FREE ENERGY PREDICTED BY IDOCK:    0.87 KCAL/MOL
REMARK 922        TOTAL FREE ENERGY PREDICTED BY IDOCK:   -1.71 KCAL/MOL
REMARK 923 INTER-LIGAND FREE ENERGY PREDICTED BY IDOCK:   -4.58 KCAL/MOL
REMARK 924 INTRA-LIGAND FREE ENERGY PREDICTED BY IDOCK:    2.87 KCAL/MOL
REMARK 927      BINDING AFFINITY PREDICTED BY RF-SCORE:    0.00 PKD
ROOT
HETATM    1  C   UNL     1      -8.831   8.902  68.874  1.00  0.00    -0.137 C  
HETATM    2  H   UNL     1     -10.389   8.962  70.026  1.00  0.00     0.000 HD 
HETATM    3  O   UNL     1      -9.522   9.349  70.048  1.00  0.00    -0.195 OA 
ENDROOT
BRANCH   1   4
HETATM    4  C   UNL     1      -9.613   9.207  67.562  1.00  0.00    -0.150 C  
BRANCH   4   5
HETATM    5  C   UNL     1      -8.972   8.531  66.309  1.00  0.00    -0.168 C  
HETATM    6  O   UNL     1      -9.529   7.230  66.070  1.00  0.00    -0.386 OA 
HETATM    7  H   UNL     1      -9.139   6.818  65.308  1.00  0.00     0.000 HD 
BRANCH   5   8
HETATM    8  C   UNL     1      -7.448   8.361  66.380  1.00  0.00    -0.083 C  
HETATM    9  C   UNL     1      -6.834   8.342  64.998  1.00  0.00    -0.067 C  
HETATM   10  O   UNL     1      -7.178   7.102  67.017  1.00  0.00    -0.086 OA 
HETATM   11  O   UNL     1      -6.441   9.360  64.431  1.00  0.00    -0.083 OA 
HETATM   12  H   UNL     1      -6.235   6.997  67.060  1.00  0.00     0.000 HD 
ENDBRANCH   5   8
ENDBRANCH   4   5
BRANCH   4  13
HETATM   13  O   UNL     1      -9.762  10.627  67.317  1.00  0.00    -0.164 OA 
BRANCH  13  14
HETATM   14  C   UNL     1      -9.765  11.004  65.930  1.00  0.00    -0.224 C  
HETATM   15  H   UNL     1      -7.192  14.052  66.130  1.00  0.00     0.000 HD 
HETATM   16  O   UNL     1      -7.354  11.617  65.979  1.00  0.00    -0.351 OA 
HETATM   17  C   UNL     1      -8.682  12.064  65.664  1.00  0.00     0.383 C  
HETATM   18  O   UNL     1     -11.007  11.529  65.484  1.00  0.00    -0.284 OA 
HETATM   19  O   UNL     1      -8.084  14.362  66.032  1.00  0.00     1.156 OA 
HETATM   20  C   UNL     1     -11.448  12.681  66.209  1.00  0.00    -0.364 C  
HETATM   21  H   UNL     1      -6.685  12.271  65.814  1.00  0.00     0.000 HD 
HETATM   22  C   UNL     1      -8.975  13.318  66.476  1.00  0.00    -0.054 C  
HETATM   23  C   UNL     1     -10.419  13.820  66.319  1.00  0.00    -0.291 C  
BRANCH  20  24
HETATM   24  C   UNL     1     -12.772  13.150  65.563  1.00  0.00    -0.304 C  
HETATM   25  O   UNL     1     -12.601  13.832  64.319  1.00  0.00    -0.654 OA 
HETATM   26  H   UNL     1     -13.415  14.120  63.922  1.00  0.00     0.000 HD 
ENDBRANCH  20  24
BRANCH  23  27
HETATM   27  O   UNL     1     -10.819  14.615  67.470  1.00  0.00    -0.274 OA 
BRANCH  27  28
HETATM   28  C   UNL     1     -11.454  15.850  67.117  1.00  0.00     0.156 C  
HETATM   29  O   UNL     1     -11.571  16.694  68.252  1.00  0.00    -0.145 OA 
HETATM   30  C   UNL     1     -10.300  17.027  68.816  1.00  0.00    -0.336 C  
HETATM   31  C   UNL     1      -9.493  17.879  67.803  1.00  0.00    -0.263 C  
HETATM   32  C   UNL     1     -10.603  17.717  70.144  1.00  0.00     0.989 C  
HETATM   33  C   UNL     1      -9.332  17.076  66.483  1.00  0.00    -0.269 C  
HETATM   34  H   UNL     1      -8.700  17.423  64.635  1.00  0.00     0.000 HD 
HETATM   35  C   UNL     1     -10.681  16.550  65.988  1.00  0.00    -0.177 C  
HETATM   36  O   UNL     1      -8.798  17.914  65.442  1.00  0.00     0.207 OA 
HETATM   37  O   UNL     1     -10.488  15.683  64.857  1.00  0.00    -0.462 OA 
HETATM   38  H   UNL     1     -10.011  16.116  64.159  1.00  0.00     0.000 HD 
BRANCH  31  39
HETATM   39  N   UNL     1      -8.210  18.306  68.414  1.00  0.00    -0.305 NA 
HETATM   40  H   UNL     1      -7.682  19.103  68.060  1.00  0.00     0.000 HD 
BRANCH  39  41
HETATM   41  C   UNL     1      -7.739  17.499  69.578  1.00  0.00     0.428 C  
HETATM   42  C   UNL     1      -7.268  15.029  69.284  1.00  0.00    -0.179 C  
HETATM   43  C   UNL     1      -8.109  16.060  69.386  1.00  0.00    -0.139 C  
HETATM   44  C   UNL     1      -5.785  15.206  69.462  1.00  0.00    -0.102 C  
HETATM   45  H   UNL     1      -4.756  18.531  68.618  1.00  0.00     0.000 HD 
HETATM   46  O   UNL     1      -5.688  18.370  68.524  1.00  0.00    -0.177 OA 
HETATM   47  C   UNL     1      -5.337  16.550  70.094  1.00  0.00    -0.194 C  
HETATM   48  O   UNL     1      -5.169  15.016  68.192  1.00  0.00    -0.105 OA 
HETATM   49  H   UNL     1      -5.009  17.251  71.910  1.00  0.00     0.000 HD 
HETATM   50  O   UNL     1      -5.284  16.427  71.524  1.00  0.00    -0.140 OA 
HETATM   51  C   UNL     1      -6.204  17.764  69.732  1.00  0.00    -0.174 C  
HETATM   52  H   UNL     1      -4.232  15.128  68.305  1.00  0.00     0.000 HD 
BRANCH  42  53
HETATM   53  C   UNL     1      -7.720  13.620  68.966  1.00  0.00     0.087 C  
HETATM   54  O   UNL     1      -7.107  12.654  69.812  1.00  0.00    -0.319 OA 
HETATM   55  H   UNL     1      -7.390  11.769  69.613  1.00  0.00     0.000 HD 
ENDBRANCH  42  53
ENDBRANCH  39  41
ENDBRANCH  31  39
ENDBRANCH  27  28
ENDBRANCH  23  27
ENDBRANCH  13  14
ENDBRANCH   4  13
ENDBRANCH   1   4
BRANCH   1  56
HETATM   56  C   UNL     1      -7.434   9.525  68.910  1.00  0.00    -0.074 C  
HETATM   57  O   UNL     1      -7.061   9.749  70.272  1.00  0.00    -0.111 OA 
HETATM   58  H   UNL     1      -6.193  10.136  70.294  1.00  0.00     0.000 HD 
ENDBRANCH   1  56
TORSDOF 12
ENDMDL
MODEL      256
REMARK 921   NORMALIZED FREE ENERGY PREDICTED BY IDOCK:    0.88 KCAL/MOL
REMARK 922        TOTAL FREE ENERGY PREDICTED BY IDOCK:   -1.69 KCAL/MOL
REMARK 923 INTER-LIGAND FREE ENERGY PREDICTED BY IDOCK:   -2.81 KCAL/MOL
REMARK 924 INTRA-LIGAND FREE ENERGY PREDICTED BY IDOCK:    1.12 KCAL/MOL
REMARK 927      BINDING AFFINITY PREDICTED BY RF-SCORE:    0.00 PKD
ROOT
HETATM    1  C   UNL     1      -9.840   8.212  69.361  1.00  0.00    -0.182 C  
HETATM    2  H   UNL     1     -11.502   7.246  69.605  1.00  0.00     0.000 HD 
HETATM    3  O   UNL     1     -11.005   7.869  70.122  1.00  0.00    -0.253 OA 
ENDROOT
BRANCH   1   4
HETATM    4  C   UNL     1     -10.182   8.727  67.931  1.00  0.00    -0.219 C  
BRANCH   4   5
HETATM    5  C   UNL     1     -10.076   7.607  66.848  1.00  0.00    -0.278 C  
HETATM    6  O   UNL     1     -11.280   6.827  66.778  1.00  0.00    -0.626 OA 
HETATM    7  H   UNL     1     -11.216   6.146  66.119  1.00  0.00     0.000 HD 
BRANCH   5   8
HETATM    8  C   UNL     1      -8.916   6.624  67.051  1.00  0.00    -0.118 C  
HETATM    9  C   UNL     1      -8.637   5.836  65.790  1.00  0.00    -0.149 C  
HETATM   10  O   UNL     1      -9.297   5.706  68.088  1.00  0.00    -0.110 OA 
HETATM   11  O   UNL     1      -7.839   6.212  64.934  1.00  0.00    -0.095 OA 
HETATM   12  H   UNL     1      -8.578   5.097  68.213  1.00  0.00     0.000 HD 
ENDBRANCH   5   8
ENDBRANCH   4   5
BRANCH   4  13
HETATM   13  O   UNL     1      -9.368   9.857  67.533  1.00  0.00    -0.139 OA 
BRANCH  13  14
HETATM   14  C   UNL     1      -9.322  10.100  66.117  1.00  0.00    -0.172 C  
HETATM   15  H   UNL     1      -6.464  12.890  66.078  1.00  0.00     0.000 HD 
HETATM   16  O   UNL     1      -6.863  10.478  66.151  1.00  0.00    -0.116 OA 
HETATM   17  C   UNL     1      -8.139  11.020  65.773  1.00  0.00    -0.038 C  
HETATM   18  O   UNL     1     -10.503  10.698  65.603  1.00  0.00    -0.236 OA 
HETATM   19  O   UNL     1      -7.321  13.274  65.936  1.00  0.00     2.566 OA 
HETATM   20  C   UNL     1     -10.836  11.951  66.210  1.00  0.00    -0.282 C  
HETATM   21  H   UNL     1      -6.132  11.047  65.938  1.00  0.00     0.000 HD 
HETATM   22  C   UNL     1      -8.314  12.368  66.459  1.00  0.00     0.112 C  
HETATM   23  C   UNL     1      -9.701  12.990  66.230  1.00  0.00    -0.263 C  
BRANCH  20  24
HETATM   24  C   UNL     1     -12.102  12.483  65.499  1.00  0.00    -0.419 C  
HETATM   25  O   UNL     1     -12.343  11.889  64.222  1.00  0.00    -0.303 OA 
HETATM   26  H   UNL     1     -13.121  12.216  63.786  1.00  0.00     0.000 HD 
ENDBRANCH  20  24
BRANCH  23  27
HETATM   27  O   UNL     1     -10.030  13.925  67.296  1.00  0.00    -0.237 OA 
BRANCH  27  28
HETATM   28  C   UNL     1     -11.285  14.590  67.102  1.00  0.00    -0.333 C  
HETATM   29  O   UNL     1     -11.705  15.224  68.301  1.00  0.00    -0.343 OA 
HETATM   30  C   UNL     1     -10.774  16.215  68.746  1.00  0.00    -0.294 C  
HETATM   31  C   UNL     1     -10.718  17.371  67.715  1.00  0.00    -0.332 C  
HETATM   32  C   UNL     1     -11.236  16.618  70.145  1.00  0.00    -0.008 C  
HETATM   33  C   UNL     1     -10.310  16.796  66.332  1.00  0.00    -0.306 C  
HETATM   34  H   UNL     1     -10.224  17.434  64.455  1.00  0.00     0.000 HD 
HETATM   35  C   UNL     1     -11.187  15.601  65.950  1.00  0.00    -0.061 C  
HETATM   36  O   UNL     1     -10.474  17.786  65.301  1.00  0.00    -0.605 OA 
HETATM   37  O   UNL     1     -10.692  14.990  64.745  1.00  0.00    -0.516 OA 
HETATM   38  H   UNL     1     -10.632  15.615  64.032  1.00  0.00     0.000 HD 
BRANCH  31  39
HETATM   39  N   UNL     1      -9.825  18.446  68.213  1.00  0.00    -0.339 NA 
HETATM   40  H   UNL     1      -9.934  19.417  67.922  1.00  0.00     0.000 HD 
BRANCH  39  41
HETATM   41  C   UNL     1      -8.758  18.022  69.167  1.00  0.00     0.138 C  
HETATM   42  C   UNL     1      -6.361  17.854  68.370  1.00  0.00    -0.191 C  
HETATM   43  C   UNL     1      -7.616  17.407  68.415  1.00  0.00    -0.255 C  
HETATM   44  C   UNL     1      -5.916  19.029  69.198  1.00  0.00    -0.231 C  
HETATM   45  H   UNL     1      -8.648  21.235  69.903  1.00  0.00     0.000 HD 
HETATM   46  O   UNL     1      -8.879  20.474  69.384  1.00  0.00     0.838 OA 
HETATM   47  C   UNL     1      -6.884  19.461  70.329  1.00  0.00     0.236 C  
HETATM   48  O   UNL     1      -5.663  20.114  68.310  1.00  0.00    -0.214 OA 
HETATM   49  H   UNL     1      -7.163  19.021  72.234  1.00  0.00     0.000 HD 
HETATM   50  O   UNL     1      -6.570  18.756  71.541  1.00  0.00     1.513 OA 
HETATM   51  C   UNL     1      -8.377  19.276  70.021  1.00  0.00     1.100 C  
HETATM   52  H   UNL     1      -5.382  20.856  68.833  1.00  0.00     0.000 HD 
BRANCH  42  53
HETATM   53  C   UNL     1      -5.295  17.244  67.486  1.00  0.00    -0.124 C  
HETATM   54  O   UNL     1      -5.478  15.843  67.309  1.00  0.00    -0.309 OA 
HETATM   55  H   UNL     1      -4.808  15.460  66.754  1.00  0.00     0.000 HD 
ENDBRANCH  42  53
ENDBRANCH  39  41
ENDBRANCH  31  39
ENDBRANCH  27  28
ENDBRANCH  23  27
ENDBRANCH  13  14
ENDBRANCH   4  13
ENDBRANCH   1   4
BRANCH   1  56
HETATM   56  C   UNL     1      -9.039   9.217  70.194  1.00  0.00    -0.206 C  
HETATM   57  O   UNL     1      -9.509  10.536  69.906  1.00  0.00    -0.409 OA 
HETATM   58  H   UNL     1      -9.013  11.160  70.423  1.00  0.00     0.000 HD 
ENDBRANCH   1  56
TORSDOF 12
ENDMDL
MODEL      257
REMARK 921   NORMALIZED FREE ENERGY PREDICTED BY IDOCK:    0.98 KCAL/MOL
REMARK 922        TOTAL FREE ENERGY PREDICTED BY IDOCK:   -1.53 KCAL/MOL
REMARK 923 INTER-LIGAND FREE ENERGY PREDICTED BY IDOCK:   -3.21 KCAL/MOL
REMARK 924 INTRA-LIGAND FREE ENERGY PREDICTED BY IDOCK:    1.68 KCAL/MOL
REMARK 927      BINDING AFFINITY PREDICTED BY RF-SCORE:    0.00 PKD
ROOT
HETATM    1  C   UNL     1     -12.205  13.240  66.395  1.00  0.00    -0.356 C  
HETATM    2  H   UNL     1     -11.543  11.444  66.089  1.00  0.00     0.000 HD 
HETATM    3  O   UNL     1     -12.368  11.891  65.939  1.00  0.00    -0.340 OA 
ENDROOT
BRANCH   1   4
HETATM    4  C   UNL     1     -10.984  13.954  65.740  1.00  0.00    -0.285 C  
BRANCH   4   5
HETATM    5  C   UNL     1     -10.227  13.041  64.725  1.00  0.00    -0.291 C  
HETATM    6  O   UNL     1      -9.537  13.816  63.733  1.00  0.00     0.417 OA 
HETATM    7  H   UNL     1      -9.076  13.260  63.116  1.00  0.00     0.000 HD 
BRANCH   5   8
HETATM    8  C   UNL     1     -11.115  12.040  63.974  1.00  0.00    -0.386 C  
HETATM    9  C   UNL     1     -10.283  11.012  63.239  1.00  0.00    -0.303 C  
HETATM   10  O   UNL     1     -11.887  12.775  63.012  1.00  0.00    -0.780 OA 
HETATM   11  O   UNL     1      -9.943   9.946  63.747  1.00  0.00     0.086 OA 
HETATM   12  H   UNL     1     -12.437  12.155  62.548  1.00  0.00     0.000 HD 
ENDBRANCH   5   8
ENDBRANCH   4   5
BRANCH   4  13
HETATM   13  O   UNL     1     -10.046  14.466  66.717  1.00  0.00    -0.257 OA 
BRANCH  13  14
HETATM   14  C   UNL     1     -10.208  13.939  68.044  1.00  0.00    -0.246 C  
HETATM   15  H   UNL     1      -6.544  14.693  69.443  1.00  0.00     0.000 HD 
HETATM   16  O   UNL     1      -8.741  15.687  69.036  1.00  0.00    -0.202 OA 
HETATM   17  C   UNL     1      -8.979  14.276  68.905  1.00  0.00    -0.025 C  
HETATM   18  O   UNL     1     -10.392  12.531  68.081  1.00  0.00    -0.218 OA 
HETATM   19  O   UNL     1      -6.656  13.769  69.254  1.00  0.00    -0.108 OA 
HETATM   20  C   UNL     1      -9.324  11.787  67.486  1.00  0.00    -0.174 C  
HETATM   21  H   UNL     1      -7.981  15.895  69.568  1.00  0.00     0.000 HD 
HETATM   22  C   UNL     1      -7.736  13.629  68.309  1.00  0.00    -0.140 C  
HETATM   23  C   UNL     1      -7.917  12.134  68.003  1.00  0.00    -0.152 C  
BRANCH  20  24
HETATM   24  C   UNL     1      -9.657  10.287  67.662  1.00  0.00    -0.152 C  
HETATM   25  O   UNL     1     -10.398   9.993  68.847  1.00  0.00    -0.182 OA 
HETATM   26  H   UNL     1     -10.603   9.071  68.954  1.00  0.00     0.000 HD 
ENDBRANCH  20  24
BRANCH  23  27
HETATM   27  O   UNL     1      -6.990  11.702  66.968  1.00  0.00    -0.132 OA 
BRANCH  27  28
HETATM   28  C   UNL     1      -5.718  11.286  67.480  1.00  0.00    -0.050 C  
HETATM   29  O   UNL     1      -5.806  11.004  68.869  1.00  0.00    -0.040 OA 
HETATM   30  C   UNL     1      -6.732   9.953  69.153  1.00  0.00    -0.054 C  
HETATM   31  C   UNL     1      -6.213   8.628  68.540  1.00  0.00    -0.053 C  
HETATM   32  C   UNL     1      -6.894   9.943  70.671  1.00  0.00    -0.087 C  
HETATM   33  C   UNL     1      -6.028   8.817  67.009  1.00  0.00    -0.057 C  
HETATM   34  H   UNL     1      -5.216   7.813  65.504  1.00  0.00     0.000 HD 
HETATM   35  C   UNL     1      -5.197  10.066  66.705  1.00  0.00    -0.040 C  
HETATM   36  O   UNL     1      -5.329   7.696  66.440  1.00  0.00    -0.024 OA 
HETATM   37  O   UNL     1      -5.171  10.307  65.286  1.00  0.00    -0.060 OA 
HETATM   38  H   UNL     1      -4.848   9.554  64.807  1.00  0.00     0.000 HD 
BRANCH  31  39
HETATM   39  N   UNL     1      -7.121   7.514  68.908  1.00  0.00    -0.077 NA 
HETATM   40  H   UNL     1      -8.085   7.676  69.199  1.00  0.00     0.000 HD 
BRANCH  39  41
HETATM   41  C   UNL     1      -6.540   6.141  68.828  1.00  0.00    -0.055 C  
HETATM   42  C   UNL     1      -6.173   4.811  70.951  1.00  0.00    -0.019 C  
HETATM   43  C   UNL     1      -5.854   5.801  70.117  1.00  0.00    -0.024 C  
HETATM   44  C   UNL     1      -7.251   3.817  70.612  1.00  0.00    -0.037 C  
HETATM   45  H   UNL     1      -9.682   5.233  68.396  1.00  0.00     0.000 HD 
HETATM   46  O   UNL     1      -8.976   5.822  68.638  1.00  0.00    -0.113 OA 
HETATM   47  C   UNL     1      -7.717   3.806  69.134  1.00  0.00    -0.052 C  
HETATM   48  O   UNL     1      -8.351   4.055  71.486  1.00  0.00    -0.079 OA 
HETATM   49  H   UNL     1      -7.206   2.877  67.468  1.00  0.00     0.000 HD 
HETATM   50  O   UNL     1      -6.919   2.884  68.374  1.00  0.00    -0.047 OA 
HETATM   51  C   UNL     1      -7.702   5.171  68.432  1.00  0.00    -0.080 C  
HETATM   52  H   UNL     1      -9.031   3.428  71.272  1.00  0.00     0.000 HD 
BRANCH  42  53
HETATM   53  C   UNL     1      -5.506   4.612  72.294  1.00  0.00    -0.004 C  
HETATM   54  O   UNL     1      -5.280   5.844  72.972  1.00  0.00    -0.024 OA 
HETATM   55  H   UNL     1      -4.861   5.719  73.816  1.00  0.00     0.000 HD 
ENDBRANCH  42  53
ENDBRANCH  39  41
ENDBRANCH  31  39
ENDBRANCH  27  28
ENDBRANCH  23  27
ENDBRANCH  13  14
ENDBRANCH   4  13
ENDBRANCH   1   4
BRANCH   1  56
HETATM   56  C   UNL     1     -13.533  13.960  66.153  1.00  0.00     1.726 C  
HETATM   57  O   UNL     1     -13.289  15.134  65.374  1.00  0.00     0.369 OA 
HETATM   58  H   UNL     1     -14.114  15.582  65.224  1.00  0.00     0.000 HD 
ENDBRANCH   1  56
TORSDOF 12
ENDMDL
MODEL      258
REMARK 921   NORMALIZED FREE ENERGY PREDICTED BY IDOCK:    1.03 KCAL/MOL
REMARK 922        TOTAL FREE ENERGY PREDICTED BY IDOCK:   -1.44 KCAL/MOL
REMARK 923 INTER-LIGAND FREE ENERGY PREDICTED BY IDOCK:   -9.25 KCAL/MOL
REMARK 924 INTRA-LIGAND FREE ENERGY PREDICTED BY IDOCK:    7.81 KCAL/MOL
REMARK 927      BINDING AFFINITY PREDICTED BY RF-SCORE:    0.00 PKD
ROOT
HETATM    1  C   UNL     1     -10.988  11.669  63.691  1.00  0.00    -0.431 C  
HETATM    2  H   UNL     1      -9.250  12.202  63.017  1.00  0.00     0.000 HD 
HETATM    3  O   UNL     1     -10.146  12.300  62.716  1.00  0.00     0.024 OA 
ENDROOT
BRANCH   1   4
HETATM    4  C   UNL     1     -10.754  12.213  65.132  1.00  0.00    -0.292 C  
BRANCH   4   5
HETATM    5  C   UNL     1     -10.006  13.583  65.143  1.00  0.00    -0.176 C  
HETATM    6  O   UNL     1      -9.215  13.741  66.331  1.00  0.00    -0.416 OA 
HETATM    7  H   UNL     1      -8.759  14.574  66.338  1.00  0.00     0.000 HD 
BRANCH   5   8
HETATM    8  C   UNL     1     -10.916  14.814  65.043  1.00  0.00    -0.414 C  
HETATM    9  C   UNL     1     -10.353  15.979  65.827  1.00  0.00    -0.378 C  
HETATM   10  O   UNL     1     -12.191  14.461  65.603  1.00  0.00    -0.384 OA 
HETATM   11  O   UNL     1      -9.596  16.810  65.330  1.00  0.00    -0.461 OA 
HETATM   12  H   UNL     1     -12.755  15.223  65.540  1.00  0.00     0.000 HD 
ENDBRANCH   5   8
ENDBRANCH   4   5
BRANCH   4  13
HETATM   13  O   UNL     1     -10.047  11.273  65.976  1.00  0.00    -0.222 OA 
BRANCH  13  14
HETATM   14  C   UNL     1      -8.711  10.962  65.547  1.00  0.00    -0.171 C  
HETATM   15  H   UNL     1      -8.864   6.989  65.925  1.00  0.00     0.000 HD 
HETATM   16  O   UNL     1      -9.436   8.851  64.447  1.00  0.00    -0.210 OA 
HETATM   17  C   UNL     1      -8.538   9.441  65.401  1.00  0.00    -0.156 C  
HETATM   18  O   UNL     1      -7.704  11.431  66.432  1.00  0.00    -0.137 OA 
HETATM   19  O   UNL     1      -8.357   7.381  66.627  1.00  0.00    -0.117 OA 
HETATM   20  C   UNL     1      -7.818  10.929  67.766  1.00  0.00    -0.109 C  
HETATM   21  H   UNL     1      -9.330   7.911  64.357  1.00  0.00     0.000 HD 
HETATM   22  C   UNL     1      -8.750   8.764  66.748  1.00  0.00    -0.124 C  
HETATM   23  C   UNL     1      -7.930   9.398  67.883  1.00  0.00    -0.092 C  
BRANCH  20  24
HETATM   24  C   UNL     1      -6.623  11.489  68.572  1.00  0.00    -0.063 C  
HETATM   25  O   UNL     1      -6.631  11.123  69.953  1.00  0.00    -0.136 OA 
HETATM   26  H   UNL     1      -5.896  11.468  70.447  1.00  0.00     0.000 HD 
ENDBRANCH  20  24
BRANCH  23  27
HETATM   27  O   UNL     1      -8.546   9.137  69.175  1.00  0.00    -0.128 OA 
BRANCH  27  28
HETATM   28  C   UNL     1      -9.728   8.332  69.090  1.00  0.00    -0.171 C  
HETATM   29  O   UNL     1     -10.194   7.989  70.386  1.00  0.00    -0.197 OA 
HETATM   30  C   UNL     1     -10.530   9.140  71.165  1.00  0.00    -0.315 C  
HETATM   31  C   UNL     1     -11.737   9.867  70.519  1.00  0.00    -0.295 C  
HETATM   32  C   UNL     1     -10.769   8.626  72.583  1.00  0.00    -0.074 C  
HETATM   33  C   UNL     1     -11.370  10.260  69.062  1.00  0.00    -0.180 C  
HETATM   34  H   UNL     1     -12.307  10.962  67.461  1.00  0.00     0.000 HD 
HETATM   35  C   UNL     1     -10.819   9.059  68.288  1.00  0.00    -0.017 C  
HETATM   36  O   UNL     1     -12.532  10.722  68.352  1.00  0.00    -0.179 OA 
HETATM   37  O   UNL     1     -10.342   9.480  66.998  1.00  0.00    -0.238 OA 
HETATM   38  H   UNL     1     -11.016   9.929  66.503  1.00  0.00     0.000 HD 
BRANCH  31  39
HETATM   39  N   UNL     1     -12.151  11.009  71.370  1.00  0.00    -0.176 NA 
HETATM   40  H   UNL     1     -12.019  11.005  72.382  1.00  0.00     0.000 HD 
BRANCH  39  41
HETATM   41  C   UNL     1     -12.772  12.165  70.659  1.00  0.00    -0.067 C  
HETATM   42  C   UNL     1     -13.059  14.372  71.866  1.00  0.00    -0.433 C  
HETATM   43  C   UNL     1     -13.396  13.100  71.651  1.00  0.00    -0.393 C  
HETATM   44  C   UNL     1     -12.028  15.065  71.016  1.00  0.00    -0.322 C  
HETATM   45  H   UNL     1      -9.685  12.730  69.644  1.00  0.00     0.000 HD 
HETATM   46  O   UNL     1     -10.360  12.340  70.187  1.00  0.00     1.440 OA 
HETATM   47  C   UNL     1     -11.644  14.342  69.700  1.00  0.00    -0.292 C  
HETATM   48  O   UNL     1     -10.876  15.286  71.825  1.00  0.00    -0.447 OA 
HETATM   49  H   UNL     1     -12.271  14.328  67.827  1.00  0.00     0.000 HD 
HETATM   50  O   UNL     1     -12.507  14.771  68.634  1.00  0.00    -0.030 OA 
HETATM   51  C   UNL     1     -11.661  12.808  69.765  1.00  0.00    -0.218 C  
HETATM   52  H   UNL     1     -10.226  15.723  71.288  1.00  0.00     0.000 HD 
BRANCH  42  53
HETATM   53  C   UNL     1     -13.656  15.211  72.975  1.00  0.00    -0.386 C  
HETATM   54  O   UNL     1     -12.827  15.245  74.132  1.00  0.00    -0.592 OA 
HETATM   55  H   UNL     1     -13.202  15.772  74.828  1.00  0.00     0.000 HD 
ENDBRANCH  42  53
ENDBRANCH  39  41
ENDBRANCH  31  39
ENDBRANCH  27  28
ENDBRANCH  23  27
ENDBRANCH  13  14
ENDBRANCH   4  13
ENDBRANCH   1   4
BRANCH   1  56
HETATM   56  C   UNL     1     -12.431  11.827  63.207  1.00  0.00    -0.290 C  
HETATM   57  O   UNL     1     -13.227  12.334  64.281  1.00  0.00    -0.785 OA 
HETATM   58  H   UNL     1     -14.124  12.432  63.981  1.00  0.00     0.000 HD 
ENDBRANCH   1  56
TORSDOF 12
ENDMDL
MODEL      259
REMARK 921   NORMALIZED FREE ENERGY PREDICTED BY IDOCK:    1.25 KCAL/MOL
REMARK 922        TOTAL FREE ENERGY PREDICTED BY IDOCK:   -1.06 KCAL/MOL
REMARK 923 INTER-LIGAND FREE ENERGY PREDICTED BY IDOCK:   -4.64 KCAL/MOL
REMARK 924 INTRA-LIGAND FREE ENERGY PREDICTED BY IDOCK:    3.58 KCAL/MOL
REMARK 927      BINDING AFFINITY PREDICTED BY RF-SCORE:    0.00 PKD
ROOT
HETATM    1  C   UNL     1      -7.213  12.232  67.793  1.00  0.00    -0.114 C  
HETATM    2  H   UNL     1      -9.082  12.208  68.306  1.00  0.00     0.000 HD 
HETATM    3  O   UNL     1      -8.612  12.288  67.484  1.00  0.00    -0.156 OA 
ENDROOT
BRANCH   1   4
HETATM    4  C   UNL     1      -6.825  10.962  68.608  1.00  0.00    -0.062 C  
BRANCH   4   5
HETATM    5  C   UNL     1      -6.007  11.300  69.893  1.00  0.00    -0.117 C  
HETATM    6  O   UNL     1      -6.259  10.353  70.942  1.00  0.00    -0.277 OA 
HETATM    7  H   UNL     1      -5.761  10.558  71.725  1.00  0.00     0.000 HD 
BRANCH   5   8
HETATM    8  C   UNL     1      -6.269  12.695  70.475  1.00  0.00     0.217 C  
HETATM    9  C   UNL     1      -5.203  13.678  70.045  1.00  0.00    -0.094 C  
HETATM   10  O   UNL     1      -6.237  12.584  71.907  1.00  0.00     0.556 OA 
HETATM   11  O   UNL     1      -5.300  14.360  69.027  1.00  0.00    -0.084 OA 
HETATM   12  H   UNL     1      -6.400  13.448  72.267  1.00  0.00     0.000 HD 
ENDBRANCH   5   8
ENDBRANCH   4   5
BRANCH   4  13
HETATM   13  O   UNL     1      -6.098   9.991  67.817  1.00  0.00    -0.053 OA 
BRANCH  13  14
HETATM   14  C   UNL     1      -6.667   8.672  67.806  1.00  0.00    -0.066 C  
HETATM   15  H   UNL     1      -9.089   9.085  64.657  1.00  0.00     0.000 HD 
HETATM   16  O   UNL     1      -6.781   8.622  65.321  1.00  0.00    -0.066 OA 
HETATM   17  C   UNL     1      -7.521   8.469  66.543  1.00  0.00    -0.088 C  
HETATM   18  O   UNL     1      -7.484   8.393  68.934  1.00  0.00    -0.087 OA 
HETATM   19  O   UNL     1      -9.579   9.096  65.471  1.00  0.00    -0.257 OA 
HETATM   20  C   UNL     1      -8.582   9.297  69.096  1.00  0.00    -0.134 C  
HETATM   21  H   UNL     1      -7.309   8.497  64.541  1.00  0.00     0.000 HD 
HETATM   22  C   UNL     1      -8.676   9.461  66.536  1.00  0.00    -0.134 C  
HETATM   23  C   UNL     1      -9.469   9.480  67.852  1.00  0.00    -0.132 C  
BRANCH  20  24
HETATM   24  C   UNL     1      -9.391   8.819  70.325  1.00  0.00    -0.174 C  
HETATM   25  O   UNL     1     -10.700   9.385  70.413  1.00  0.00    -0.224 OA 
HETATM   26  H   UNL     1     -11.196   9.091  71.168  1.00  0.00     0.000 HD 
ENDBRANCH  20  24
BRANCH  23  27
HETATM   27  O   UNL     1     -10.150  10.755  68.028  1.00  0.00    -0.169 OA 
BRANCH  27  28
HETATM   28  C   UNL     1     -11.547  10.701  67.716  1.00  0.00     0.025 C  
HETATM   29  O   UNL     1     -12.324  11.113  68.831  1.00  0.00    -0.512 OA 
HETATM   30  C   UNL     1     -12.038  12.457  69.225  1.00  0.00    -0.165 C  
HETATM   31  C   UNL     1     -12.466  13.429  68.096  1.00  0.00     0.377 C  
HETATM   32  C   UNL     1     -12.755  12.659  70.558  1.00  0.00    -0.066 C  
HETATM   33  C   UNL     1     -11.712  13.052  66.792  1.00  0.00    -0.382 C  
HETATM   34  H   UNL     1     -11.789  13.541  64.871  1.00  0.00     0.000 HD 
HETATM   35  C   UNL     1     -11.858  11.561  66.481  1.00  0.00     0.377 C  
HETATM   36  O   UNL     1     -12.250  13.772  65.668  1.00  0.00    -0.396 OA 
HETATM   37  O   UNL     1     -11.027  11.206  65.362  1.00  0.00    -0.196 OA 
HETATM   38  H   UNL     1     -11.219  11.737  64.598  1.00  0.00     0.000 HD 
BRANCH  31  39
HETATM   39  N   UNL     1     -12.258  14.831  68.534  1.00  0.00    -0.605 NA 
HETATM   40  H   UNL     1     -13.000  15.376  68.972  1.00  0.00     0.000 HD 
BRANCH  39  41
HETATM   41  C   UNL     1     -10.897  15.397  68.296  1.00  0.00    -0.269 C  
HETATM   42  C   UNL     1     -10.590  17.245  66.593  1.00  0.00    -0.179 C  
HETATM   43  C   UNL     1     -10.817  15.971  66.913  1.00  0.00    -0.203 C  
HETATM   44  C   UNL     1     -10.271  18.274  67.644  1.00  0.00    -0.382 C  
HETATM   45  H   UNL     1     -11.681  17.381  70.813  1.00  0.00     0.000 HD 
HETATM   46  O   UNL     1     -11.852  16.759  70.114  1.00  0.00     0.510 OA 
HETATM   47  C   UNL     1      -9.895  17.716  69.041  1.00  0.00    -0.231 C  
HETATM   48  O   UNL     1     -11.384  19.158  67.737  1.00  0.00    -0.166 OA 
HETATM   49  H   UNL     1      -8.247  17.159  69.975  1.00  0.00     0.000 HD 
HETATM   50  O   UNL     1      -8.477  17.501  69.119  1.00  0.00    -0.093 OA 
HETATM   51  C   UNL     1     -10.616  16.422  69.445  1.00  0.00    -0.317 C  
HETATM   52  H   UNL     1     -11.183  19.807  68.401  1.00  0.00     0.000 HD 
BRANCH  42  53
HETATM   53  C   UNL     1     -10.648  17.766  65.173  1.00  0.00     0.446 C  
HETATM   54  O   UNL     1     -11.362  16.890  64.306  1.00  0.00    -1.296 OA 
HETATM   55  H   UNL     1     -11.398  17.216  63.415  1.00  0.00     0.000 HD 
ENDBRANCH  42  53
ENDBRANCH  39  41
ENDBRANCH  31  39
ENDBRANCH  27  28
ENDBRANCH  23  27
ENDBRANCH  13  14
ENDBRANCH   4  13
ENDBRANCH   1   4
BRANCH   1  56
HETATM   56  C   UNL     1      -6.455  12.361  66.469  1.00  0.00     0.926 C  
HETATM   57  O   UNL     1      -5.703  11.166  66.248  1.00  0.00    -0.129 OA 
HETATM   58  H   UNL     1      -5.232  11.246  65.426  1.00  0.00     0.000 HD 
ENDBRANCH   1  56
TORSDOF 12
ENDMDL
MODEL      260
REMARK 921   NORMALIZED FREE ENERGY PREDICTED BY IDOCK:    1.48 KCAL/MOL
REMARK 922        TOTAL FREE ENERGY PREDICTED BY IDOCK:   -0.68 KCAL/MOL
REMARK 923 INTER-LIGAND FREE ENERGY PREDICTED BY IDOCK:   -7.74 KCAL/MOL
REMARK 924 INTRA-LIGAND FREE ENERGY PREDICTED BY IDOCK:    7.06 KCAL/MOL
REMARK 927      BINDING AFFINITY PREDICTED BY RF-SCORE:    0.00 PKD
ROOT
HETATM    1  C   UNL     1      -9.571   6.887  72.814  1.00  0.00    -0.146 C  
HETATM    2  H   UNL     1     -10.283   8.657  73.156  1.00  0.00     0.000 HD 
HETATM    3  O   UNL     1      -9.503   8.184  73.421  1.00  0.00    -0.262 OA 
ENDROOT
BRANCH   1   4
HETATM    4  C   UNL     1      -9.763   6.953  71.269  1.00  0.00    -0.172 C  
BRANCH   4   5
HETATM    5  C   UNL     1     -10.288   5.609  70.671  1.00  0.00    -0.252 C  
HETATM    6  O   UNL     1      -9.208   4.725  70.336  1.00  0.00    -0.121 OA 
HETATM    7  H   UNL     1      -9.527   3.908  69.972  1.00  0.00     0.000 HD 
BRANCH   5   8
HETATM    8  C   UNL     1     -11.153   5.760  69.413  1.00  0.00    -0.189 C  
HETATM    9  C   UNL     1     -10.301   5.814  68.165  1.00  0.00    -0.212 C  
HETATM   10  O   UNL     1     -11.877   6.995  69.526  1.00  0.00    -0.537 OA 
HETATM   11  O   UNL     1      -9.991   4.810  67.526  1.00  0.00    -0.174 OA 
HETATM   12  H   UNL     1     -12.413   7.088  68.747  1.00  0.00     0.000 HD 
ENDBRANCH   5   8
ENDBRANCH   4   5
BRANCH   4  13
HETATM   13  O   UNL     1      -8.556   7.349  70.573  1.00  0.00    -0.136 OA 
BRANCH  13  14
HETATM   14  C   UNL     1      -8.153   8.711  70.789  1.00  0.00    -0.128 C  
HETATM   15  H   UNL     1     -11.125  10.535  68.842  1.00  0.00     0.000 HD 
HETATM   16  O   UNL     1     -10.508   9.495  70.968  1.00  0.00    -0.300 OA 
HETATM   17  C   UNL     1      -9.248   9.675  70.301  1.00  0.00    -0.236 C  
HETATM   18  O   UNL     1      -6.943   9.059  70.133  1.00  0.00    -0.039 OA 
HETATM   19  O   UNL     1     -10.318  10.563  68.341  1.00  0.00    -0.162 OA 
HETATM   20  C   UNL     1      -6.974   8.875  68.714  1.00  0.00    -0.063 C  
HETATM   21  H   UNL     1     -11.184  10.091  70.666  1.00  0.00     0.000 HD 
HETATM   22  C   UNL     1      -9.463   9.498  68.804  1.00  0.00    -0.147 C  
HETATM   23  C   UNL     1      -8.159   9.543  67.993  1.00  0.00    -0.102 C  
BRANCH  20  24
HETATM   24  C   UNL     1      -5.611   9.350  68.160  1.00  0.00    -0.037 C  
HETATM   25  O   UNL     1      -5.186  10.615  68.671  1.00  0.00    -0.042 OA 
HETATM   26  H   UNL     1      -4.348  10.906  68.331  1.00  0.00     0.000 HD 
ENDBRANCH  20  24
BRANCH  23  27
HETATM   27  O   UNL     1      -8.310   8.837  66.729  1.00  0.00    -0.106 OA 
BRANCH  27  28
HETATM   28  C   UNL     1      -8.150   9.680  65.583  1.00  0.00    -0.117 C  
HETATM   29  O   UNL     1      -9.341  10.410  65.328  1.00  0.00    -0.182 OA 
HETATM   30  C   UNL     1      -9.702  11.259  66.421  1.00  0.00    -0.209 C  
HETATM   31  C   UNL     1      -8.625  12.359  66.599  1.00  0.00    -0.075 C  
HETATM   32  C   UNL     1     -11.104  11.772  66.100  1.00  0.00    -0.358 C  
HETATM   33  C   UNL     1      -7.247  11.684  66.841  1.00  0.00    -0.125 C  
HETATM   34  H   UNL     1      -5.345  12.240  66.925  1.00  0.00     0.000 HD 
HETATM   35  C   UNL     1      -6.955  10.628  65.773  1.00  0.00    -0.094 C  
HETATM   36  O   UNL     1      -6.188  12.654  66.776  1.00  0.00    -0.096 OA 
HETATM   37  O   UNL     1      -5.753   9.909  66.105  1.00  0.00    -0.054 OA 
HETATM   38  H   UNL     1      -5.014  10.494  66.222  1.00  0.00     0.000 HD 
BRANCH  31  39
HETATM   39  N   UNL     1      -9.038  13.298  67.670  1.00  0.00    -0.193 NA 
HETATM   40  H   UNL     1      -8.650  13.247  68.613  1.00  0.00     0.000 HD 
BRANCH  39  41
HETATM   41  C   UNL     1     -10.053  14.323  67.288  1.00  0.00    -0.252 C  
HETATM   42  C   UNL     1     -11.672  15.193  69.029  1.00  0.00    -0.358 C  
HETATM   43  C   UNL     1     -11.235  14.239  68.206  1.00  0.00    -0.298 C  
HETATM   44  C   UNL     1     -11.049  16.562  69.044  1.00  0.00    -0.284 C  
HETATM   45  H   UNL     1      -7.631  16.452  67.982  1.00  0.00     0.000 HD 
HETATM   46  O   UNL     1      -8.071  15.610  67.986  1.00  0.00    -0.133 OA 
HETATM   47  C   UNL     1     -10.126  16.896  67.844  1.00  0.00    -0.288 C  
HETATM   48  O   UNL     1     -10.348  16.706  70.276  1.00  0.00     0.091 OA 
HETATM   49  H   UNL     1     -10.327  17.690  66.047  1.00  0.00     0.000 HD 
HETATM   50  O   UNL     1     -10.893  17.485  66.782  1.00  0.00    -0.169 OA 
HETATM   51  C   UNL     1      -9.329  15.710  67.281  1.00  0.00    -0.215 C  
HETATM   52  H   UNL     1      -9.954  17.571  70.285  1.00  0.00     0.000 HD 
BRANCH  42  53
HETATM   53  C   UNL     1     -12.800  14.983  70.015  1.00  0.00    -0.082 C  
HETATM   54  O   UNL     1     -13.259  16.207  70.578  1.00  0.00    -0.471 OA 
HETATM   55  H   UNL     1     -13.968  16.075  71.198  1.00  0.00     0.000 HD 
ENDBRANCH  42  53
ENDBRANCH  39  41
ENDBRANCH  31  39
ENDBRANCH  27  28
ENDBRANCH  23  27
ENDBRANCH  13  14
ENDBRANCH   4  13
ENDBRANCH   1   4
BRANCH   1  56
HETATM   56  C   UNL     1      -8.314   6.125  73.240  1.00  0.00    -0.117 C  
HETATM   57  O   UNL     1      -8.610   4.726  73.276  1.00  0.00    -0.103 OA 
HETATM   58  H   UNL     1      -7.829   4.253  73.540  1.00  0.00     0.000 HD 
ENDBRANCH   1  56
TORSDOF 12
ENDMDL
MODEL      261
REMARK 921   NORMALIZED FREE ENERGY PREDICTED BY IDOCK:    1.48 KCAL/MOL
REMARK 922        TOTAL FREE ENERGY PREDICTED BY IDOCK:   -0.67 KCAL/MOL
REMARK 923 INTER-LIGAND FREE ENERGY PREDICTED BY IDOCK:   -4.87 KCAL/MOL
REMARK 924 INTRA-LIGAND FREE ENERGY PREDICTED BY IDOCK:    4.20 KCAL/MOL
REMARK 927      BINDING AFFINITY PREDICTED BY RF-SCORE:    0.00 PKD
ROOT
HETATM    1  C   UNL     1     -11.699   7.783  69.838  1.00  0.00     0.337 C  
HETATM    2  H   UNL     1     -12.688   8.225  71.445  1.00  0.00     0.000 HD 
HETATM    3  O   UNL     1     -12.282   7.438  71.101  1.00  0.00    -0.321 OA 
ENDROOT
BRANCH   1   4
HETATM    4  C   UNL     1     -10.722   8.993  69.934  1.00  0.00    -0.229 C  
BRANCH   4   5
HETATM    5  C   UNL     1      -9.593   8.771  70.989  1.00  0.00    -0.229 C  
HETATM    6  O   UNL     1      -9.905   9.410  72.236  1.00  0.00     0.176 OA 
HETATM    7  H   UNL     1      -9.218   9.274  72.878  1.00  0.00     0.000 HD 
BRANCH   5   8
HETATM    8  C   UNL     1      -8.207   9.271  70.562  1.00  0.00    -0.191 C  
HETATM    9  C   UNL     1      -7.586   8.354  69.531  1.00  0.00    -0.090 C  
HETATM   10  O   UNL     1      -7.368   9.281  71.728  1.00  0.00    -0.337 OA 
HETATM   11  O   UNL     1      -7.739   8.514  68.322  1.00  0.00    -0.099 OA 
HETATM   12  H   UNL     1      -6.510   9.591  71.464  1.00  0.00     0.000 HD 
ENDBRANCH   5   8
ENDBRANCH   4   5
BRANCH   4  13
HETATM   13  O   UNL     1     -11.404  10.240  70.216  1.00  0.00    -0.277 OA 
BRANCH  13  14
HETATM   14  C   UNL     1     -10.569  11.409  70.166  1.00  0.00     0.832 C  
HETATM   15  H   UNL     1     -13.401  14.143  69.491  1.00  0.00     0.000 HD 
HETATM   16  O   UNL     1     -12.307  12.830  71.240  1.00  0.00    -0.286 OA 
HETATM   17  C   UNL     1     -11.434  12.679  70.109  1.00  0.00     0.078 C  
HETATM   18  O   UNL     1      -9.686  11.433  69.054  1.00  0.00    -0.138 OA 
HETATM   19  O   UNL     1     -12.898  13.968  68.704  1.00  0.00     0.556 OA 
HETATM   20  C   UNL     1     -10.343  11.360  67.785  1.00  0.00    -0.182 C  
HETATM   21  H   UNL     1     -12.841  13.614  71.204  1.00  0.00     0.000 HD 
HETATM   22  C   UNL     1     -12.280  12.672  68.843  1.00  0.00     0.040 C  
HETATM   23  C   UNL     1     -11.467  12.389  67.570  1.00  0.00    -0.346 C  
BRANCH  20  24
HETATM   24  C   UNL     1      -9.249  11.455  66.696  1.00  0.00    -0.181 C  
HETATM   25  O   UNL     1      -9.007  10.225  66.009  1.00  0.00    -0.146 OA 
HETATM   26  H   UNL     1      -8.335  10.284  65.340  1.00  0.00     0.000 HD 
ENDBRANCH  20  24
BRANCH  23  27
HETATM   27  O   UNL     1     -12.318  11.843  66.523  1.00  0.00    -0.234 OA 
BRANCH  27  28
HETATM   28  C   UNL     1     -12.750  12.823  65.571  1.00  0.00    -0.047 C  
HETATM   29  O   UNL     1     -12.685  14.127  66.131  1.00  0.00    -0.442 OA 
HETATM   30  C   UNL     1     -11.357  14.484  66.521  1.00  0.00    -0.352 C  
HETATM   31  C   UNL     1     -10.456  14.576  65.263  1.00  0.00    -0.390 C  
HETATM   32  C   UNL     1     -11.493  15.781  67.315  1.00  0.00     0.032 C  
HETATM   33  C   UNL     1     -10.477  13.210  64.524  1.00  0.00    -0.405 C  
HETATM   34  H   UNL     1      -9.863  12.485  62.784  1.00  0.00     0.000 HD 
HETATM   35  C   UNL     1     -11.912  12.735  64.286  1.00  0.00    -0.405 C  
HETATM   36  O   UNL     1      -9.850  13.321  63.235  1.00  0.00     1.131 OA 
HETATM   37  O   UNL     1     -11.907  11.402  63.744  1.00  0.00    -0.456 OA 
HETATM   38  H   UNL     1     -11.389  11.346  62.950  1.00  0.00     0.000 HD 
BRANCH  31  39
HETATM   39  N   UNL     1      -9.099  15.037  65.649  1.00  0.00    -0.329 NA 
HETATM   40  H   UNL     1      -8.340  15.107  64.971  1.00  0.00     0.000 HD 
BRANCH  39  41
HETATM   41  C   UNL     1      -8.912  15.391  67.086  1.00  0.00    -0.218 C  
HETATM   42  C   UNL     1      -6.839  14.605  68.310  1.00  0.00    -0.116 C  
HETATM   43  C   UNL     1      -8.029  14.378  67.751  1.00  0.00    -0.166 C  
HETATM   44  C   UNL     1      -6.280  15.997  68.427  1.00  0.00    -0.106 C  
HETATM   45  H   UNL     1      -7.559  18.137  65.856  1.00  0.00     0.000 HD 
HETATM   46  O   UNL     1      -7.887  17.245  65.827  1.00  0.00    -0.495 OA 
HETATM   47  C   UNL     1      -7.285  17.151  68.178  1.00  0.00    -0.193 C  
HETATM   48  O   UNL     1      -5.170  16.094  67.537  1.00  0.00    -0.129 OA 
HETATM   49  H   UNL     1      -8.532  18.234  69.259  1.00  0.00     0.000 HD 
HETATM   50  O   UNL     1      -7.916  17.527  69.412  1.00  0.00     0.057 OA 
HETATM   51  C   UNL     1      -8.372  16.859  67.133  1.00  0.00    -0.193 C  
HETATM   52  H   UNL     1      -4.817  16.973  67.611  1.00  0.00     0.000 HD 
BRANCH  42  53
HETATM   53  C   UNL     1      -5.955  13.503  68.851  1.00  0.00    -0.082 C  
HETATM   54  O   UNL     1      -6.688  12.318  69.145  1.00  0.00    -0.099 OA 
HETATM   55  H   UNL     1      -6.132  11.626  69.485  1.00  0.00     0.000 HD 
ENDBRANCH  42  53
ENDBRANCH  39  41
ENDBRANCH  31  39
ENDBRANCH  27  28
ENDBRANCH  23  27
ENDBRANCH  13  14
ENDBRANCH   4  13
ENDBRANCH   1   4
BRANCH   1  56
HETATM   56  C   UNL     1     -11.045   6.515  69.283  1.00  0.00    -0.334 C  
HETATM   57  O   UNL     1     -11.357   5.418  70.145  1.00  0.00     0.136 OA 
HETATM   58  H   UNL     1     -10.951   4.630  69.801  1.00  0.00     0.000 HD 
ENDBRANCH   1  56
TORSDOF 12
ENDMDL
MODEL      262
REMARK 921   NORMALIZED FREE ENERGY PREDICTED BY IDOCK:    1.49 KCAL/MOL
REMARK 922        TOTAL FREE ENERGY PREDICTED BY IDOCK:   -0.66 KCAL/MOL
REMARK 923 INTER-LIGAND FREE ENERGY PREDICTED BY IDOCK:   -4.49 KCAL/MOL
REMARK 924 INTRA-LIGAND FREE ENERGY PREDICTED BY IDOCK:    3.82 KCAL/MOL
REMARK 927      BINDING AFFINITY PREDICTED BY RF-SCORE:    0.00 PKD
ROOT
HETATM    1  C   UNL     1      -9.522   2.971  66.879  1.00  0.00    -0.045 C  
HETATM    2  H   UNL     1      -9.244   1.193  67.599  1.00  0.00     0.000 HD 
HETATM    3  O   UNL     1      -9.405   1.550  66.733  1.00  0.00    -0.037 OA 
ENDROOT
BRANCH   1   4
HETATM    4  C   UNL     1      -8.293   3.607  67.594  1.00  0.00    -0.093 C  
BRANCH   4   5
HETATM    5  C   UNL     1      -6.948   2.914  67.209  1.00  0.00    -0.046 C  
HETATM    6  O   UNL     1      -6.264   2.412  68.368  1.00  0.00    -0.024 OA 
HETATM    7  H   UNL     1      -5.446   1.990  68.134  1.00  0.00     0.000 HD 
BRANCH   5   8
HETATM    8  C   UNL     1      -5.956   3.807  66.454  1.00  0.00    -0.024 C  
HETATM    9  C   UNL     1      -6.183   5.269  66.770  1.00  0.00    -0.035 C  
HETATM   10  O   UNL     1      -6.169   3.606  65.048  1.00  0.00    -0.023 OA 
HETATM   11  O   UNL     1      -5.612   5.846  67.693  1.00  0.00    -0.011 OA 
HETATM   12  H   UNL     1      -5.555   4.159  64.580  1.00  0.00     0.000 HD 
ENDBRANCH   5   8
ENDBRANCH   4   5
BRANCH   4  13
HETATM   13  O   UNL     1      -8.430   3.621  69.036  1.00  0.00    -0.070 OA 
BRANCH  13  14
HETATM   14  C   UNL     1      -9.767   3.844  69.514  1.00  0.00    -0.121 C  
HETATM   15  H   UNL     1     -10.060   7.741  68.689  1.00  0.00     0.000 HD 
HETATM   16  O   UNL     1     -10.249   5.502  67.723  1.00  0.00    -0.168 OA 
HETATM   17  C   UNL     1     -10.239   5.259  69.138  1.00  0.00    -0.210 C  
HETATM   18  O   UNL     1      -9.902   3.699  70.920  1.00  0.00    -0.174 OA 
HETATM   19  O   UNL     1      -9.942   7.595  69.621  1.00  0.00    -0.180 OA 
HETATM   20  C   UNL     1      -9.059   4.570  71.681  1.00  0.00    -0.131 C  
HETATM   21  H   UNL     1     -10.540   6.377  67.491  1.00  0.00     0.000 HD 
HETATM   22  C   UNL     1      -9.342   6.296  69.801  1.00  0.00    -0.145 C  
HETATM   23  C   UNL     1      -9.150   6.060  71.307  1.00  0.00    -0.143 C  
BRANCH  20  24
HETATM   24  C   UNL     1      -9.372   4.322  73.174  1.00  0.00    -0.113 C  
HETATM   25  O   UNL     1      -8.324   3.659  73.884  1.00  0.00    -0.082 OA 
HETATM   26  H   UNL     1      -8.517   3.507  74.802  1.00  0.00     0.000 HD 
ENDBRANCH  20  24
BRANCH  23  27
HETATM   27  O   UNL     1      -7.913   6.668  71.773  1.00  0.00    -0.102 OA 
BRANCH  27  28
HETATM   28  C   UNL     1      -8.119   7.743  72.698  1.00  0.00    -0.121 C  
HETATM   29  O   UNL     1      -7.144   8.757  72.512  1.00  0.00    -0.299 OA 
HETATM   30  C   UNL     1      -7.192   9.324  71.200  1.00  0.00    -0.033 C  
HETATM   31  C   UNL     1      -8.539  10.066  71.007  1.00  0.00     1.365 C  
HETATM   32  C   UNL     1      -5.948  10.201  71.081  1.00  0.00     0.011 C  
HETATM   33  C   UNL     1      -9.705   9.064  71.232  1.00  0.00    -0.301 C  
HETATM   34  H   UNL     1     -11.677   9.144  71.433  1.00  0.00     0.000 HD 
HETATM   35  C   UNL     1      -9.539   8.313  72.555  1.00  0.00    -0.295 C  
HETATM   36  O   UNL     1     -10.964   9.757  71.295  1.00  0.00    -0.351 OA 
HETATM   37  O   UNL     1     -10.540   7.285  72.667  1.00  0.00    -0.226 OA 
HETATM   38  H   UNL     1     -11.418   7.637  72.579  1.00  0.00     0.000 HD 
BRANCH  31  39
HETATM   39  N   UNL     1      -8.560  10.734  69.682  1.00  0.00    -0.362 NA 
HETATM   40  H   UNL     1      -9.290  11.398  69.423  1.00  0.00     0.000 HD 
BRANCH  39  41
HETATM   41  C   UNL     1      -7.450  10.377  68.751  1.00  0.00    -0.093 C  
HETATM   42  C   UNL     1      -7.986   9.421  66.469  1.00  0.00    -0.108 C  
HETATM   43  C   UNL     1      -7.904   9.315  67.796  1.00  0.00    -0.092 C  
HETATM   44  C   UNL     1      -7.506  10.652  65.749  1.00  0.00    -0.114 C  
HETATM   45  H   UNL     1      -7.673  13.544  67.855  1.00  0.00     0.000 HD 
HETATM   46  O   UNL     1      -7.964  12.738  68.266  1.00  0.00    -0.139 OA 
HETATM   47  C   UNL     1      -6.622  11.618  66.580  1.00  0.00    -0.040 C  
HETATM   48  O   UNL     1      -8.650  11.330  65.237  1.00  0.00    -0.379 OA 
HETATM   49  H   UNL     1      -4.697  11.847  66.958  1.00  0.00     0.000 HD 
HETATM   50  O   UNL     1      -5.238  11.255  66.448  1.00  0.00    -0.109 OA 
HETATM   51  C   UNL     1      -6.972  11.704  68.073  1.00  0.00    -0.078 C  
HETATM   52  H   UNL     1      -8.346  12.107  64.783  1.00  0.00     0.000 HD 
BRANCH  42  53
HETATM   53  C   UNL     1      -8.574   8.342  65.587  1.00  0.00    -0.174 C  
HETATM   54  O   UNL     1      -8.549   8.699  64.208  1.00  0.00    -0.340 OA 
HETATM   55  H   UNL     1      -8.919   8.021  63.654  1.00  0.00     0.000 HD 
ENDBRANCH  42  53
ENDBRANCH  39  41
ENDBRANCH  31  39
ENDBRANCH  27  28
ENDBRANCH  23  27
ENDBRANCH  13  14
ENDBRANCH   4  13
ENDBRANCH   1   4
BRANCH   1  56
HETATM   56  C   UNL     1      -9.780   3.546  65.484  1.00  0.00    -0.077 C  
HETATM   57  O   UNL     1      -9.336   4.905  65.454  1.00  0.00    -0.157 OA 
HETATM   58  H   UNL     1      -9.496   5.262  64.588  1.00  0.00     0.000 HD 
ENDBRANCH   1  56
TORSDOF 12
ENDMDL
MODEL      263
REMARK 921   NORMALIZED FREE ENERGY PREDICTED BY IDOCK:    1.73 KCAL/MOL
REMARK 922        TOTAL FREE ENERGY PREDICTED BY IDOCK:   -0.24 KCAL/MOL
REMARK 923 INTER-LIGAND FREE ENERGY PREDICTED BY IDOCK:   -4.82 KCAL/MOL
REMARK 924 INTRA-LIGAND FREE ENERGY PREDICTED BY IDOCK:    4.58 KCAL/MOL
REMARK 927      BINDING AFFINITY PREDICTED BY RF-SCORE:    0.00 PKD
ROOT
HETATM    1  C   UNL     1     -12.071  13.241  66.388  1.00  0.00    -0.394 C  
HETATM    2  H   UNL     1     -11.571  11.396  66.065  1.00  0.00     0.000 HD 
HETATM    3  O   UNL     1     -12.353  11.915  65.921  1.00  0.00    -0.340 OA 
ENDROOT
BRANCH   1   4
HETATM    4  C   UNL     1     -10.793  13.850  65.737  1.00  0.00    -0.289 C  
BRANCH   4   5
HETATM    5  C   UNL     1     -10.185  12.931  64.631  1.00  0.00    -0.298 C  
HETATM    6  O   UNL     1     -10.023  13.637  63.392  1.00  0.00     0.642 OA 
HETATM    7  H   UNL     1      -9.653  13.078  62.719  1.00  0.00     0.000 HD 
BRANCH   5   8
HETATM    8  C   UNL     1     -11.000  11.668  64.325  1.00  0.00    -0.355 C  
HETATM    9  C   UNL     1     -10.214  10.702  63.467  1.00  0.00    -0.134 C  
HETATM   10  O   UNL     1     -12.175  12.069  63.603  1.00  0.00    -0.506 OA 
HETATM   11  O   UNL     1      -9.499   9.822  63.940  1.00  0.00    -0.232 OA 
HETATM   12  H   UNL     1     -12.679  11.287  63.414  1.00  0.00     0.000 HD 
ENDBRANCH   5   8
ENDBRANCH   4   5
BRANCH   4  13
HETATM   13  O   UNL     1      -9.769  14.171  66.710  1.00  0.00    -0.258 OA 
BRANCH  13  14
HETATM   14  C   UNL     1      -9.949  13.561  68.000  1.00  0.00    -0.248 C  
HETATM   15  H   UNL     1      -6.283  14.162  69.466  1.00  0.00     0.000 HD 
HETATM   16  O   UNL     1      -8.461  15.216  69.112  1.00  0.00    -0.199 OA 
HETATM   17  C   UNL     1      -8.721  13.821  68.888  1.00  0.00     0.148 C  
HETATM   18  O   UNL     1     -10.156  12.158  67.943  1.00  0.00    -0.188 OA 
HETATM   19  O   UNL     1      -6.408  13.254  69.217  1.00  0.00    -0.098 OA 
HETATM   20  C   UNL     1      -9.097  11.436  67.308  1.00  0.00    -0.162 C  
HETATM   21  H   UNL     1      -7.701  15.377  69.660  1.00  0.00     0.000 HD 
HETATM   22  C   UNL     1      -7.484  13.194  68.258  1.00  0.00    -0.129 C  
HETATM   23  C   UNL     1      -7.687  11.725  67.855  1.00  0.00    -0.125 C  
BRANCH  20  24
HETATM   24  C   UNL     1      -9.455   9.934  67.383  1.00  0.00    -0.149 C  
HETATM   25  O   UNL     1     -10.662   9.661  68.098  1.00  0.00    -0.241 OA 
HETATM   26  H   UNL     1     -10.882   8.738  68.144  1.00  0.00     0.000 HD 
ENDBRANCH  20  24
BRANCH  23  27
HETATM   27  O   UNL     1      -6.760  11.345  66.799  1.00  0.00    -0.133 OA 
BRANCH  27  28
HETATM   28  C   UNL     1      -5.498  10.880  67.290  1.00  0.00    -0.044 C  
HETATM   29  O   UNL     1      -5.520  10.773  68.706  1.00  0.00    -0.041 OA 
HETATM   30  C   UNL     1      -6.511   9.850  69.165  1.00  0.00    -0.048 C  
HETATM   31  C   UNL     1      -6.143   8.420  68.692  1.00  0.00    -0.045 C  
HETATM   32  C   UNL     1      -6.577  10.033  70.680  1.00  0.00    -0.088 C  
HETATM   33  C   UNL     1      -6.040   8.411  67.143  1.00  0.00    -0.055 C  
HETATM   34  H   UNL     1      -5.412   7.167  65.731  1.00  0.00     0.000 HD 
HETATM   35  C   UNL     1      -5.129   9.535  66.644  1.00  0.00    -0.040 C  
HETATM   36  O   UNL     1      -5.474   7.173  66.679  1.00  0.00    -0.021 OA 
HETATM   37  O   UNL     1      -5.173   9.605  65.207  1.00  0.00    -0.042 OA 
HETATM   38  H   UNL     1      -4.946   8.774  64.807  1.00  0.00     0.000 HD 
BRANCH  31  39
HETATM   39  N   UNL     1      -7.115   7.444  69.242  1.00  0.00    -0.072 NA 
HETATM   40  H   UNL     1      -6.816   6.575  69.685  1.00  0.00     0.000 HD 
BRANCH  39  41
HETATM   41  C   UNL     1      -8.557   7.807  69.109  1.00  0.00    -0.138 C  
HETATM   42  C   UNL     1     -10.088   6.366  67.699  1.00  0.00    -0.181 C  
HETATM   43  C   UNL     1      -9.106   7.259  67.827  1.00  0.00    -0.124 C  
HETATM   44  C   UNL     1     -10.855   5.868  68.894  1.00  0.00    -0.303 C  
HETATM   45  H   UNL     1      -8.881   6.044  71.878  1.00  0.00     0.000 HD 
HETATM   46  O   UNL     1      -8.441   6.351  71.094  1.00  0.00    -0.122 OA 
HETATM   47  C   UNL     1     -10.674   6.685  70.200  1.00  0.00    -0.239 C  
HETATM   48  O   UNL     1     -10.500   4.503  69.101  1.00  0.00     0.120 OA 
HETATM   49  H   UNL     1     -11.547   8.230  71.066  1.00  0.00     0.000 HD 
HETATM   50  O   UNL     1     -11.658   7.730  70.266  1.00  0.00    -0.181 OA 
HETATM   51  C   UNL     1      -9.282   7.301  70.400  1.00  0.00    -0.158 C  
HETATM   52  H   UNL     1     -10.984   4.190  69.855  1.00  0.00     0.000 HD 
BRANCH  42  53
HETATM   53  C   UNL     1     -10.499   5.770  66.371  1.00  0.00    -0.157 C  
HETATM   54  O   UNL     1      -9.860   4.523  66.118  1.00  0.00    -0.186 OA 
HETATM   55  H   UNL     1     -10.118   4.149  65.284  1.00  0.00     0.000 HD 
ENDBRANCH  42  53
ENDBRANCH  39  41
ENDBRANCH  31  39
ENDBRANCH  27  28
ENDBRANCH  23  27
ENDBRANCH  13  14
ENDBRANCH   4  13
ENDBRANCH   1   4
BRANCH   1  56
HETATM   56  C   UNL     1     -13.331  14.077  66.154  1.00  0.00     1.194 C  
HETATM   57  O   UNL     1     -13.122  14.923  65.020  1.00  0.00    -0.162 OA 
HETATM   58  H   UNL     1     -13.905  15.442  64.875  1.00  0.00     0.000 HD 
ENDBRANCH   1  56
TORSDOF 12
ENDMDL
MODEL      264
REMARK 921   NORMALIZED FREE ENERGY PREDICTED BY IDOCK:    1.74 KCAL/MOL
REMARK 922        TOTAL FREE ENERGY PREDICTED BY IDOCK:   -0.24 KCAL/MOL
REMARK 923 INTER-LIGAND FREE ENERGY PREDICTED BY IDOCK:   -3.04 KCAL/MOL
REMARK 924 INTRA-LIGAND FREE ENERGY PREDICTED BY IDOCK:    2.80 KCAL/MOL
REMARK 927      BINDING AFFINITY PREDICTED BY RF-SCORE:    0.00 PKD
ROOT
HETATM    1  C   UNL     1     -11.533  16.381  68.123  1.00  0.00    -0.108 C  
HETATM    2  H   UNL     1     -12.246  17.607  69.444  1.00  0.00     0.000 HD 
HETATM    3  O   UNL     1     -12.208  17.590  68.494  1.00  0.00     1.816 OA 
ENDROOT
BRANCH   1   4
HETATM    4  C   UNL     1     -12.189  15.110  68.740  1.00  0.00    -0.069 C  
BRANCH   4   5
HETATM    5  C   UNL     1     -12.617  15.317  70.227  1.00  0.00    -0.347 C  
HETATM    6  O   UNL     1     -11.970  16.460  70.807  1.00  0.00    -0.489 OA 
HETATM    7  H   UNL     1     -12.231  16.586  71.711  1.00  0.00     0.000 HD 
BRANCH   5   8
HETATM    8  C   UNL     1     -12.334  14.124  71.150  1.00  0.00    -0.372 C  
HETATM    9  C   UNL     1     -13.203  14.169  72.387  1.00  0.00    -0.472 C  
HETATM   10  O   UNL     1     -10.958  14.203  71.555  1.00  0.00     0.630 OA 
HETATM   11  O   UNL     1     -14.306  13.629  72.445  1.00  0.00    -0.661 OA 
HETATM   12  H   UNL     1     -10.783  13.464  72.127  1.00  0.00     0.000 HD 
ENDBRANCH   5   8
ENDBRANCH   4   5
BRANCH   4  13
HETATM   13  O   UNL     1     -11.340  13.940  68.644  1.00  0.00    -0.245 OA 
BRANCH  13  14
HETATM   14  C   UNL     1     -10.731  13.740  67.357  1.00  0.00    -0.275 C  
HETATM   15  H   UNL     1      -9.976   9.829  67.650  1.00  0.00     0.000 HD 
HETATM   16  O   UNL     1     -11.714  11.466  67.123  1.00  0.00    -0.556 OA 
HETATM   17  C   UNL     1     -10.504  12.240  67.102  1.00  0.00    -0.219 C  
HETATM   18  O   UNL     1      -9.483  14.401  67.208  1.00  0.00    -0.204 OA 
HETATM   19  O   UNL     1      -9.181  10.341  67.749  1.00  0.00    -0.140 OA 
HETATM   20  C   UNL     1      -8.500  14.019  68.176  1.00  0.00    -0.172 C  
HETATM   21  H   UNL     1     -11.573  10.539  66.966  1.00  0.00     0.000 HD 
HETATM   22  C   UNL     1      -9.551  11.676  68.148  1.00  0.00    -0.190 C  
HETATM   23  C   UNL     1      -8.266  12.503  68.308  1.00  0.00    -0.168 C  
BRANCH  20  24
HETATM   24  C   UNL     1      -7.200  14.783  67.835  1.00  0.00    -0.156 C  
HETATM   25  O   UNL     1      -6.026  14.219  68.422  1.00  0.00    -0.087 OA 
HETATM   26  H   UNL     1      -5.227  14.689  68.212  1.00  0.00     0.000 HD 
ENDBRANCH  20  24
BRANCH  23  27
HETATM   27  O   UNL     1      -7.680  12.300  69.625  1.00  0.00     0.591 OA 
BRANCH  27  28
HETATM   28  C   UNL     1      -6.347  11.778  69.581  1.00  0.00    -0.129 C  
HETATM   29  O   UNL     1      -6.071  11.012  70.743  1.00  0.00    -0.321 OA 
HETATM   30  C   UNL     1      -6.951   9.893  70.878  1.00  0.00     0.096 C  
HETATM   31  C   UNL     1      -6.705   8.900  69.713  1.00  0.00    -0.045 C  
HETATM   32  C   UNL     1      -6.694   9.329  72.273  1.00  0.00     0.351 C  
HETATM   33  C   UNL     1      -6.932   9.636  68.365  1.00  0.00    -0.065 C  
HETATM   34  H   UNL     1      -6.627   9.275  66.438  1.00  0.00     0.000 HD 
HETATM   35  C   UNL     1      -6.137  10.942  68.308  1.00  0.00    -0.049 C  
HETATM   36  O   UNL     1      -6.489   8.825  67.263  1.00  0.00    -0.056 OA 
HETATM   37  O   UNL     1      -6.482  11.680  67.123  1.00  0.00    -0.108 OA 
HETATM   38  H   UNL     1      -6.352  11.164  66.336  1.00  0.00     0.000 HD 
BRANCH  31  39
HETATM   39  N   UNL     1      -7.548   7.693  69.895  1.00  0.00    -0.090 NA 
HETATM   40  H   UNL     1      -8.126   7.557  70.726  1.00  0.00     0.000 HD 
BRANCH  39  41
HETATM   41  C   UNL     1      -7.502   6.688  68.793  1.00  0.00    -0.096 C  
HETATM   42  C   UNL     1      -7.334   4.224  69.348  1.00  0.00    -0.051 C  
HETATM   43  C   UNL     1      -6.807   5.446  69.261  1.00  0.00    -0.054 C  
HETATM   44  C   UNL     1      -8.727   3.934  68.860  1.00  0.00    -0.094 C  
HETATM   45  H   UNL     1     -10.790   6.859  68.991  1.00  0.00     0.000 HD 
HETATM   46  O   UNL     1      -9.897   6.992  69.287  1.00  0.00    -0.157 OA 
HETATM   47  C   UNL     1      -9.368   5.025  67.964  1.00  0.00    -0.125 C  
HETATM   48  O   UNL     1      -9.542   3.676  70.000  1.00  0.00    -0.188 OA 
HETATM   49  H   UNL     1      -9.450   5.442  66.035  1.00  0.00     0.000 HD 
HETATM   50  O   UNL     1      -9.057   4.774  66.584  1.00  0.00    -0.113 OA 
HETATM   51  C   UNL     1      -8.973   6.469  68.306  1.00  0.00    -0.121 C  
HETATM   52  H   UNL     1     -10.422   3.493  69.691  1.00  0.00     0.000 HD 
BRANCH  42  53
HETATM   53  C   UNL     1      -6.600   3.046  69.950  1.00  0.00    -0.033 C  
HETATM   54  O   UNL     1      -6.906   1.823  69.288  1.00  0.00    -0.032 OA 
HETATM   55  H   UNL     1      -6.446   1.083  69.667  1.00  0.00     0.000 HD 
ENDBRANCH  42  53
ENDBRANCH  39  41
ENDBRANCH  31  39
ENDBRANCH  27  28
ENDBRANCH  23  27
ENDBRANCH  13  14
ENDBRANCH   4  13
ENDBRANCH   1   4
BRANCH   1  56
HETATM   56  C   UNL     1     -11.472  16.353  66.593  1.00  0.00     0.661 C  
HETATM   57  O   UNL     1     -10.254  16.969  66.167  1.00  0.00    -0.324 OA 
HETATM   58  H   UNL     1     -10.216  16.952  65.218  1.00  0.00     0.000 HD 
ENDBRANCH   1  56
TORSDOF 12
ENDMDL
MODEL      265
REMARK 921   NORMALIZED FREE ENERGY PREDICTED BY IDOCK:    1.87 KCAL/MOL
REMARK 922        TOTAL FREE ENERGY PREDICTED BY IDOCK:   -0.02 KCAL/MOL
REMARK 923 INTER-LIGAND FREE ENERGY PREDICTED BY IDOCK:   -4.92 KCAL/MOL
REMARK 924 INTRA-LIGAND FREE ENERGY PREDICTED BY IDOCK:    4.90 KCAL/MOL
REMARK 927      BINDING AFFINITY PREDICTED BY RF-SCORE:    0.00 PKD
ROOT
HETATM    1  C   UNL     1      -9.225   5.190  72.534  1.00  0.00    -0.132 C  
HETATM    2  H   UNL     1      -7.340   5.581  72.763  1.00  0.00     0.000 HD 
HETATM    3  O   UNL     1      -7.898   4.832  72.940  1.00  0.00    -0.091 OA 
ENDROOT
BRANCH   1   4
HETATM    4  C   UNL     1      -9.293   5.678  71.056  1.00  0.00    -0.153 C  
BRANCH   4   5
HETATM    5  C   UNL     1      -8.878   4.571  70.038  1.00  0.00    -0.082 C  
HETATM    6  O   UNL     1      -9.559   4.727  68.783  1.00  0.00    -0.141 OA 
HETATM    7  H   UNL     1      -9.306   4.054  68.163  1.00  0.00     0.000 HD 
BRANCH   5   8
HETATM    8  C   UNL     1      -9.133   3.134  70.511  1.00  0.00    -0.123 C  
HETATM    9  C   UNL     1      -7.837   2.371  70.673  1.00  0.00    -0.042 C  
HETATM   10  O   UNL     1      -9.926   2.478  69.508  1.00  0.00     0.233 OA 
HETATM   11  O   UNL     1      -7.212   2.341  71.731  1.00  0.00    -0.034 OA 
HETATM   12  H   UNL     1     -10.084   1.588  69.801  1.00  0.00     0.000 HD 
ENDBRANCH   5   8
ENDBRANCH   4   5
BRANCH   4  13
HETATM   13  O   UNL     1      -8.498   6.866  70.823  1.00  0.00    -0.132 OA 
BRANCH  13  14
HETATM   14  C   UNL     1      -9.002   8.062  71.442  1.00  0.00    -0.141 C  
HETATM   15  H   UNL     1     -12.192   8.648  69.112  1.00  0.00     0.000 HD 
HETATM   16  O   UNL     1     -11.368   7.401  71.048  1.00  0.00    -0.262 OA 
HETATM   17  C   UNL     1     -10.378   8.425  70.859  1.00  0.00    -0.194 C  
HETATM   18  O   UNL     1      -8.151   9.188  71.284  1.00  0.00    -0.285 OA 
HETATM   19  O   UNL     1     -11.498   9.262  68.904  1.00  0.00     0.222 OA 
HETATM   20  C   UNL     1      -7.883   9.531  69.921  1.00  0.00    -0.138 C  
HETATM   21  H   UNL     1     -12.218   7.625  70.687  1.00  0.00     0.000 HD 
HETATM   22  C   UNL     1     -10.250   8.706  69.368  1.00  0.00    -0.210 C  
HETATM   23  C   UNL     1      -9.127   9.698  69.031  1.00  0.00    -0.148 C  
BRANCH  20  24
HETATM   24  C   UNL     1      -6.998  10.799  69.933  1.00  0.00    -0.123 C  
HETATM   25  O   UNL     1      -5.970  10.779  70.925  1.00  0.00    -0.285 OA 
HETATM   26  H   UNL     1      -5.426  11.559  70.931  1.00  0.00     0.000 HD 
ENDBRANCH  20  24
BRANCH  23  27
HETATM   27  O   UNL     1      -8.669   9.516  67.661  1.00  0.00    -0.122 OA 
BRANCH  27  28
HETATM   28  C   UNL     1      -8.401  10.748  66.981  1.00  0.00    -0.129 C  
HETATM   29  O   UNL     1      -7.037  10.818  66.592  1.00  0.00    -0.117 OA 
HETATM   30  C   UNL     1      -6.673   9.763  65.698  1.00  0.00    -0.092 C  
HETATM   31  C   UNL     1      -7.447   9.925  64.365  1.00  0.00    -0.137 C  
HETATM   32  C   UNL     1      -5.153   9.832  65.575  1.00  0.00    -0.039 C  
HETATM   33  C   UNL     1      -8.972   9.911  64.661  1.00  0.00    -0.222 C  
HETATM   34  H   UNL     1     -10.652  10.283  63.674  1.00  0.00     0.000 HD 
HETATM   35  C   UNL     1      -9.329  10.907  65.767  1.00  0.00    -0.203 C  
HETATM   36  O   UNL     1      -9.719  10.291  63.493  1.00  0.00    -0.298 OA 
HETATM   37  O   UNL     1     -10.713  10.765  66.131  1.00  0.00    -0.210 OA 
HETATM   38  H   UNL     1     -11.287  10.864  65.381  1.00  0.00     0.000 HD 
BRANCH  31  39
HETATM   39  N   UNL     1      -7.007   8.888  63.399  1.00  0.00    -0.089 NA 
HETATM   40  H   UNL     1      -6.851   9.100  62.414  1.00  0.00     0.000 HD 
BRANCH  39  41
HETATM   41  C   UNL     1      -6.806   7.518  63.955  1.00  0.00    -0.054 C  
HETATM   42  C   UNL     1      -7.768   6.930  66.222  1.00  0.00    -0.094 C  
HETATM   43  C   UNL     1      -6.878   7.557  65.451  1.00  0.00    -0.048 C  
HETATM   44  C   UNL     1      -8.784   5.987  65.637  1.00  0.00    -0.137 C  
HETATM   45  H   UNL     1      -9.532   6.817  62.235  1.00  0.00     0.000 HD 
HETATM   46  O   UNL     1      -8.892   7.384  62.648  1.00  0.00     0.300 OA 
HETATM   47  C   UNL     1      -8.523   5.534  64.178  1.00  0.00    -0.053 C  
HETATM   48  O   UNL     1     -10.065   6.601  65.753  1.00  0.00    -0.116 OA 
HETATM   49  H   UNL     1      -7.561   4.065  63.274  1.00  0.00     0.000 HD 
HETATM   50  O   UNL     1      -7.720   4.343  64.169  1.00  0.00    -0.076 OA 
HETATM   51  C   UNL     1      -7.862   6.585  63.274  1.00  0.00    -0.104 C  
HETATM   52  H   UNL     1     -10.706   6.005  65.384  1.00  0.00     0.000 HD 
BRANCH  42  53
HETATM   53  C   UNL     1      -7.848   7.122  67.720  1.00  0.00    -0.114 C  
HETATM   54  O   UNL     1      -6.563   7.285  68.312  1.00  0.00    -0.046 OA 
HETATM   55  H   UNL     1      -6.613   7.405  69.254  1.00  0.00     0.000 HD 
ENDBRANCH  42  53
ENDBRANCH  39  41
ENDBRANCH  31  39
ENDBRANCH  27  28
ENDBRANCH  23  27
ENDBRANCH  13  14
ENDBRANCH   4  13
ENDBRANCH   1   4
BRANCH   1  56
HETATM   56  C   UNL     1     -10.122   3.983  72.818  1.00  0.00    -0.159 C  
HETATM   57  O   UNL     1     -11.372   4.446  73.337  1.00  0.00    -0.300 OA 
HETATM   58  H   UNL     1     -11.929   3.696  73.513  1.00  0.00     0.000 HD 
ENDBRANCH   1  56
TORSDOF 12
ENDMDL
MODEL      266
REMARK 921   NORMALIZED FREE ENERGY PREDICTED BY IDOCK:    2.20 KCAL/MOL
REMARK 922        TOTAL FREE ENERGY PREDICTED BY IDOCK:    0.55 KCAL/MOL
REMARK 923 INTER-LIGAND FREE ENERGY PREDICTED BY IDOCK:   -7.23 KCAL/MOL
REMARK 924 INTRA-LIGAND FREE ENERGY PREDICTED BY IDOCK:    7.77 KCAL/MOL
REMARK 927      BINDING AFFINITY PREDICTED BY RF-SCORE:    0.00 PKD
ROOT
HETATM    1  C   UNL     1      -5.727   4.337  65.876  1.00  0.00    -0.022 C  
HETATM    2  H   UNL     1      -7.221   4.928  64.792  1.00  0.00     0.000 HD 
HETATM    3  O   UNL     1      -6.867   4.083  65.044  1.00  0.00    -0.047 OA 
ENDROOT
BRANCH   1   4
HETATM    4  C   UNL     1      -6.059   5.257  67.089  1.00  0.00    -0.030 C  
BRANCH   4   5
HETATM    5  C   UNL     1      -6.882   4.523  68.193  1.00  0.00    -0.055 C  
HETATM    6  O   UNL     1      -6.089   3.540  68.875  1.00  0.00    -0.026 OA 
HETATM    7  H   UNL     1      -6.590   3.093  69.547  1.00  0.00     0.000 HD 
BRANCH   5   8
HETATM    8  C   UNL     1      -8.143   3.810  67.687  1.00  0.00    -0.089 C  
HETATM    9  C   UNL     1      -8.184   2.371  68.151  1.00  0.00    -0.058 C  
HETATM   10  O   UNL     1      -8.108   3.826  66.251  1.00  0.00    -0.099 OA 
HETATM   11  O   UNL     1      -8.716   2.027  69.205  1.00  0.00    -0.063 OA 
HETATM   12  H   UNL     1      -8.889   3.384  65.939  1.00  0.00     0.000 HD 
ENDBRANCH   5   8
ENDBRANCH   4   5
BRANCH   4  13
HETATM   13  O   UNL     1      -6.752   6.468  66.698  1.00  0.00    -0.053 OA 
BRANCH  13  14
HETATM   14  C   UNL     1      -7.598   6.335  65.544  1.00  0.00    -0.087 C  
HETATM   15  H   UNL     1      -6.844   9.864  63.833  1.00  0.00     0.000 HD 
HETATM   16  O   UNL     1      -6.005   7.582  64.096  1.00  0.00    -0.046 OA 
HETATM   17  C   UNL     1      -7.359   7.501  64.570  1.00  0.00    -0.087 C  
HETATM   18  O   UNL     1      -8.984   6.303  65.854  1.00  0.00    -0.156 OA 
HETATM   19  O   UNL     1      -7.701   9.857  64.242  1.00  0.00    -0.129 OA 
HETATM   20  C   UNL     1      -9.452   7.458  66.557  1.00  0.00    -0.172 C  
HETATM   21  H   UNL     1      -5.857   8.302  63.494  1.00  0.00     0.000 HD 
HETATM   22  C   UNL     1      -7.715   8.819  65.244  1.00  0.00    -0.098 C  
HETATM   23  C   UNL     1      -9.102   8.808  65.906  1.00  0.00    -0.218 C  
BRANCH  20  24
HETATM   24  C   UNL     1     -10.975   7.285  66.760  1.00  0.00     0.093 C  
HETATM   25  O   UNL     1     -11.350   6.005  67.273  1.00  0.00    -0.478 OA 
HETATM   26  H   UNL     1     -12.286   5.900  67.398  1.00  0.00     0.000 HD 
ENDBRANCH  20  24
BRANCH  23  27
HETATM   27  O   UNL     1      -9.176   9.799  66.969  1.00  0.00    -0.140 OA 
BRANCH  27  28
HETATM   28  C   UNL     1      -8.427  10.989  66.691  1.00  0.00    -0.153 C  
HETATM   29  O   UNL     1      -8.945  11.650  65.547  1.00  0.00    -0.109 OA 
HETATM   30  C   UNL     1     -10.308  12.048  65.719  1.00  0.00    -0.254 C  
HETATM   31  C   UNL     1     -10.396  13.118  66.837  1.00  0.00    -0.247 C  
HETATM   32  C   UNL     1     -10.782  12.509  64.343  1.00  0.00    -0.379 C  
HETATM   33  C   UNL     1      -9.811  12.529  68.149  1.00  0.00    -0.221 C  
HETATM   34  H   UNL     1      -9.298  13.196  69.945  1.00  0.00     0.000 HD 
HETATM   35  C   UNL     1      -8.426  11.922  67.912  1.00  0.00    -0.154 C  
HETATM   36  O   UNL     1      -9.656  13.557  69.143  1.00  0.00     0.181 OA 
HETATM   37  O   UNL     1      -7.973  11.247  69.099  1.00  0.00    -0.306 OA 
HETATM   38  H   UNL     1      -7.971  11.824  69.853  1.00  0.00     0.000 HD 
BRANCH  31  39
HETATM   39  N   UNL     1     -11.793  13.603  66.959  1.00  0.00    -0.388 NA 
HETATM   40  H   UNL     1     -12.593  12.975  66.870  1.00  0.00     0.000 HD 
BRANCH  39  41
HETATM   41  C   UNL     1     -11.959  15.063  67.220  1.00  0.00    -0.025 C  
HETATM   42  C   UNL     1     -11.220  16.032  69.439  1.00  0.00    -0.349 C  
HETATM   43  C   UNL     1     -12.060  15.311  68.694  1.00  0.00    -0.160 C  
HETATM   44  C   UNL     1     -10.082  16.796  68.820  1.00  0.00    -0.286 C  
HETATM   45  H   UNL     1      -9.014  15.289  65.751  1.00  0.00     0.000 HD 
HETATM   46  O   UNL     1      -9.735  14.843  66.181  1.00  0.00    -0.271 OA 
HETATM   47  C   UNL     1     -10.144  16.970  67.280  1.00  0.00    -0.295 C  
HETATM   48  O   UNL     1      -8.869  16.156  69.206  1.00  0.00    -0.247 OA 
HETATM   49  H   UNL     1     -10.894  18.279  66.006  1.00  0.00     0.000 HD 
HETATM   50  O   UNL     1     -10.856  18.173  66.949  1.00  0.00    -0.277 OA 
HETATM   51  C   UNL     1     -10.771  15.796  66.513  1.00  0.00    -0.283 C  
HETATM   52  H   UNL     1      -8.150  16.639  68.815  1.00  0.00     0.000 HD 
BRANCH  42  53
HETATM   53  C   UNL     1     -11.324  16.130  70.945  1.00  0.00    -0.359 C  
HETATM   54  O   UNL     1     -11.141  14.870  71.582  1.00  0.00    -0.562 OA 
HETATM   55  H   UNL     1     -11.206  14.931  72.528  1.00  0.00     0.000 HD 
ENDBRANCH  42  53
ENDBRANCH  39  41
ENDBRANCH  31  39
ENDBRANCH  27  28
ENDBRANCH  23  27
ENDBRANCH  13  14
ENDBRANCH   4  13
ENDBRANCH   1   4
BRANCH   1  56
HETATM   56  C   UNL     1      -5.157   2.976  66.282  1.00  0.00    -0.008 C  
HETATM   57  O   UNL     1      -5.769   1.960  65.484  1.00  0.00    -0.015 OA 
HETATM   58  H   UNL     1      -5.414   1.115  65.736  1.00  0.00     0.000 HD 
ENDBRANCH   1  56
TORSDOF 12
ENDMDL
MODEL      267
REMARK 921   NORMALIZED FREE ENERGY PREDICTED BY IDOCK:    2.47 KCAL/MOL
REMARK 922        TOTAL FREE ENERGY PREDICTED BY IDOCK:    1.00 KCAL/MOL
REMARK 923 INTER-LIGAND FREE ENERGY PREDICTED BY IDOCK:   -5.85 KCAL/MOL
REMARK 924 INTRA-LIGAND FREE ENERGY PREDICTED BY IDOCK:    6.85 KCAL/MOL
REMARK 927      BINDING AFFINITY PREDICTED BY RF-SCORE:    0.00 PKD
ROOT
HETATM    1  C   UNL     1     -10.691   6.344  69.477  1.00  0.00    -0.289 C  
HETATM    2  H   UNL     1     -12.148   7.431  70.151  1.00  0.00     0.000 HD 
HETATM    3  O   UNL     1     -11.823   6.556  70.331  1.00  0.00    -0.400 OA 
ENDROOT
BRANCH   1   4
HETATM    4  C   UNL     1      -9.605   7.452  69.630  1.00  0.00    -0.156 C  
BRANCH   4   5
HETATM    5  C   UNL     1      -9.099   7.598  71.099  1.00  0.00    -0.146 C  
HETATM    6  O   UNL     1     -10.076   7.132  72.041  1.00  0.00    -0.178 OA 
HETATM    7  H   UNL     1      -9.768   7.221  72.936  1.00  0.00     0.000 HD 
BRANCH   5   8
HETATM    8  C   UNL     1      -8.725   9.028  71.511  1.00  0.00    -0.075 C  
HETATM    9  C   UNL     1      -8.363   9.100  72.977  1.00  0.00     1.308 C  
HETATM   10  O   UNL     1      -9.871   9.863  71.282  1.00  0.00    -0.183 OA 
HETATM   11  O   UNL     1      -7.213   8.951  73.386  1.00  0.00    -0.359 OA 
HETATM   12  H   UNL     1      -9.639  10.748  71.536  1.00  0.00     0.000 HD 
ENDBRANCH   5   8
ENDBRANCH   4   5
BRANCH   4  13
HETATM   13  O   UNL     1     -10.051   8.741  69.145  1.00  0.00    -0.187 OA 
BRANCH  13  14
HETATM   14  C   UNL     1     -10.719   8.711  67.872  1.00  0.00    -0.093 C  
HETATM   15  H   UNL     1      -7.504   8.716  65.503  1.00  0.00     0.000 HD 
HETATM   16  O   UNL     1      -8.953   7.284  66.855  1.00  0.00    -0.125 OA 
HETATM   17  C   UNL     1      -9.699   8.506  66.739  1.00  0.00    -0.236 C  
HETATM   18  O   UNL     1     -11.456   9.891  67.586  1.00  0.00    -0.106 OA 
HETATM   19  O   UNL     1      -7.929   9.565  65.506  1.00  0.00    -0.108 OA 
HETATM   20  C   UNL     1     -10.669  11.087  67.592  1.00  0.00    -0.238 C  
HETATM   21  H   UNL     1      -8.323   7.157  66.155  1.00  0.00     0.000 HD 
HETATM   22  C   UNL     1      -8.718   9.670  66.709  1.00  0.00    -0.134 C  
HETATM   23  C   UNL     1      -9.406  11.044  66.714  1.00  0.00    -0.181 C  
BRANCH  20  24
HETATM   24  C   UNL     1     -11.607  12.255  67.210  1.00  0.00    -0.357 C  
HETATM   25  O   UNL     1     -12.723  11.864  66.408  1.00  0.00     0.915 OA 
HETATM   26  H   UNL     1     -13.300  12.582  66.174  1.00  0.00     0.000 HD 
ENDBRANCH  20  24
BRANCH  23  27
HETATM   27  O   UNL     1      -8.515  12.067  67.240  1.00  0.00    -0.160 OA 
BRANCH  27  28
HETATM   28  C   UNL     1      -9.176  13.020  68.082  1.00  0.00    -0.212 C  
HETATM   29  O   UNL     1      -8.295  13.493  69.090  1.00  0.00     0.223 OA 
HETATM   30  C   UNL     1      -7.146  14.147  68.544  1.00  0.00    -0.103 C  
HETATM   31  C   UNL     1      -7.589  15.435  67.805  1.00  0.00    -0.150 C  
HETATM   32  C   UNL     1      -6.198  14.369  69.720  1.00  0.00    -0.139 C  
HETATM   33  C   UNL     1      -8.603  15.057  66.692  1.00  0.00    -0.211 C  
HETATM   34  H   UNL     1      -9.836  16.004  65.460  1.00  0.00     0.000 HD 
HETATM   35  C   UNL     1      -9.731  14.184  67.247  1.00  0.00    -0.236 C  
HETATM   36  O   UNL     1      -9.215  16.236  66.140  1.00  0.00    -0.297 OA 
HETATM   37  O   UNL     1     -10.569  13.719  66.174  1.00  0.00    -0.284 OA 
HETATM   38  H   UNL     1     -10.912  14.438  65.657  1.00  0.00     0.000 HD 
BRANCH  31  39
HETATM   39  N   UNL     1      -6.395  16.169  67.315  1.00  0.00    -0.202 NA 
HETATM   40  H   UNL     1      -5.880  15.870  66.487  1.00  0.00     0.000 HD 
BRANCH  39  41
HETATM   41  C   UNL     1      -5.993  17.369  68.106  1.00  0.00    -0.154 C  
HETATM   42  C   UNL     1      -5.975  19.648  67.004  1.00  0.00    -0.182 C  
HETATM   43  C   UNL     1      -5.463  18.430  67.190  1.00  0.00    -0.140 C  
HETATM   44  C   UNL     1      -7.142  20.141  67.815  1.00  0.00    -0.295 C  
HETATM   45  H   UNL     1      -9.181  17.426  68.953  1.00  0.00     0.000 HD 
HETATM   46  O   UNL     1      -8.427  17.165  68.437  1.00  0.00    -0.225 OA 
HETATM   47  C   UNL     1      -7.484  19.309  69.078  1.00  0.00    -0.336 C  
HETATM   48  O   UNL     1      -8.268  20.228  66.947  1.00  0.00    -0.324 OA 
HETATM   49  H   UNL     1      -6.965  19.300  70.983  1.00  0.00     0.000 HD 
HETATM   50  O   UNL     1      -6.754  19.810  70.210  1.00  0.00    -0.231 OA 
HETATM   51  C   UNL     1      -7.235  17.799  68.955  1.00  0.00    -0.207 C  
HETATM   52  H   UNL     1      -9.005  20.539  67.460  1.00  0.00     0.000 HD 
BRANCH  42  53
HETATM   53  C   UNL     1      -5.450  20.616  65.966  1.00  0.00    -0.190 C  
HETATM   54  O   UNL     1      -5.393  20.037  64.667  1.00  0.00    -0.160 OA 
HETATM   55  H   UNL     1      -5.064  20.645  64.016  1.00  0.00     0.000 HD 
ENDBRANCH  42  53
ENDBRANCH  39  41
ENDBRANCH  31  39
ENDBRANCH  27  28
ENDBRANCH  23  27
ENDBRANCH  13  14
ENDBRANCH   4  13
ENDBRANCH   1   4
BRANCH   1  56
HETATM   56  C   UNL     1     -10.168   4.935  69.766  1.00  0.00    -0.214 C  
HETATM   57  O   UNL     1      -8.834   4.823  69.262  1.00  0.00    -0.089 OA 
HETATM   58  H   UNL     1      -8.509   3.949  69.442  1.00  0.00     0.000 HD 
ENDBRANCH   1  56
TORSDOF 12
ENDMDL
MODEL      268
REMARK 921   NORMALIZED FREE ENERGY PREDICTED BY IDOCK:    2.50 KCAL/MOL
REMARK 922        TOTAL FREE ENERGY PREDICTED BY IDOCK:    1.06 KCAL/MOL
REMARK 923 INTER-LIGAND FREE ENERGY PREDICTED BY IDOCK:   -5.91 KCAL/MOL
REMARK 924 INTRA-LIGAND FREE ENERGY PREDICTED BY IDOCK:    6.97 KCAL/MOL
REMARK 927      BINDING AFFINITY PREDICTED BY RF-SCORE:    0.00 PKD
ROOT
HETATM    1  C   UNL     1      -6.467  14.789  68.379  1.00  0.00    -0.103 C  
HETATM    2  H   UNL     1      -5.181  16.147  68.889  1.00  0.00     0.000 HD 
HETATM    3  O   UNL     1      -5.125  15.247  68.589  1.00  0.00    -0.086 OA 
ENDROOT
BRANCH   1   4
HETATM    4  C   UNL     1      -7.277  15.713  67.421  1.00  0.00    -0.208 C  
BRANCH   4   5
HETATM    5  C   UNL     1      -7.938  16.917  68.164  1.00  0.00    -0.195 C  
HETATM    6  O   UNL     1      -9.371  16.818  68.154  1.00  0.00    -0.224 OA 
HETATM    7  H   UNL     1      -9.773  17.550  68.606  1.00  0.00     0.000 HD 
BRANCH   5   8
HETATM    8  C   UNL     1      -7.579  18.297  67.600  1.00  0.00    -0.220 C  
HETATM    9  C   UNL     1      -8.075  18.456  66.179  1.00  0.00    -0.170 C  
HETATM   10  O   UNL     1      -6.147  18.409  67.598  1.00  0.00    -0.173 OA 
HETATM   11  O   UNL     1      -9.184  18.913  65.910  1.00  0.00    -0.455 OA 
HETATM   12  H   UNL     1      -5.924  19.264  67.249  1.00  0.00     0.000 HD 
ENDBRANCH   5   8
ENDBRANCH   4   5
BRANCH   4  13
HETATM   13  O   UNL     1      -8.290  14.995  66.675  1.00  0.00    -0.218 OA 
BRANCH  13  14
HETATM   14  C   UNL     1      -9.622  15.107  67.202  1.00  0.00    -0.218 C  
HETATM   15  H   UNL     1      -9.507  12.064  69.786  1.00  0.00     0.000 HD 
HETATM   16  O   UNL     1      -8.899  14.413  69.479  1.00  0.00    -0.367 OA 
HETATM   17  C   UNL     1      -9.806  14.155  68.395  1.00  0.00    -0.231 C  
HETATM   18  O   UNL     1     -10.638  14.817  66.252  1.00  0.00    -0.291 OA 
HETATM   19  O   UNL     1     -10.021  11.843  69.018  1.00  0.00    -0.067 OA 
HETATM   20  C   UNL     1     -10.546  13.507  65.682  1.00  0.00    -0.284 C  
HETATM   21  H   UNL     1      -9.012  13.824  70.216  1.00  0.00     0.000 HD 
HETATM   22  C   UNL     1      -9.618  12.714  67.940  1.00  0.00    -0.211 C  
HETATM   23  C   UNL     1     -10.448  12.356  66.698  1.00  0.00    -0.229 C  
BRANCH  20  24
HETATM   24  C   UNL     1     -11.748  13.340  64.723  1.00  0.00    -0.355 C  
HETATM   25  O   UNL     1     -12.600  14.485  64.656  1.00  0.00    -0.607 OA 
HETATM   26  H   UNL     1     -13.338  14.381  64.067  1.00  0.00     0.000 HD 
ENDBRANCH  20  24
BRANCH  23  27
HETATM   27  O   UNL     1      -9.853  11.237  65.982  1.00  0.00    -0.212 OA 
BRANCH  27  28
HETATM   28  C   UNL     1     -10.744  10.127  65.818  1.00  0.00     0.185 C  
HETATM   29  O   UNL     1     -10.039   8.985  65.353  1.00  0.00     0.145 OA 
HETATM   30  C   UNL     1      -9.018   8.568  66.262  1.00  0.00    -0.168 C  
HETATM   31  C   UNL     1      -9.669   8.087  67.584  1.00  0.00    -0.158 C  
HETATM   32  C   UNL     1      -8.208   7.509  65.518  1.00  0.00    -0.135 C  
HETATM   33  C   UNL     1     -10.517   9.244  68.181  1.00  0.00    -0.215 C  
HETATM   34  H   UNL     1     -11.841   9.479  69.639  1.00  0.00     0.000 HD 
HETATM   35  C   UNL     1     -11.474   9.822  67.136  1.00  0.00     1.127 C  
HETATM   36  O   UNL     1     -11.322   8.771  69.274  1.00  0.00     0.144 OA 
HETATM   37  O   UNL     1     -12.133  10.988  67.662  1.00  0.00    -0.539 OA 
HETATM   38  H   UNL     1     -12.585  10.800  68.476  1.00  0.00     0.000 HD 
BRANCH  31  39
HETATM   39  N   UNL     1      -8.624   7.566  68.499  1.00  0.00    -0.129 NA 
HETATM   40  H   UNL     1      -8.036   8.186  69.056  1.00  0.00     0.000 HD 
BRANCH  39  41
HETATM   41  C   UNL     1      -8.483   6.082  68.556  1.00  0.00    -0.113 C  
HETATM   42  C   UNL     1      -8.154   4.939  70.791  1.00  0.00    -0.087 C  
HETATM   43  C   UNL     1      -7.713   5.688  69.779  1.00  0.00    -0.079 C  
HETATM   44  C   UNL     1      -9.513   4.294  70.755  1.00  0.00    -0.171 C  
HETATM   45  H   UNL     1     -11.779   6.141  68.686  1.00  0.00     0.000 HD 
HETATM   46  O   UNL     1     -10.904   6.507  68.739  1.00  0.00    -0.251 OA 
HETATM   47  C   UNL     1     -10.210   4.267  69.370  1.00  0.00     0.324 C  
HETATM   48  O   UNL     1     -10.331   4.951  71.718  1.00  0.00    -0.201 OA 
HETATM   49  H   UNL     1     -10.280   3.053  67.814  1.00  0.00     0.000 HD 
HETATM   50  O   UNL     1      -9.853   3.069  68.663  1.00  0.00     0.024 OA 
HETATM   51  C   UNL     1      -9.925   5.478  68.470  1.00  0.00    -0.157 C  
HETATM   52  H   UNL     1     -11.189   4.544  71.695  1.00  0.00     0.000 HD 
BRANCH  42  53
HETATM   53  C   UNL     1      -7.352   4.691  72.050  1.00  0.00    -0.072 C  
HETATM   54  O   UNL     1      -7.469   3.348  72.508  1.00  0.00    -0.048 OA 
HETATM   55  H   UNL     1      -6.966   3.192  73.299  1.00  0.00     0.000 HD 
ENDBRANCH  42  53
ENDBRANCH  39  41
ENDBRANCH  31  39
ENDBRANCH  27  28
ENDBRANCH  23  27
ENDBRANCH  13  14
ENDBRANCH   4  13
ENDBRANCH   1   4
BRANCH   1  56
HETATM   56  C   UNL     1      -6.377  13.340  67.894  1.00  0.00    -0.144 C  
HETATM   57  O   UNL     1      -6.083  12.496  69.010  1.00  0.00    -0.070 OA 
HETATM   58  H   UNL     1      -6.027  11.596  68.710  1.00  0.00     0.000 HD 
ENDBRANCH   1  56
TORSDOF 12
ENDMDL
MODEL      269
REMARK 921   NORMALIZED FREE ENERGY PREDICTED BY IDOCK:    3.03 KCAL/MOL
REMARK 922        TOTAL FREE ENERGY PREDICTED BY IDOCK:    1.96 KCAL/MOL
REMARK 923 INTER-LIGAND FREE ENERGY PREDICTED BY IDOCK:   -2.21 KCAL/MOL
REMARK 924 INTRA-LIGAND FREE ENERGY PREDICTED BY IDOCK:    4.17 KCAL/MOL
REMARK 927      BINDING AFFINITY PREDICTED BY RF-SCORE:    0.00 PKD
ROOT
HETATM    1  C   UNL     1     -11.085  16.937  66.797  1.00  0.00     0.280 C  
HETATM    2  H   UNL     1      -9.726  15.916  65.864  1.00  0.00     0.000 HD 
HETATM    3  O   UNL     1     -10.105  16.782  65.762  1.00  0.00    -0.478 OA 
ENDROOT
BRANCH   1   4
HETATM    4  C   UNL     1     -10.507  16.677  68.220  1.00  0.00    -0.321 C  
BRANCH   4   5
HETATM    5  C   UNL     1      -9.815  17.938  68.827  1.00  0.00    -0.352 C  
HETATM    6  O   UNL     1     -10.620  19.114  68.654  1.00  0.00    -0.422 OA 
HETATM    7  H   UNL     1     -10.200  19.882  69.024  1.00  0.00     0.000 HD 
BRANCH   5   8
HETATM    8  C   UNL     1      -8.429  18.253  68.249  1.00  0.00    -0.295 C  
HETATM    9  C   UNL     1      -8.490  19.409  67.276  1.00  0.00    -0.295 C  
HETATM   10  O   UNL     1      -7.975  17.087  67.544  1.00  0.00    -0.171 OA 
HETATM   11  O   UNL     1      -8.334  20.579  67.622  1.00  0.00    -0.277 OA 
HETATM   12  H   UNL     1      -7.116  17.282  67.187  1.00  0.00     0.000 HD 
ENDBRANCH   5   8
ENDBRANCH   4   5
BRANCH   4  13
HETATM   13  O   UNL     1      -9.584  15.561  68.253  1.00  0.00    -0.198 OA 
BRANCH  13  14
HETATM   14  C   UNL     1      -9.372  14.989  69.554  1.00  0.00    -0.062 C  
HETATM   15  H   UNL     1      -6.426  12.457  68.630  1.00  0.00     0.000 HD 
HETATM   16  O   UNL     1      -6.920  14.786  69.188  1.00  0.00    -0.118 OA 
HETATM   17  C   UNL     1      -8.125  14.090  69.546  1.00  0.00     0.568 C  
HETATM   18  O   UNL     1     -10.466  14.213  70.021  1.00  0.00     0.276 OA 
HETATM   19  O   UNL     1      -7.248  11.996  68.757  1.00  0.00    -0.105 OA 
HETATM   20  C   UNL     1     -10.817  13.123  69.162  1.00  0.00    -0.094 C  
HETATM   21  H   UNL     1      -6.149  14.230  69.182  1.00  0.00     0.000 HD 
HETATM   22  C   UNL     1      -8.325  12.937  68.571  1.00  0.00    -0.054 C  
HETATM   23  C   UNL     1      -9.654  12.192  68.776  1.00  0.00     0.039 C  
BRANCH  20  24
HETATM   24  C   UNL     1     -11.976  12.358  69.842  1.00  0.00    -0.299 C  
HETATM   25  O   UNL     1     -12.305  12.843  71.145  1.00  0.00    -0.332 OA 
HETATM   26  H   UNL     1     -13.017  12.372  71.562  1.00  0.00     0.000 HD 
ENDBRANCH  20  24
BRANCH  23  27
HETATM   27  O   UNL     1     -10.064  11.521  67.552  1.00  0.00    -0.181 OA 
BRANCH  27  28
HETATM   28  C   UNL     1     -10.508  10.175  67.763  1.00  0.00    -0.232 C  
HETATM   29  O   UNL     1     -10.396   9.419  66.566  1.00  0.00    -0.251 OA 
HETATM   30  C   UNL     1      -9.049   9.343  66.095  1.00  0.00    -0.171 C  
HETATM   31  C   UNL     1      -8.189   8.552  67.114  1.00  0.00    -0.108 C  
HETATM   32  C   UNL     1      -9.131   8.724  64.701  1.00  0.00     0.149 C  
HETATM   33  C   UNL     1      -8.264   9.258  68.495  1.00  0.00    -0.114 C  
HETATM   34  H   UNL     1      -7.724   8.868  70.363  1.00  0.00     0.000 HD 
HETATM   35  C   UNL     1      -9.716   9.518  68.904  1.00  0.00    -0.164 C  
HETATM   36  O   UNL     1      -7.678   8.436  69.519  1.00  0.00    -0.091 OA 
HETATM   37  O   UNL     1      -9.756  10.309  70.105  1.00  0.00    -0.404 OA 
HETATM   38  H   UNL     1      -9.267   9.903  70.811  1.00  0.00     0.000 HD 
BRANCH  31  39
HETATM   39  N   UNL     1      -6.811   8.389  66.589  1.00  0.00    -0.067 NA 
HETATM   40  H   UNL     1      -6.369   9.097  66.002  1.00  0.00     0.000 HD 
BRANCH  39  41
HETATM   41  C   UNL     1      -6.109   7.129  66.971  1.00  0.00    -0.041 C  
HETATM   42  C   UNL     1      -7.229   5.500  68.553  1.00  0.00    -0.074 C  
HETATM   43  C   UNL     1      -6.604   6.651  68.303  1.00  0.00    -0.059 C  
HETATM   44  C   UNL     1      -7.420   4.462  67.480  1.00  0.00    -0.073 C  
HETATM   45  H   UNL     1      -7.504   5.951  64.224  1.00  0.00     0.000 HD 
HETATM   46  O   UNL     1      -7.382   6.567  64.937  1.00  0.00    -0.067 OA 
HETATM   47  C   UNL     1      -6.572   4.655  66.197  1.00  0.00    -0.045 C  
HETATM   48  O   UNL     1      -8.809   4.414  67.164  1.00  0.00    -0.110 OA 
HETATM   49  H   UNL     1      -4.792   4.097  65.548  1.00  0.00     0.000 HD 
HETATM   50  O   UNL     1      -5.312   3.979  66.334  1.00  0.00    -0.012 OA 
HETATM   51  C   UNL     1      -6.311   6.114  65.797  1.00  0.00    -0.038 C  
HETATM   52  H   UNL     1      -8.929   3.759  66.487  1.00  0.00     0.000 HD 
BRANCH  42  53
HETATM   53  C   UNL     1      -7.809   5.148  69.905  1.00  0.00    -0.075 C  
HETATM   54  O   UNL     1      -7.053   4.142  70.571  1.00  0.00    -0.037 OA 
HETATM   55  H   UNL     1      -7.417   3.920  71.420  1.00  0.00     0.000 HD 
ENDBRANCH  42  53
ENDBRANCH  39  41
ENDBRANCH  31  39
ENDBRANCH  27  28
ENDBRANCH  23  27
ENDBRANCH  13  14
ENDBRANCH   4  13
ENDBRANCH   1   4
BRANCH   1  56
HETATM   56  C   UNL     1     -11.694  18.332  66.633  1.00  0.00     2.286 C  
HETATM   57  O   UNL     1     -11.505  18.764  65.283  1.00  0.00     0.480 OA 
HETATM   58  H   UNL     1     -11.884  19.630  65.181  1.00  0.00     0.000 HD 
ENDBRANCH   1  56
TORSDOF 12
ENDMDL
MODEL      270
REMARK 921   NORMALIZED FREE ENERGY PREDICTED BY IDOCK:    3.80 KCAL/MOL
REMARK 922        TOTAL FREE ENERGY PREDICTED BY IDOCK:    3.28 KCAL/MOL
REMARK 923 INTER-LIGAND FREE ENERGY PREDICTED BY IDOCK:   -2.60 KCAL/MOL
REMARK 924 INTRA-LIGAND FREE ENERGY PREDICTED BY IDOCK:    5.88 KCAL/MOL
REMARK 927      BINDING AFFINITY PREDICTED BY RF-SCORE:    0.00 PKD
ROOT
HETATM    1  C   UNL     1      -6.415   7.808  67.046  1.00  0.00    -0.055 C  
HETATM    2  H   UNL     1      -5.354   6.233  66.657  1.00  0.00     0.000 HD 
HETATM    3  O   UNL     1      -5.584   6.711  67.446  1.00  0.00    -0.011 OA 
ENDROOT
BRANCH   1   4
HETATM    4  C   UNL     1      -7.650   7.357  66.211  1.00  0.00    -0.088 C  
BRANCH   4   5
HETATM    5  C   UNL     1      -7.303   6.234  65.183  1.00  0.00    -0.077 C  
HETATM    6  O   UNL     1      -7.778   6.559  63.868  1.00  0.00    -0.097 OA 
HETATM    7  H   UNL     1      -7.566   5.876  63.242  1.00  0.00     0.000 HD 
BRANCH   5   8
HETATM    8  C   UNL     1      -7.861   4.848  65.532  1.00  0.00    -0.095 C  
HETATM    9  C   UNL     1      -6.760   3.813  65.593  1.00  0.00    -0.048 C  
HETATM   10  O   UNL     1      -8.782   4.474  64.495  1.00  0.00    -0.136 OA 
HETATM   11  O   UNL     1      -6.150   3.551  66.629  1.00  0.00    -0.023 OA 
HETATM   12  H   UNL     1      -9.127   3.616  64.711  1.00  0.00     0.000 HD 
ENDBRANCH   5   8
ENDBRANCH   4   5
BRANCH   4  13
HETATM   13  O   UNL     1      -8.291   8.458  65.521  1.00  0.00    -0.136 OA 
BRANCH  13  14
HETATM   14  C   UNL     1      -7.456   9.146  64.575  1.00  0.00    -0.101 C  
HETATM   15  H   UNL     1      -5.918  11.902  67.023  1.00  0.00     0.000 HD 
HETATM   16  O   UNL     1      -5.697   9.583  66.279  1.00  0.00    -0.051 OA 
HETATM   17  C   UNL     1      -6.565  10.171  65.297  1.00  0.00    -0.119 C  
HETATM   18  O   UNL     1      -8.182   9.835  63.567  1.00  0.00    -0.135 OA 
HETATM   19  O   UNL     1      -6.575  12.280  66.449  1.00  0.00     0.231 OA 
HETATM   20  C   UNL     1      -9.098  10.812  64.072  1.00  0.00    -0.197 C  
HETATM   21  H   UNL     1      -5.146  10.216  66.726  1.00  0.00     0.000 HD 
HETATM   22  C   UNL     1      -7.432  11.218  65.983  1.00  0.00     0.117 C  
HETATM   23  C   UNL     1      -8.494  11.830  65.055  1.00  0.00     0.888 C  
BRANCH  20  24
HETATM   24  C   UNL     1      -9.755  11.498  62.852  1.00  0.00    -0.273 C  
HETATM   25  O   UNL     1     -10.521  12.658  63.182  1.00  0.00    -0.507 OA 
HETATM   26  H   UNL     1     -10.925  13.079  62.432  1.00  0.00     0.000 HD 
ENDBRANCH  20  24
BRANCH  23  27
HETATM   27  O   UNL     1      -9.610  12.358  65.825  1.00  0.00    -0.236 OA 
BRANCH  27  28
HETATM   28  C   UNL     1      -9.711  13.786  65.774  1.00  0.00    -0.151 C  
HETATM   29  O   UNL     1     -11.056  14.185  65.557  1.00  0.00    -0.297 OA 
HETATM   30  C   UNL     1     -11.929  13.744  66.600  1.00  0.00    -0.431 C  
HETATM   31  C   UNL     1     -11.544  14.446  67.927  1.00  0.00    -0.345 C  
HETATM   32  C   UNL     1     -13.344  14.029  66.104  1.00  0.00     1.148 C  
HETATM   33  C   UNL     1     -10.062  14.124  68.259  1.00  0.00    -0.241 C  
HETATM   34  H   UNL     1      -8.690  14.743  69.551  1.00  0.00     0.000 HD 
HETATM   35  C   UNL     1      -9.153  14.413  67.062  1.00  0.00    -0.236 C  
HETATM   36  O   UNL     1      -9.596  14.940  69.348  1.00  0.00    -0.167 OA 
HETATM   37  O   UNL     1      -7.815  13.961  67.338  1.00  0.00    -0.173 OA 
HETATM   38  H   UNL     1      -7.470  14.348  68.133  1.00  0.00     0.000 HD 
BRANCH  31  39
HETATM   39  N   UNL     1     -12.502  14.065  68.994  1.00  0.00    -0.442 NA 
HETATM   40  H   UNL     1     -12.874  14.747  69.655  1.00  0.00     0.000 HD 
BRANCH  39  41
HETATM   41  C   UNL     1     -12.890  12.625  69.041  1.00  0.00     1.410 C  
HETATM   42  C   UNL     1     -11.220  10.853  68.346  1.00  0.00    -0.347 C  
HETATM   43  C   UNL     1     -12.070  11.841  68.062  1.00  0.00    -0.003 C  
HETATM   44  C   UNL     1     -11.069  10.328  69.748  1.00  0.00    -0.287 C  
HETATM   45  H   UNL     1     -11.880  12.834  72.175  1.00  0.00     0.000 HD 
HETATM   46  O   UNL     1     -11.964  13.117  71.271  1.00  0.00     0.034 OA 
HETATM   47  C   UNL     1     -12.173  10.754  70.750  1.00  0.00    -0.381 C  
HETATM   48  O   UNL     1      -9.782  10.716  70.220  1.00  0.00    -0.191 OA 
HETATM   49  H   UNL     1     -13.923  10.062  71.347  1.00  0.00     0.000 HD 
HETATM   50  O   UNL     1     -13.247   9.800  70.733  1.00  0.00    -0.260 OA 
HETATM   51  C   UNL     1     -12.752  12.159  70.529  1.00  0.00     0.009 C  
HETATM   52  H   UNL     1      -9.687  10.384  71.106  1.00  0.00     0.000 HD 
BRANCH  42  53
HETATM   53  C   UNL     1     -10.336  10.196  67.309  1.00  0.00    -0.237 C  
HETATM   54  O   UNL     1     -11.047   9.880  66.116  1.00  0.00     0.318 OA 
HETATM   55  H   UNL     1     -10.491   9.467  65.465  1.00  0.00     0.000 HD 
ENDBRANCH  42  53
ENDBRANCH  39  41
ENDBRANCH  31  39
ENDBRANCH  27  28
ENDBRANCH  23  27
ENDBRANCH  13  14
ENDBRANCH   4  13
ENDBRANCH   1   4
BRANCH   1  56
HETATM   56  C   UNL     1      -6.787   8.576  68.316  1.00  0.00    -0.066 C  
HETATM   57  O   UNL     1      -8.163   8.958  68.241  1.00  0.00    -0.118 OA 
HETATM   58  H   UNL     1      -8.394   9.435  69.030  1.00  0.00     0.000 HD 
ENDBRANCH   1  56
TORSDOF 12
ENDMDL
MODEL      271
REMARK 921   NORMALIZED FREE ENERGY PREDICTED BY IDOCK:    4.01 KCAL/MOL
REMARK 922        TOTAL FREE ENERGY PREDICTED BY IDOCK:    3.64 KCAL/MOL
REMARK 923 INTER-LIGAND FREE ENERGY PREDICTED BY IDOCK:   -3.48 KCAL/MOL
REMARK 924 INTRA-LIGAND FREE ENERGY PREDICTED BY IDOCK:    7.11 KCAL/MOL
REMARK 927      BINDING AFFINITY PREDICTED BY RF-SCORE:    0.00 PKD
ROOT
HETATM    1  C   UNL     1     -11.877  15.159  68.852  1.00  0.00    -0.310 C  
HETATM    2  H   UNL     1     -13.255  13.828  68.554  1.00  0.00     0.000 HD 
HETATM    3  O   UNL     1     -13.056  14.683  68.189  1.00  0.00     1.466 OA 
ENDROOT
BRANCH   1   4
HETATM    4  C   UNL     1     -10.689  14.155  68.765  1.00  0.00    -0.256 C  
BRANCH   4   5
HETATM    5  C   UNL     1     -10.143  13.995  67.311  1.00  0.00    -0.249 C  
HETATM    6  O   UNL     1      -8.942  14.757  67.113  1.00  0.00    -0.199 OA 
HETATM    7  H   UNL     1      -8.610  14.659  66.228  1.00  0.00     0.000 HD 
BRANCH   5   8
HETATM    8  C   UNL     1     -11.124  14.407  66.206  1.00  0.00    -0.331 C  
HETATM    9  C   UNL     1     -10.479  14.328  64.841  1.00  0.00    -0.430 C  
HETATM   10  O   UNL     1     -11.511  15.769  66.451  1.00  0.00     0.028 OA 
HETATM   11  O   UNL     1     -10.514  13.315  64.146  1.00  0.00    -0.414 OA 
HETATM   12  H   UNL     1     -12.119  16.024  65.767  1.00  0.00     0.000 HD 
ENDBRANCH   5   8
ENDBRANCH   4   5
BRANCH   4  13
HETATM   13  O   UNL     1     -11.019  12.850  69.300  1.00  0.00    -0.179 OA 
BRANCH  13  14
HETATM   14  C   UNL     1     -12.192  12.244  68.733  1.00  0.00     0.075 C  
HETATM   15  H   UNL     1     -12.208   8.862  70.857  1.00  0.00     0.000 HD 
HETATM   16  O   UNL     1     -12.847  11.222  70.905  1.00  0.00    -0.319 OA 
HETATM   17  C   UNL     1     -12.568  10.975  69.517  1.00  0.00     0.066 C  
HETATM   18  O   UNL     1     -12.045  11.884  67.367  1.00  0.00    -0.577 OA 
HETATM   19  O   UNL     1     -11.915   8.707  69.967  1.00  0.00     0.257 OA 
HETATM   20  C   UNL     1     -10.968  10.975  67.116  1.00  0.00    -0.283 C  
HETATM   21  H   UNL     1     -13.079  10.438  71.389  1.00  0.00     0.000 HD 
HETATM   22  C   UNL     1     -11.441   9.956  69.424  1.00  0.00    -0.026 C  
HETATM   23  C   UNL     1     -10.966   9.705  67.985  1.00  0.00    -0.140 C  
BRANCH  20  24
HETATM   24  C   UNL     1     -10.987  10.649  65.604  1.00  0.00     0.180 C  
HETATM   25  O   UNL     1     -12.131  11.156  64.916  1.00  0.00     0.438 OA 
HETATM   26  H   UNL     1     -12.143  10.956  63.987  1.00  0.00     0.000 HD 
ENDBRANCH  20  24
BRANCH  23  27
HETATM   27  O   UNL     1      -9.598   9.209  67.970  1.00  0.00    -0.143 OA 
BRANCH  27  28
HETATM   28  C   UNL     1      -9.191   8.699  66.695  1.00  0.00    -0.181 C  
HETATM   29  O   UNL     1      -7.786   8.498  66.662  1.00  0.00    -0.088 OA 
HETATM   30  C   UNL     1      -7.348   7.556  67.645  1.00  0.00    -0.103 C  
HETATM   31  C   UNL     1      -7.930   6.158  67.315  1.00  0.00    -0.102 C  
HETATM   32  C   UNL     1      -5.824   7.638  67.647  1.00  0.00    -0.036 C  
HETATM   33  C   UNL     1      -9.480   6.251  67.275  1.00  0.00    -0.119 C  
HETATM   34  H   UNL     1     -10.996   5.098  66.720  1.00  0.00     0.000 HD 
HETATM   35  C   UNL     1      -9.940   7.397  66.370  1.00  0.00    -0.036 C  
HETATM   36  O   UNL     1     -10.048   5.041  66.744  1.00  0.00    -0.190 OA 
HETATM   37  O   UNL     1     -11.366   7.563  66.471  1.00  0.00     0.144 OA 
HETATM   38  H   UNL     1     -11.829   6.759  66.271  1.00  0.00     0.000 HD 
BRANCH  31  39
HETATM   39  N   UNL     1      -7.407   5.156  68.277  1.00  0.00    -0.070 NA 
HETATM   40  H   UNL     1      -7.429   4.155  68.080  1.00  0.00     0.000 HD 
BRANCH  39  41
HETATM   41  C   UNL     1      -6.847   5.700  69.549  1.00  0.00    -0.061 C  
HETATM   42  C   UNL     1      -8.413   6.568  71.338  1.00  0.00    -0.125 C  
HETATM   43  C   UNL     1      -7.808   6.677  70.155  1.00  0.00    -0.107 C  
HETATM   44  C   UNL     1      -8.094   5.440  72.281  1.00  0.00    -0.107 C  
HETATM   45  H   UNL     1      -6.944   2.546  70.512  1.00  0.00     0.000 HD 
HETATM   46  O   UNL     1      -7.156   3.289  69.959  1.00  0.00    -0.040 OA 
HETATM   47  C   UNL     1      -6.813   4.630  71.955  1.00  0.00    -0.050 C  
HETATM   48  O   UNL     1      -9.232   4.584  72.334  1.00  0.00    -0.122 OA 
HETATM   49  H   UNL     1      -4.893   4.723  72.409  1.00  0.00     0.000 HD 
HETATM   50  O   UNL     1      -5.678   5.220  72.609  1.00  0.00    -0.020 OA 
HETATM   51  C   UNL     1      -6.498   4.476  70.460  1.00  0.00    -0.034 C  
HETATM   52  H   UNL     1      -9.030   3.871  72.930  1.00  0.00     0.000 HD 
BRANCH  42  53
HETATM   53  C   UNL     1      -9.467   7.539  71.823  1.00  0.00    -0.145 C  
HETATM   54  O   UNL     1      -8.912   8.799  72.189  1.00  0.00    -0.336 OA 
HETATM   55  H   UNL     1      -9.574   9.409  72.494  1.00  0.00     0.000 HD 
ENDBRANCH  42  53
ENDBRANCH  39  41
ENDBRANCH  31  39
ENDBRANCH  27  28
ENDBRANCH  23  27
ENDBRANCH  13  14
ENDBRANCH   4  13
ENDBRANCH   1   4
BRANCH   1  56
HETATM   56  C   UNL     1     -11.556  16.535  68.264  1.00  0.00     0.058 C  
HETATM   57  O   UNL     1     -10.230  16.906  68.650  1.00  0.00    -0.262 OA 
HETATM   58  H   UNL     1     -10.031  17.761  68.284  1.00  0.00     0.000 HD 
ENDBRANCH   1  56
TORSDOF 12
ENDMDL
MODEL      272
REMARK 921   NORMALIZED FREE ENERGY PREDICTED BY IDOCK:    4.13 KCAL/MOL
REMARK 922        TOTAL FREE ENERGY PREDICTED BY IDOCK:    3.84 KCAL/MOL
REMARK 923 INTER-LIGAND FREE ENERGY PREDICTED BY IDOCK:   -4.78 KCAL/MOL
REMARK 924 INTRA-LIGAND FREE ENERGY PREDICTED BY IDOCK:    8.61 KCAL/MOL
REMARK 927      BINDING AFFINITY PREDICTED BY RF-SCORE:    0.00 PKD
ROOT
HETATM    1  C   UNL     1      -9.729   3.435  67.254  1.00  0.00     0.041 C  
HETATM    2  H   UNL     1      -9.738   1.505  67.443  1.00  0.00     0.000 HD 
HETATM    3  O   UNL     1      -9.825   2.110  66.715  1.00  0.00     0.406 OA 
ENDROOT
BRANCH   1   4
HETATM    4  C   UNL     1      -8.433   3.653  68.090  1.00  0.00    -0.093 C  
BRANCH   4   5
HETATM    5  C   UNL     1      -7.268   2.711  67.650  1.00  0.00    -0.053 C  
HETATM    6  O   UNL     1      -6.240   2.643  68.650  1.00  0.00    -0.027 OA 
HETATM    7  H   UNL     1      -5.531   2.070  68.383  1.00  0.00     0.000 HD 
BRANCH   5   8
HETATM    8  C   UNL     1      -6.587   3.103  66.332  1.00  0.00    -0.040 C  
HETATM    9  C   UNL     1      -6.745   2.019  65.290  1.00  0.00    -0.034 C  
HETATM   10  O   UNL     1      -5.187   3.279  66.600  1.00  0.00    -0.011 OA 
HETATM   11  O   UNL     1      -7.687   1.986  64.501  1.00  0.00    -0.063 OA 
HETATM   12  H   UNL     1      -4.765   3.522  65.784  1.00  0.00     0.000 HD 
ENDBRANCH   5   8
ENDBRANCH   4   5
BRANCH   4  13
HETATM   13  O   UNL     1      -8.655   3.508  69.514  1.00  0.00    -0.062 OA 
BRANCH  13  14
HETATM   14  C   UNL     1     -10.015   3.705  69.937  1.00  0.00     0.251 C  
HETATM   15  H   UNL     1     -10.430   7.533  68.877  1.00  0.00     0.000 HD 
HETATM   16  O   UNL     1     -10.500   5.237  68.038  1.00  0.00    -0.153 OA 
HETATM   17  C   UNL     1     -10.527   5.075  69.465  1.00  0.00    -0.059 C  
HETATM   18  O   UNL     1     -10.190   3.635  71.344  1.00  0.00    -0.072 OA 
HETATM   19  O   UNL     1     -10.337   7.445  69.819  1.00  0.00    -0.210 OA 
HETATM   20  C   UNL     1      -9.407   4.581  72.078  1.00  0.00    -0.139 C  
HETATM   21  H   UNL     1     -10.817   6.084  67.747  1.00  0.00     0.000 HD 
HETATM   22  C   UNL     1      -9.693   6.184  70.093  1.00  0.00    -0.163 C  
HETATM   23  C   UNL     1      -9.543   6.043  71.616  1.00  0.00    -0.151 C  
BRANCH  20  24
HETATM   24  C   UNL     1      -9.759   4.407  73.574  1.00  0.00    -0.120 C  
HETATM   25  O   UNL     1     -11.136   4.642  73.876  1.00  0.00    -0.288 OA 
HETATM   26  H   UNL     1     -11.352   4.535  74.795  1.00  0.00     0.000 HD 
ENDBRANCH  20  24
BRANCH  23  27
HETATM   27  O   UNL     1      -8.346   6.726  72.083  1.00  0.00    -0.108 OA 
BRANCH  27  28
HETATM   28  C   UNL     1      -8.625   7.893  72.865  1.00  0.00    -0.180 C  
HETATM   29  O   UNL     1      -7.875   9.003  72.393  1.00  0.00    -0.345 OA 
HETATM   30  C   UNL     1      -8.183   9.329  71.036  1.00  0.00    -0.068 C  
HETATM   31  C   UNL     1      -9.654   9.809  70.941  1.00  0.00     0.164 C  
HETATM   32  C   UNL     1      -7.139  10.357  70.609  1.00  0.00     0.358 C  
HETATM   33  C   UNL     1     -10.587   8.689  71.477  1.00  0.00    -0.282 C  
HETATM   34  H   UNL     1     -12.502   8.493  71.955  1.00  0.00     0.000 HD 
HETATM   35  C   UNL     1     -10.131   8.203  72.854  1.00  0.00    -0.278 C  
HETATM   36  O   UNL     1     -11.932   9.178  71.627  1.00  0.00    -0.319 OA 
HETATM   37  O   UNL     1     -10.912   7.065  73.260  1.00  0.00    -0.421 OA 
HETATM   38  H   UNL     1     -11.842   7.255  73.253  1.00  0.00     0.000 HD 
BRANCH  31  39
HETATM   39  N   UNL     1      -9.954  10.236  69.552  1.00  0.00    -0.251 NA 
HETATM   40  H   UNL     1      -9.825   9.613  68.755  1.00  0.00     0.000 HD 
BRANCH  39  41
HETATM   41  C   UNL     1     -10.458  11.632  69.391  1.00  0.00     0.104 C  
HETATM   42  C   UNL     1      -9.331  13.187  67.741  1.00  0.00    -0.206 C  
HETATM   43  C   UNL     1      -9.355  12.519  68.894  1.00  0.00     0.266 C  
HETATM   44  C   UNL     1     -10.518  13.201  66.816  1.00  0.00    -0.261 C  
HETATM   45  H   UNL     1     -12.511  10.251  67.209  1.00  0.00     0.000 HD 
HETATM   46  O   UNL     1     -11.748  10.291  67.775  1.00  0.00    -0.247 OA 
HETATM   47  C   UNL     1     -11.851  12.692  67.423  1.00  0.00    -0.328 C  
HETATM   48  O   UNL     1     -10.173  12.449  65.656  1.00  0.00    -0.253 OA 
HETATM   49  H   UNL     1     -13.385  13.472  68.392  1.00  0.00     0.000 HD 
HETATM   50  O   UNL     1     -12.568  13.784  68.020  1.00  0.00     0.101 OA 
HETATM   51  C   UNL     1     -11.712  11.565  68.458  1.00  0.00    -0.313 C  
HETATM   52  H   UNL     1     -10.923  12.457  65.073  1.00  0.00     0.000 HD 
BRANCH  42  53
HETATM   53  C   UNL     1      -8.125  13.963  67.258  1.00  0.00    -0.145 C  
HETATM   54  O   UNL     1      -8.424  15.334  67.020  1.00  0.00    -0.194 OA 
HETATM   55  H   UNL     1      -7.667  15.821  66.717  1.00  0.00     0.000 HD 
ENDBRANCH  42  53
ENDBRANCH  39  41
ENDBRANCH  31  39
ENDBRANCH  27  28
ENDBRANCH  23  27
ENDBRANCH  13  14
ENDBRANCH   4  13
ENDBRANCH   1   4
BRANCH   1  56
HETATM   56  C   UNL     1      -9.868   4.408  66.081  1.00  0.00    -0.231 C  
HETATM   57  O   UNL     1     -10.158   3.665  64.894  1.00  0.00    -0.296 OA 
HETATM   58  H   UNL     1     -10.245   4.269  64.166  1.00  0.00     0.000 HD 
ENDBRANCH   1  56
TORSDOF 12
ENDMDL
MODEL      273
REMARK 921   NORMALIZED FREE ENERGY PREDICTED BY IDOCK:    4.63 KCAL/MOL
REMARK 922        TOTAL FREE ENERGY PREDICTED BY IDOCK:    4.69 KCAL/MOL
REMARK 923 INTER-LIGAND FREE ENERGY PREDICTED BY IDOCK:   -1.45 KCAL/MOL
REMARK 924 INTRA-LIGAND FREE ENERGY PREDICTED BY IDOCK:    6.14 KCAL/MOL
REMARK 927      BINDING AFFINITY PREDICTED BY RF-SCORE:    0.00 PKD
ROOT
HETATM    1  C   UNL     1      -6.519  14.659  68.294  1.00  0.00    -0.121 C  
HETATM    2  H   UNL     1      -5.008  15.632  69.021  1.00  0.00     0.000 HD 
HETATM    3  O   UNL     1      -5.125  14.786  68.605  1.00  0.00    -0.087 OA 
ENDROOT
BRANCH   1   4
HETATM    4  C   UNL     1      -7.059  15.848  67.444  1.00  0.00    -0.197 C  
BRANCH   4   5
HETATM    5  C   UNL     1      -7.660  16.990  68.322  1.00  0.00    -0.213 C  
HETATM    6  O   UNL     1      -9.088  17.054  68.197  1.00  0.00    -0.225 OA 
HETATM    7  H   UNL     1      -9.454  17.749  68.731  1.00  0.00     0.000 HD 
BRANCH   5   8
HETATM    8  C   UNL     1      -7.119  18.392  68.013  1.00  0.00    -0.231 C  
HETATM    9  C   UNL     1      -7.479  18.822  66.608  1.00  0.00    -0.233 C  
HETATM   10  O   UNL     1      -5.687  18.342  68.121  1.00  0.00    -0.163 OA 
HETATM   11  O   UNL     1      -8.511  19.436  66.345  1.00  0.00    -0.319 OA 
HETATM   12  H   UNL     1      -5.352  19.210  67.930  1.00  0.00     0.000 HD 
ENDBRANCH   5   8
ENDBRANCH   4   5
BRANCH   4  13
HETATM   13  O   UNL     1      -8.038  15.433  66.461  1.00  0.00    -0.189 OA 
BRANCH  13  14
HETATM   14  C   UNL     1      -9.407  15.588  66.868  1.00  0.00    -0.233 C  
HETATM   15  H   UNL     1     -10.175  11.797  67.860  1.00  0.00     0.000 HD 
HETATM   16  O   UNL     1      -9.181  13.882  68.664  1.00  0.00    -0.295 OA 
HETATM   17  C   UNL     1      -9.925  14.287  67.504  1.00  0.00    -0.235 C  
HETATM   18  O   UNL     1     -10.283  15.932  65.805  1.00  0.00    -0.318 OA 
HETATM   19  O   UNL     1     -10.582  12.024  67.032  1.00  0.00    -0.217 OA 
HETATM   20  C   UNL     1     -10.295  14.988  64.729  1.00  0.00    -0.166 C  
HETATM   21  H   UNL     1      -9.501  13.078  69.057  1.00  0.00     0.000 HD 
HETATM   22  C   UNL     1      -9.881  13.159  66.483  1.00  0.00    -0.265 C  
HETATM   23  C   UNL     1     -10.539  13.526  65.143  1.00  0.00    -0.355 C  
BRANCH  20  24
HETATM   24  C   UNL     1     -11.333  15.483  63.695  1.00  0.00     1.343 C  
HETATM   25  O   UNL     1     -12.015  16.677  64.085  1.00  0.00    -0.882 OA 
HETATM   26  H   UNL     1     -12.653  16.980  63.449  1.00  0.00     0.000 HD 
ENDBRANCH  20  24
BRANCH  23  27
HETATM   27  O   UNL     1     -10.006  12.708  64.064  1.00  0.00    -0.312 OA 
BRANCH  27  28
HETATM   28  C   UNL     1     -10.939  11.737  63.572  1.00  0.00    -0.424 C  
HETATM   29  O   UNL     1     -10.262  10.702  62.876  1.00  0.00    -0.177 OA 
HETATM   30  C   UNL     1      -9.336  10.001  63.710  1.00  0.00    -0.257 C  
HETATM   31  C   UNL     1     -10.109   9.254  64.826  1.00  0.00     1.206 C  
HETATM   32  C   UNL     1      -8.528   9.107  62.773  1.00  0.00    -0.211 C  
HETATM   33  C   UNL     1     -10.938  10.282  65.643  1.00  0.00     0.505 C  
HETATM   34  H   UNL     1     -12.354  10.238  67.031  1.00  0.00     0.000 HD 
HETATM   35  C   UNL     1     -11.782  11.167  64.723  1.00  0.00     0.550 C  
HETATM   36  O   UNL     1     -11.847   9.609  66.532  1.00  0.00     2.147 OA 
HETATM   37  O   UNL     1     -12.417  12.208  65.486  1.00  0.00    -0.517 OA 
HETATM   38  H   UNL     1     -12.938  11.856  66.197  1.00  0.00     0.000 HD 
BRANCH  31  39
HETATM   39  N   UNL     1      -9.164   8.450  65.640  1.00  0.00    -0.397 NA 
HETATM   40  H   UNL     1      -8.391   8.879  66.150  1.00  0.00     0.000 HD 
BRANCH  39  41
HETATM   41  C   UNL     1      -9.412   6.979  65.671  1.00  0.00     0.452 C  
HETATM   42  C   UNL     1      -7.941   5.432  64.310  1.00  0.00    -0.118 C  
HETATM   43  C   UNL     1      -8.904   6.349  64.409  1.00  0.00     0.546 C  
HETATM   44  C   UNL     1      -7.302   4.830  65.532  1.00  0.00    -0.073 C  
HETATM   45  H   UNL     1      -7.449   7.072  68.320  1.00  0.00     0.000 HD 
HETATM   46  O   UNL     1      -7.843   7.407  67.523  1.00  0.00    -0.108 OA 
HETATM   47  C   UNL     1      -8.044   5.076  66.871  1.00  0.00    -0.107 C  
HETATM   48  O   UNL     1      -5.962   5.309  65.602  1.00  0.00    -0.024 OA 
HETATM   49  H   UNL     1      -9.449   4.176  67.927  1.00  0.00     0.000 HD 
HETATM   50  O   UNL     1      -8.995   4.025  67.107  1.00  0.00    -0.116 OA 
HETATM   51  C   UNL     1      -8.761   6.429  66.983  1.00  0.00    -0.115 C  
HETATM   52  H   UNL     1      -5.559   4.929  66.374  1.00  0.00     0.000 HD 
BRANCH  42  53
HETATM   53  C   UNL     1      -7.401   4.938  62.985  1.00  0.00    -0.048 C  
HETATM   54  O   UNL     1      -5.982   5.023  62.916  1.00  0.00    -0.017 OA 
HETATM   55  H   UNL     1      -5.642   4.713  62.084  1.00  0.00     0.000 HD 
ENDBRANCH  42  53
ENDBRANCH  39  41
ENDBRANCH  31  39
ENDBRANCH  27  28
ENDBRANCH  23  27
ENDBRANCH  13  14
ENDBRANCH   4  13
ENDBRANCH   1   4
BRANCH   1  56
HETATM   56  C   UNL     1      -6.707  13.296  67.623  1.00  0.00    -0.166 C  
HETATM   57  O   UNL     1      -6.628  12.274  68.620  1.00  0.00    -0.067 OA 
HETATM   58  H   UNL     1      -6.745  11.428  68.204  1.00  0.00     0.000 HD 
ENDBRANCH   1  56
TORSDOF 12
ENDMDL
MODEL      274
REMARK 921   NORMALIZED FREE ENERGY PREDICTED BY IDOCK:    4.87 KCAL/MOL
REMARK 922        TOTAL FREE ENERGY PREDICTED BY IDOCK:    5.10 KCAL/MOL
REMARK 923 INTER-LIGAND FREE ENERGY PREDICTED BY IDOCK:   -5.96 KCAL/MOL
REMARK 924 INTRA-LIGAND FREE ENERGY PREDICTED BY IDOCK:   11.06 KCAL/MOL
REMARK 927      BINDING AFFINITY PREDICTED BY RF-SCORE:    0.00 PKD
ROOT
HETATM    1  C   UNL     1     -11.799  10.026  69.830  1.00  0.00    -0.021 C  
HETATM    2  H   UNL     1     -10.587  11.536  69.923  1.00  0.00     0.000 HD 
HETATM    3  O   UNL     1     -11.328  11.236  70.436  1.00  0.00    -0.219 OA 
ENDROOT
BRANCH   1   4
HETATM    4  C   UNL     1     -10.679   8.954  69.675  1.00  0.00    -0.217 C  
BRANCH   4   5
HETATM    5  C   UNL     1      -9.984   8.611  71.030  1.00  0.00    -0.215 C  
HETATM    6  O   UNL     1      -8.908   9.519  71.313  1.00  0.00    -0.312 OA 
HETATM    7  H   UNL     1      -8.485   9.311  72.137  1.00  0.00     0.000 HD 
BRANCH   5   8
HETATM    8  C   UNL     1      -9.408   7.192  71.116  1.00  0.00    -0.157 C  
HETATM    9  C   UNL     1      -8.033   7.195  71.747  1.00  0.00    -0.097 C  
HETATM   10  O   UNL     1      -9.295   6.683  69.778  1.00  0.00    -0.145 OA 
HETATM   11  O   UNL     1      -7.857   7.069  72.958  1.00  0.00    -0.093 OA 
HETATM   12  H   UNL     1      -8.939   5.804  69.832  1.00  0.00     0.000 HD 
ENDBRANCH   5   8
ENDBRANCH   4   5
BRANCH   4  13
HETATM   13  O   UNL     1      -9.675   9.331  68.702  1.00  0.00    -0.146 OA 
BRANCH  13  14
HETATM   14  C   UNL     1     -10.087   9.211  67.330  1.00  0.00    -0.233 C  
HETATM   15  H   UNL     1      -6.632  10.174  65.575  1.00  0.00     0.000 HD 
HETATM   16  O   UNL     1      -7.866   8.342  66.624  1.00  0.00    -0.092 OA 
HETATM   17  C   UNL     1      -8.873   9.340  66.395  1.00  0.00    -0.146 C  
HETATM   18  O   UNL     1     -11.047  10.181  66.935  1.00  0.00    -0.116 OA 
HETATM   19  O   UNL     1      -7.258  10.886  65.514  1.00  0.00    -0.033 OA 
HETATM   20  C   UNL     1     -10.611  11.534  67.100  1.00  0.00    -0.237 C  
HETATM   21  H   UNL     1      -7.115   8.422  66.046  1.00  0.00     0.000 HD 
HETATM   22  C   UNL     1      -8.239  10.714  66.558  1.00  0.00    -0.138 C  
HETATM   23  C   UNL     1      -9.251  11.866  66.461  1.00  0.00    -0.214 C  
BRANCH  20  24
HETATM   24  C   UNL     1     -11.742  12.447  66.574  1.00  0.00    -0.379 C  
HETATM   25  O   UNL     1     -12.319  13.290  67.573  1.00  0.00    -0.225 OA 
HETATM   26  H   UNL     1     -13.014  13.851  67.250  1.00  0.00     0.000 HD 
ENDBRANCH  20  24
BRANCH  23  27
HETATM   27  O   UNL     1      -8.759  13.048  67.154  1.00  0.00    -0.196 OA 
BRANCH  27  28
HETATM   28  C   UNL     1      -7.343  13.030  67.374  1.00  0.00    -0.116 C  
HETATM   29  O   UNL     1      -6.743  14.213  66.868  1.00  0.00     0.179 OA 
HETATM   30  C   UNL     1      -7.247  15.391  67.501  1.00  0.00    -0.196 C  
HETATM   31  C   UNL     1      -6.846  15.385  68.998  1.00  0.00    -0.136 C  
HETATM   32  C   UNL     1      -6.699  16.564  66.690  1.00  0.00    -0.117 C  
HETATM   33  C   UNL     1      -7.410  14.102  69.667  1.00  0.00     0.176 C  
HETATM   34  H   UNL     1      -7.211  13.153  71.398  1.00  0.00     0.000 HD 
HETATM   35  C   UNL     1      -7.032  12.852  68.869  1.00  0.00    -0.084 C  
HETATM   36  O   UNL     1      -6.867  13.938  70.989  1.00  0.00     0.472 OA 
HETATM   37  O   UNL     1      -7.692  11.697  69.417  1.00  0.00    -0.349 OA 
HETATM   38  H   UNL     1      -7.500  11.587  70.341  1.00  0.00     0.000 HD 
BRANCH  31  39
HETATM   39  N   UNL     1      -7.286  16.648  69.641  1.00  0.00    -0.005 NA 
HETATM   40  H   UNL     1      -6.635  17.254  70.143  1.00  0.00     0.000 HD 
BRANCH  39  41
HETATM   41  C   UNL     1      -8.735  16.980  69.512  1.00  0.00     0.510 C  
HETATM   42  C   UNL     1      -9.731  17.372  67.218  1.00  0.00    -0.267 C  
HETATM   43  C   UNL     1      -8.973  17.749  68.248  1.00  0.00    -0.277 C  
HETATM   44  C   UNL     1     -10.552  16.112  67.268  1.00  0.00    -0.305 C  
HETATM   45  H   UNL     1      -9.108  13.702  69.489  1.00  0.00     0.000 HD 
HETATM   46  O   UNL     1      -8.627  14.519  69.426  1.00  0.00     0.029 OA 
HETATM   47  C   UNL     1     -10.727  15.477  68.671  1.00  0.00    -0.252 C  
HETATM   48  O   UNL     1      -9.970  15.179  66.361  1.00  0.00    -0.248 OA 
HETATM   49  H   UNL     1     -12.003  15.625  70.171  1.00  0.00     0.000 HD 
HETATM   50  O   UNL     1     -11.896  16.014  69.311  1.00  0.00    -0.345 OA 
HETATM   51  C   UNL     1      -9.527  15.634  69.616  1.00  0.00    -0.243 C  
HETATM   52  H   UNL     1     -10.488  14.384  66.393  1.00  0.00     0.000 HD 
BRANCH  42  53
HETATM   53  C   UNL     1      -9.819  18.153  65.925  1.00  0.00    -0.033 C  
HETATM   54  O   UNL     1     -11.072  17.977  65.273  1.00  0.00    -0.435 OA 
HETATM   55  H   UNL     1     -11.127  18.466  64.460  1.00  0.00     0.000 HD 
ENDBRANCH  42  53
ENDBRANCH  39  41
ENDBRANCH  31  39
ENDBRANCH  27  28
ENDBRANCH  23  27
ENDBRANCH  13  14
ENDBRANCH   4  13
ENDBRANCH   1   4
BRANCH   1  56
HETATM   56  C   UNL     1     -12.993   9.544  70.658  1.00  0.00     0.096 C  
HETATM   57  O   UNL     1     -12.733   9.802  72.040  1.00  0.00    -0.388 OA 
HETATM   58  H   UNL     1     -13.474   9.503  72.554  1.00  0.00     0.000 HD 
ENDBRANCH   1  56
TORSDOF 12
ENDMDL
MODEL      275
REMARK 921   NORMALIZED FREE ENERGY PREDICTED BY IDOCK:    5.73 KCAL/MOL
REMARK 922        TOTAL FREE ENERGY PREDICTED BY IDOCK:    6.56 KCAL/MOL
REMARK 923 INTER-LIGAND FREE ENERGY PREDICTED BY IDOCK:    0.53 KCAL/MOL
REMARK 924 INTRA-LIGAND FREE ENERGY PREDICTED BY IDOCK:    6.03 KCAL/MOL
REMARK 927      BINDING AFFINITY PREDICTED BY RF-SCORE:    0.00 PKD
ROOT
HETATM    1  C   UNL     1     -11.621   9.768  70.102  1.00  0.00    -0.182 C  
HETATM    2  H   UNL     1     -12.892   8.407  69.565  1.00  0.00     0.000 HD 
HETATM    3  O   UNL     1     -12.833   9.350  69.461  1.00  0.00     1.496 OA 
ENDROOT
BRANCH   1   4
HETATM    4  C   UNL     1     -10.367   9.007  69.576  1.00  0.00    -0.209 C  
BRANCH   4   5
HETATM    5  C   UNL     1      -9.073   9.879  69.622  1.00  0.00    -0.227 C  
HETATM    6  O   UNL     1      -8.119   9.457  68.634  1.00  0.00    -0.101 OA 
HETATM    7  H   UNL     1      -7.332   9.988  68.662  1.00  0.00     0.000 HD 
BRANCH   5   8
HETATM    8  C   UNL     1      -8.347   9.883  70.974  1.00  0.00     0.974 C  
HETATM    9  C   UNL     1      -6.859  10.087  70.797  1.00  0.00     0.027 C  
HETATM   10  O   UNL     1      -8.563   8.603  71.589  1.00  0.00    -0.170 OA 
HETATM   11  O   UNL     1      -6.336  11.199  70.798  1.00  0.00    -0.344 OA 
HETATM   12  H   UNL     1      -8.114   8.606  72.426  1.00  0.00     0.000 HD 
ENDBRANCH   5   8
ENDBRANCH   4   5
BRANCH   4  13
HETATM   13  O   UNL     1     -10.549   8.488  68.236  1.00  0.00    -0.198 OA 
BRANCH  13  14
HETATM   14  C   UNL     1     -10.476   7.057  68.127  1.00  0.00    -0.201 C  
HETATM   15  H   UNL     1      -6.944   6.495  69.903  1.00  0.00     0.000 HD 
HETATM   16  O   UNL     1      -9.328   6.837  70.323  1.00  0.00    -0.159 OA 
HETATM   17  C   UNL     1      -9.274   6.522  68.923  1.00  0.00    -0.129 C  
HETATM   18  O   UNL     1     -10.356   6.592  66.790  1.00  0.00    -0.219 OA 
HETATM   19  O   UNL     1      -6.874   6.393  68.961  1.00  0.00    -0.061 OA 
HETATM   20  C   UNL     1      -9.213   7.101  66.096  1.00  0.00    -0.082 C  
HETATM   21  H   UNL     1      -8.585   6.507  70.815  1.00  0.00     0.000 HD 
HETATM   22  C   UNL     1      -7.981   7.086  68.349  1.00  0.00    -0.123 C  
HETATM   23  C   UNL     1      -7.869   6.921  66.825  1.00  0.00    -0.107 C  
BRANCH  20  24
HETATM   24  C   UNL     1      -9.205   6.456  64.691  1.00  0.00     1.003 C  
HETATM   25  O   UNL     1      -7.988   5.779  64.370  1.00  0.00    -0.114 OA 
HETATM   26  H   UNL     1      -7.984   5.383  63.506  1.00  0.00     0.000 HD 
ENDBRANCH  20  24
BRANCH  23  27
HETATM   27  O   UNL     1      -6.969   7.915  66.262  1.00  0.00    -0.061 OA 
BRANCH  27  28
HETATM   28  C   UNL     1      -7.471   8.527  65.067  1.00  0.00    -0.089 C  
HETATM   29  O   UNL     1      -8.685   9.214  65.330  1.00  0.00    -0.163 OA 
HETATM   30  C   UNL     1      -8.521  10.258  66.294  1.00  0.00    -0.135 C  
HETATM   31  C   UNL     1      -7.593  11.355  65.714  1.00  0.00     0.373 C  
HETATM   32  C   UNL     1      -9.933  10.723  66.644  1.00  0.00    -0.251 C  
HETATM   33  C   UNL     1      -6.228  10.716  65.338  1.00  0.00    -0.071 C  
HETATM   34  H   UNL     1      -4.591  11.250  64.353  1.00  0.00     0.000 HD 
HETATM   35  C   UNL     1      -6.422   9.474  64.464  1.00  0.00    -0.093 C  
HETATM   36  O   UNL     1      -5.426  11.641  64.583  1.00  0.00     0.741 OA 
HETATM   37  O   UNL     1      -5.161   8.813  64.260  1.00  0.00    -0.049 OA 
HETATM   38  H   UNL     1      -4.513   9.398  63.887  1.00  0.00     0.000 HD 
BRANCH  31  39
HETATM   39  N   UNL     1      -7.492  12.485  66.670  1.00  0.00    -0.324 NA 
HETATM   40  H   UNL     1      -6.958  12.413  67.536  1.00  0.00     0.000 HD 
BRANCH  39  41
HETATM   41  C   UNL     1      -8.218  13.732  66.290  1.00  0.00     1.132 C  
HETATM   42  C   UNL     1      -9.977  14.681  67.844  1.00  0.00    -0.221 C  
HETATM   43  C   UNL     1      -9.556  13.771  66.965  1.00  0.00    -0.251 C  
HETATM   44  C   UNL     1      -9.143  15.884  68.188  1.00  0.00    -0.182 C  
HETATM   45  H   UNL     1      -5.652  15.227  67.727  1.00  0.00     0.000 HD 
HETATM   46  O   UNL     1      -6.223  14.496  67.519  1.00  0.00    -0.313 OA 
HETATM   47  C   UNL     1      -7.954  16.176  67.236  1.00  0.00    -0.174 C  
HETATM   48  O   UNL     1      -8.687  15.728  69.529  1.00  0.00    -0.259 OA 
HETATM   49  H   UNL     1      -7.651  17.215  65.584  1.00  0.00     0.000 HD 
HETATM   50  O   UNL     1      -8.380  17.037  66.167  1.00  0.00    -0.391 OA 
HETATM   51  C   UNL     1      -7.278  14.935  66.634  1.00  0.00     1.159 C  
HETATM   52  H   UNL     1      -8.160  16.488  69.746  1.00  0.00     0.000 HD 
BRANCH  42  53
HETATM   53  C   UNL     1     -11.299  14.578  68.574  1.00  0.00    -0.286 C  
HETATM   54  O   UNL     1     -12.258  15.509  68.086  1.00  0.00    -0.409 OA 
HETATM   55  H   UNL     1     -13.088  15.445  68.544  1.00  0.00     0.000 HD 
ENDBRANCH  42  53
ENDBRANCH  39  41
ENDBRANCH  31  39
ENDBRANCH  27  28
ENDBRANCH  23  27
ENDBRANCH  13  14
ENDBRANCH   4  13
ENDBRANCH   1   4
BRANCH   1  56
HETATM   56  C   UNL     1     -11.526  11.287  69.935  1.00  0.00    -0.293 C  
HETATM   57  O   UNL     1     -12.815  11.796  69.583  1.00  0.00     0.264 OA 
HETATM   58  H   UNL     1     -12.757  12.738  69.479  1.00  0.00     0.000 HD 
ENDBRANCH   1  56
TORSDOF 12
ENDMDL
MODEL      276
REMARK 921   NORMALIZED FREE ENERGY PREDICTED BY IDOCK:    5.87 KCAL/MOL
REMARK 922        TOTAL FREE ENERGY PREDICTED BY IDOCK:    6.80 KCAL/MOL
REMARK 923 INTER-LIGAND FREE ENERGY PREDICTED BY IDOCK:   -6.17 KCAL/MOL
REMARK 924 INTRA-LIGAND FREE ENERGY PREDICTED BY IDOCK:   12.96 KCAL/MOL
REMARK 927      BINDING AFFINITY PREDICTED BY RF-SCORE:    0.00 PKD
ROOT
HETATM    1  C   UNL     1      -8.465   6.880  65.007  1.00  0.00     0.020 C  
HETATM    2  H   UNL     1      -6.985   6.117  64.014  1.00  0.00     0.000 HD 
HETATM    3  O   UNL     1      -7.173   6.969  64.392  1.00  0.00    -0.061 OA 
ENDROOT
BRANCH   1   4
HETATM    4  C   UNL     1      -8.567   5.712  66.032  1.00  0.00    -0.137 C  
BRANCH   4   5
HETATM    5  C   UNL     1      -8.492   4.308  65.352  1.00  0.00    -0.118 C  
HETATM    6  O   UNL     1      -9.549   3.448  65.804  1.00  0.00    -0.295 OA 
HETATM    7  H   UNL     1      -9.504   2.594  65.390  1.00  0.00     0.000 HD 
BRANCH   5   8
HETATM    8  C   UNL     1      -7.174   3.555  65.574  1.00  0.00    -0.071 C  
HETATM    9  C   UNL     1      -7.102   2.973  66.969  1.00  0.00    -0.057 C  
HETATM   10  O   UNL     1      -6.101   4.496  65.416  1.00  0.00    -0.022 OA 
HETATM   11  O   UNL     1      -7.502   1.843  67.239  1.00  0.00    -0.058 OA 
HETATM   12  H   UNL     1      -5.285   4.030  65.554  1.00  0.00     0.000 HD 
ENDBRANCH   5   8
ENDBRANCH   4   5
BRANCH   4  13
HETATM   13  O   UNL     1      -9.761   5.786  66.848  1.00  0.00    -0.132 OA 
BRANCH  13  14
HETATM   14  C   UNL     1      -9.601   5.316  68.197  1.00  0.00    -0.129 C  
HETATM   15  H   UNL     1     -11.559   8.238  70.089  1.00  0.00     0.000 HD 
HETATM   16  O   UNL     1     -11.851   6.140  68.867  1.00  0.00    -0.089 OA 
HETATM   17  C   UNL     1     -10.445   6.166  69.161  1.00  0.00    -0.251 C  
HETATM   18  O   UNL     1      -8.257   5.343  68.656  1.00  0.00    -0.094 OA 
HETATM   19  O   UNL     1     -10.620   8.328  70.199  1.00  0.00    -0.225 OA 
HETATM   20  C   UNL     1      -7.651   6.639  68.613  1.00  0.00    -0.101 C  
HETATM   21  H   UNL     1     -12.373   6.665  69.463  1.00  0.00     0.000 HD 
HETATM   22  C   UNL     1      -9.971   7.613  69.127  1.00  0.00    -0.181 C  
HETATM   23  C   UNL     1      -8.451   7.759  69.303  1.00  0.00    -0.138 C  
BRANCH  20  24
HETATM   24  C   UNL     1      -6.226   6.498  69.194  1.00  0.00    -0.034 C  
HETATM   25  O   UNL     1      -5.430   5.505  68.544  1.00  0.00    -0.007 OA 
HETATM   26  H   UNL     1      -4.554   5.419  68.901  1.00  0.00     0.000 HD 
ENDBRANCH  20  24
BRANCH  23  27
HETATM   27  O   UNL     1      -7.980   9.007  68.721  1.00  0.00    -0.098 OA 
BRANCH  27  28
HETATM   28  C   UNL     1      -8.391  10.167  69.454  1.00  0.00    -0.168 C  
HETATM   29  O   UNL     1      -8.025  11.351  68.762  1.00  0.00    -0.143 OA 
HETATM   30  C   UNL     1      -8.635  11.438  67.472  1.00  0.00    -0.137 C  
HETATM   31  C   UNL     1     -10.171  11.564  67.634  1.00  0.00    -0.184 C  
HETATM   32  C   UNL     1      -7.960  12.614  66.772  1.00  0.00     0.115 C  
HETATM   33  C   UNL     1     -10.699  10.337  68.426  1.00  0.00    -0.226 C  
HETATM   34  H   UNL     1     -12.396   9.778  69.287  1.00  0.00     0.000 HD 
HETATM   35  C   UNL     1      -9.905  10.131  69.718  1.00  0.00    -0.208 C  
HETATM   36  O   UNL     1     -12.074  10.529  68.803  1.00  0.00    -0.306 OA 
HETATM   37  O   UNL     1     -10.306   8.904  70.354  1.00  0.00    -0.188 OA 
HETATM   38  H   UNL     1     -11.240   8.881  70.517  1.00  0.00     0.000 HD 
BRANCH  31  39
HETATM   39  N   UNL     1     -10.804  11.747  66.305  1.00  0.00    -0.271 NA 
HETATM   40  H   UNL     1     -10.582  11.142  65.513  1.00  0.00     0.000 HD 
BRANCH  39  41
HETATM   41  C   UNL     1     -11.784  12.866  66.194  1.00  0.00    -0.396 C  
HETATM   42  C   UNL     1     -11.806  14.692  67.948  1.00  0.00    -0.352 C  
HETATM   43  C   UNL     1     -12.057  13.444  67.550  1.00  0.00    -0.323 C  
HETATM   44  C   UNL     1     -11.290  15.732  66.991  1.00  0.00     0.016 C  
HETATM   45  H   UNL     1      -9.453  14.236  64.305  1.00  0.00     0.000 HD 
HETATM   46  O   UNL     1      -9.803  13.619  64.937  1.00  0.00    -0.195 OA 
HETATM   47  C   UNL     1     -11.391  15.372  65.486  1.00  0.00    -0.164 C  
HETATM   48  O   UNL     1      -9.943  16.023  67.351  1.00  0.00    -0.235 OA 
HETATM   49  H   UNL     1     -12.713  15.593  64.036  1.00  0.00     0.000 HD 
HETATM   50  O   UNL     1     -12.652  15.813  64.958  1.00  0.00     0.686 OA 
HETATM   51  C   UNL     1     -11.207  13.884  65.155  1.00  0.00    -0.326 C  
HETATM   52  H   UNL     1      -9.617  16.679  66.746  1.00  0.00     0.000 HD 
BRANCH  42  53
HETATM   53  C   UNL     1     -11.996  15.160  69.374  1.00  0.00    -0.307 C  
HETATM   54  O   UNL     1     -10.833  14.956  70.169  1.00  0.00    -0.382 OA 
HETATM   55  H   UNL     1     -10.952  15.250  71.065  1.00  0.00     0.000 HD 
ENDBRANCH  42  53
ENDBRANCH  39  41
ENDBRANCH  31  39
ENDBRANCH  27  28
ENDBRANCH  23  27
ENDBRANCH  13  14
ENDBRANCH   4  13
ENDBRANCH   1   4
BRANCH   1  56
HETATM   56  C   UNL     1      -8.767   8.252  65.615  1.00  0.00    -0.156 C  
HETATM   57  O   UNL     1     -10.185   8.428  65.679  1.00  0.00    -0.042 OA 
HETATM   58  H   UNL     1     -10.373   9.280  66.057  1.00  0.00     0.000 HD 
ENDBRANCH   1  56
TORSDOF 12
ENDMDL
MODEL      277
REMARK 921   NORMALIZED FREE ENERGY PREDICTED BY IDOCK:    6.47 KCAL/MOL
REMARK 922        TOTAL FREE ENERGY PREDICTED BY IDOCK:    7.81 KCAL/MOL
REMARK 923 INTER-LIGAND FREE ENERGY PREDICTED BY IDOCK:   -2.81 KCAL/MOL
REMARK 924 INTRA-LIGAND FREE ENERGY PREDICTED BY IDOCK:   10.62 KCAL/MOL
REMARK 927      BINDING AFFINITY PREDICTED BY RF-SCORE:    0.00 PKD
ROOT
HETATM    1  C   UNL     1      -9.137  15.644  67.220  1.00  0.00    -0.205 C  
HETATM    2  H   UNL     1      -7.473  16.514  66.739  1.00  0.00     0.000 HD 
HETATM    3  O   UNL     1      -8.378  16.590  66.457  1.00  0.00    -0.231 OA 
ENDROOT
BRANCH   1   4
HETATM    4  C   UNL     1      -8.950  15.818  68.757  1.00  0.00    -0.214 C  
BRANCH   4   5
HETATM    5  C   UNL     1     -10.269  15.572  69.555  1.00  0.00    -0.279 C  
HETATM    6  O   UNL     1     -11.120  14.630  68.885  1.00  0.00    -0.233 OA 
HETATM    7  H   UNL     1     -11.923  14.480  69.371  1.00  0.00     0.000 HD 
BRANCH   5   8
HETATM    8  C   UNL     1     -11.107  16.830  69.816  1.00  0.00    -0.013 C  
HETATM    9  C   UNL     1     -10.518  18.037  69.120  1.00  0.00     0.069 C  
HETATM   10  O   UNL     1     -11.104  17.072  71.231  1.00  0.00    -0.058 OA 
HETATM   11  O   UNL     1     -10.835  18.367  67.979  1.00  0.00    -0.313 OA 
HETATM   12  H   UNL     1     -11.623  17.850  71.393  1.00  0.00     0.000 HD 
ENDBRANCH   5   8
ENDBRANCH   4   5
BRANCH   4  13
HETATM   13  O   UNL     1      -8.411  17.115  69.110  1.00  0.00    -0.157 OA 
BRANCH  13  14
HETATM   14  C   UNL     1      -6.980  17.159  69.246  1.00  0.00    -0.186 C  
HETATM   15  H   UNL     1      -5.989  15.584  65.713  1.00  0.00     0.000 HD 
HETATM   16  O   UNL     1      -6.655  17.655  66.830  1.00  0.00    -0.154 OA 
HETATM   17  C   UNL     1      -6.306  16.782  67.917  1.00  0.00    -0.139 C  
HETATM   18  O   UNL     1      -6.476  16.292  70.252  1.00  0.00     0.003 OA 
HETATM   19  O   UNL     1      -5.859  14.958  66.416  1.00  0.00     1.989 OA 
HETATM   20  C   UNL     1      -6.814  14.915  70.058  1.00  0.00    -0.129 C  
HETATM   21  H   UNL     1      -6.238  17.421  66.009  1.00  0.00     0.000 HD 
HETATM   22  C   UNL     1      -6.681  15.357  67.532  1.00  0.00    -0.181 C  
HETATM   23  C   UNL     1      -6.471  14.345  68.670  1.00  0.00    -0.087 C  
BRANCH  20  24
HETATM   24  C   UNL     1      -6.145  14.113  71.199  1.00  0.00    -0.091 C  
HETATM   25  O   UNL     1      -6.921  13.007  71.663  1.00  0.00     2.452 OA 
HETATM   26  H   UNL     1      -6.509  12.515  72.364  1.00  0.00     0.000 HD 
ENDBRANCH  20  24
BRANCH  23  27
HETATM   27  O   UNL     1      -7.325  13.180  68.490  1.00  0.00    -0.103 OA 
BRANCH  27  28
HETATM   28  C   UNL     1      -7.034  12.439  67.299  1.00  0.00    -0.129 C  
HETATM   29  O   UNL     1      -6.019  11.477  67.544  1.00  0.00    -0.055 OA 
HETATM   30  C   UNL     1      -6.400  10.527  68.541  1.00  0.00    -0.050 C  
HETATM   31  C   UNL     1      -7.592   9.683  68.022  1.00  0.00    -0.083 C  
HETATM   32  C   UNL     1      -5.137   9.732  68.861  1.00  0.00    -0.036 C  
HETATM   33  C   UNL     1      -8.769  10.633  67.670  1.00  0.00    -0.121 C  
HETATM   34  H   UNL     1     -10.523  10.504  66.752  1.00  0.00     0.000 HD 
HETATM   35  C   UNL     1      -8.306  11.770  66.756  1.00  0.00    -0.165 C  
HETATM   36  O   UNL     1      -9.803   9.922  66.967  1.00  0.00    -0.174 OA 
HETATM   37  O   UNL     1      -9.371  12.720  66.571  1.00  0.00    -0.238 OA 
HETATM   38  H   UNL     1     -10.157  12.307  66.235  1.00  0.00     0.000 HD 
BRANCH  31  39
HETATM   39  N   UNL     1      -7.935   8.634  69.013  1.00  0.00    -0.113 NA 
HETATM   40  H   UNL     1      -7.891   7.640  68.785  1.00  0.00     0.000 HD 
BRANCH  39  41
HETATM   41  C   UNL     1      -8.348   9.117  70.363  1.00  0.00    -0.185 C  
HETATM   42  C   UNL     1     -10.707   9.963  70.723  1.00  0.00    -0.350 C  
HETATM   43  C   UNL     1      -9.474  10.097  70.232  1.00  0.00     0.105 C  
HETATM   44  C   UNL     1     -11.082   8.794  71.594  1.00  0.00    -0.327 C  
HETATM   45  H   UNL     1      -9.044   5.935  70.887  1.00  0.00     0.000 HD 
HETATM   46  O   UNL     1      -8.843   6.703  70.364  1.00  0.00    -0.149 OA 
HETATM   47  C   UNL     1      -9.898   7.963  72.152  1.00  0.00    -0.205 C  
HETATM   48  O   UNL     1     -11.972   7.967  70.850  1.00  0.00    -0.389 OA 
HETATM   49  H   UNL     1      -8.748   7.989  73.757  1.00  0.00     0.000 HD 
HETATM   50  O   UNL     1      -9.473   8.499  73.415  1.00  0.00    -0.071 OA 
HETATM   51  C   UNL     1      -8.679   7.853  71.224  1.00  0.00    -0.134 C  
HETATM   52  H   UNL     1     -12.209   7.229  71.400  1.00  0.00     0.000 HD 
BRANCH  42  53
HETATM   53  C   UNL     1     -11.823  10.944  70.440  1.00  0.00    -0.357 C  
HETATM   54  O   UNL     1     -12.637  10.535  69.346  1.00  0.00    -0.701 OA 
HETATM   55  H   UNL     1     -13.337  11.152  69.167  1.00  0.00     0.000 HD 
ENDBRANCH  42  53
ENDBRANCH  39  41
ENDBRANCH  31  39
ENDBRANCH  27  28
ENDBRANCH  23  27
ENDBRANCH  13  14
ENDBRANCH   4  13
ENDBRANCH   1   4
BRANCH   1  56
HETATM   56  C   UNL     1     -10.594  15.766  66.766  1.00  0.00    -0.309 C  
HETATM   57  O   UNL     1     -10.779  14.982  65.585  1.00  0.00    -0.315 OA 
HETATM   58  H   UNL     1     -11.683  15.058  65.303  1.00  0.00     0.000 HD 
ENDBRANCH   1  56
TORSDOF 12
ENDMDL
MODEL      278
REMARK 921   NORMALIZED FREE ENERGY PREDICTED BY IDOCK:    6.48 KCAL/MOL
REMARK 922        TOTAL FREE ENERGY PREDICTED BY IDOCK:    7.84 KCAL/MOL
REMARK 923 INTER-LIGAND FREE ENERGY PREDICTED BY IDOCK:   -0.41 KCAL/MOL
REMARK 924 INTRA-LIGAND FREE ENERGY PREDICTED BY IDOCK:    8.25 KCAL/MOL
REMARK 927      BINDING AFFINITY PREDICTED BY RF-SCORE:    0.00 PKD
ROOT
HETATM    1  C   UNL     1     -12.222  11.488  69.387  1.00  0.00    -0.207 C  
HETATM    2  H   UNL     1     -12.988  11.068  71.117  1.00  0.00     0.000 HD 
HETATM    3  O   UNL     1     -12.789  10.571  70.332  1.00  0.00    -0.331 OA 
ENDROOT
BRANCH   1   4
HETATM    4  C   UNL     1     -10.998  12.264  69.958  1.00  0.00     0.631 C  
BRANCH   4   5
HETATM    5  C   UNL     1     -11.196  13.812  69.918  1.00  0.00     0.007 C  
HETATM    6  O   UNL     1     -12.429  14.201  70.544  1.00  0.00    -0.326 OA 
HETATM    7  H   UNL     1     -12.549  15.143  70.520  1.00  0.00     0.000 HD 
BRANCH   5   8
HETATM    8  C   UNL     1     -11.194  14.425  68.512  1.00  0.00    -0.265 C  
HETATM    9  C   UNL     1     -11.010  15.925  68.567  1.00  0.00    -0.324 C  
HETATM   10  O   UNL     1     -12.467  14.143  67.910  1.00  0.00    -0.524 OA 
HETATM   11  O   UNL     1      -9.905  16.462  68.530  1.00  0.00    -0.217 OA 
HETATM   12  H   UNL     1     -12.465  14.522  67.039  1.00  0.00     0.000 HD 
ENDBRANCH   5   8
ENDBRANCH   4   5
BRANCH   4  13
HETATM   13  O   UNL     1      -9.759  11.922  69.291  1.00  0.00     0.210 OA 
BRANCH  13  14
HETATM   14  C   UNL     1      -8.732  12.924  69.372  1.00  0.00     1.264 C  
HETATM   15  H   UNL     1      -7.687  13.031  65.519  1.00  0.00     0.000 HD 
HETATM   16  O   UNL     1      -9.316  13.861  67.143  1.00  0.00    -0.224 OA 
HETATM   17  C   UNL     1      -8.265  13.325  67.963  1.00  0.00    -0.162 C  
HETATM   18  O   UNL     1      -7.589  12.512  70.108  1.00  0.00     1.386 OA 
HETATM   19  O   UNL     1      -7.035  12.575  66.039  1.00  0.00     1.279 OA 
HETATM   20  C   UNL     1      -6.956  11.336  69.593  1.00  0.00    -0.056 C  
HETATM   21  H   UNL     1      -9.028  14.109  66.272  1.00  0.00     0.000 HD 
HETATM   22  C   UNL     1      -7.666  12.119  67.253  1.00  0.00    -0.168 C  
HETATM   23  C   UNL     1      -6.612  11.381  68.094  1.00  0.00    -0.057 C  
BRANCH  20  24
HETATM   24  C   UNL     1      -5.711  11.065  70.470  1.00  0.00    -0.133 C  
HETATM   25  O   UNL     1      -5.706  11.780  71.707  1.00  0.00    -0.189 OA 
HETATM   26  H   UNL     1      -4.941  11.613  72.245  1.00  0.00     0.000 HD 
ENDBRANCH  20  24
BRANCH  23  27
HETATM   27  O   UNL     1      -6.488   9.995  67.668  1.00  0.00    -0.062 OA 
BRANCH  27  28
HETATM   28  C   UNL     1      -7.713   9.258  67.762  1.00  0.00    -0.088 C  
HETATM   29  O   UNL     1      -7.690   8.136  66.893  1.00  0.00    -0.093 OA 
HETATM   30  C   UNL     1      -6.633   7.226  67.207  1.00  0.00    -0.063 C  
HETATM   31  C   UNL     1      -6.884   6.606  68.604  1.00  0.00    -0.070 C  
HETATM   32  C   UNL     1      -6.590   6.227  66.054  1.00  0.00    -0.048 C  
HETATM   33  C   UNL     1      -6.977   7.746  69.655  1.00  0.00    -0.048 C  
HETATM   34  H   UNL     1      -7.498   7.934  71.560  1.00  0.00     0.000 HD 
HETATM   35  C   UNL     1      -7.970   8.823  69.214  1.00  0.00    -0.108 C  
HETATM   36  O   UNL     1      -7.441   7.236  70.918  1.00  0.00    -0.074 OA 
HETATM   37  O   UNL     1      -7.924   9.939  70.121  1.00  0.00    -0.177 OA 
HETATM   38  H   UNL     1      -8.083   9.671  71.018  1.00  0.00     0.000 HD 
BRANCH  31  39
HETATM   39  N   UNL     1      -5.842   5.592  68.899  1.00  0.00    -0.018 NA 
HETATM   40  H   UNL     1      -4.846   5.801  68.819  1.00  0.00     0.000 HD 
BRANCH  39  41
HETATM   41  C   UNL     1      -6.335   4.248  69.319  1.00  0.00    -0.029 C  
HETATM   42  C   UNL     1      -8.450   4.064  70.698  1.00  0.00    -0.097 C  
HETATM   43  C   UNL     1      -7.160   4.372  70.565  1.00  0.00    -0.041 C  
HETATM   44  C   UNL     1      -9.225   3.428  69.576  1.00  0.00    -0.155 C  
HETATM   45  H   UNL     1      -7.843   4.287  66.386  1.00  0.00     0.000 HD 
HETATM   46  O   UNL     1      -7.385   4.663  67.129  1.00  0.00    -0.075 OA 
HETATM   47  C   UNL     1      -8.377   2.855  68.411  1.00  0.00    -0.066 C  
HETATM   48  O   UNL     1     -10.159   4.390  69.094  1.00  0.00    -0.123 OA 
HETATM   49  H   UNL     1      -7.521   1.133  67.963  1.00  0.00     0.000 HD 
HETATM   50  O   UNL     1      -8.041   1.483  68.677  1.00  0.00    -0.049 OA 
HETATM   51  C   UNL     1      -7.089   3.629  68.096  1.00  0.00    -0.051 C  
HETATM   52  H   UNL     1     -10.648   3.988  68.385  1.00  0.00     0.000 HD 
BRANCH  42  53
HETATM   53  C   UNL     1      -9.241   4.337  71.959  1.00  0.00    -0.124 C  
HETATM   54  O   UNL     1      -8.437   4.904  72.988  1.00  0.00    -0.107 OA 
HETATM   55  H   UNL     1      -8.934   5.075  73.780  1.00  0.00     0.000 HD 
ENDBRANCH  42  53
ENDBRANCH  39  41
ENDBRANCH  31  39
ENDBRANCH  27  28
ENDBRANCH  23  27
ENDBRANCH  13  14
ENDBRANCH   4  13
ENDBRANCH   1   4
BRANCH   1  56
HETATM   56  C   UNL     1     -11.900  10.687  68.123  1.00  0.00     0.166 C  
HETATM   57  O   UNL     1     -11.523  11.594  67.084  1.00  0.00    -0.403 OA 
HETATM   58  H   UNL     1     -11.322  11.098  66.299  1.00  0.00     0.000 HD 
ENDBRANCH   1  56
TORSDOF 12
ENDMDL
MODEL      279
REMARK 921   NORMALIZED FREE ENERGY PREDICTED BY IDOCK:    6.52 KCAL/MOL
REMARK 922        TOTAL FREE ENERGY PREDICTED BY IDOCK:    7.90 KCAL/MOL
REMARK 923 INTER-LIGAND FREE ENERGY PREDICTED BY IDOCK:   -4.99 KCAL/MOL
REMARK 924 INTRA-LIGAND FREE ENERGY PREDICTED BY IDOCK:   12.90 KCAL/MOL
REMARK 927      BINDING AFFINITY PREDICTED BY RF-SCORE:    0.00 PKD
ROOT
HETATM    1  C   UNL     1      -9.849   7.942  73.004  1.00  0.00    -0.289 C  
HETATM    2  H   UNL     1      -9.508   9.826  72.702  1.00  0.00     0.000 HD 
HETATM    3  O   UNL     1      -9.208   9.181  73.332  1.00  0.00     0.650 OA 
ENDROOT
BRANCH   1   4
HETATM    4  C   UNL     1      -9.618   7.517  71.523  1.00  0.00    -0.154 C  
BRANCH   4   5
HETATM    5  C   UNL     1     -10.038   6.039  71.249  1.00  0.00    -0.192 C  
HETATM    6  O   UNL     1      -8.916   5.238  70.850  1.00  0.00    -0.132 OA 
HETATM    7  H   UNL     1      -9.172   4.338  70.683  1.00  0.00     0.000 HD 
BRANCH   5   8
HETATM    8  C   UNL     1     -11.119   5.866  70.174  1.00  0.00    -0.325 C  
HETATM    9  C   UNL     1     -10.517   5.439  68.854  1.00  0.00    -0.168 C  
HETATM   10  O   UNL     1     -11.763   7.137  69.993  1.00  0.00    -0.523 OA 
HETATM   11  O   UNL     1     -10.371   4.260  68.540  1.00  0.00     0.187 OA 
HETATM   12  H   UNL     1     -12.432   7.030  69.327  1.00  0.00     0.000 HD 
ENDBRANCH   5   8
ENDBRANCH   4   5
BRANCH   4  13
HETATM   13  O   UNL     1      -8.249   7.714  71.092  1.00  0.00    -0.098 OA 
BRANCH  13  14
HETATM   14  C   UNL     1      -7.908   9.071  70.763  1.00  0.00    -0.136 C  
HETATM   15  H   UNL     1     -11.008   9.913  68.390  1.00  0.00     0.000 HD 
HETATM   16  O   UNL     1     -10.293   9.778  70.725  1.00  0.00    -0.294 OA 
HETATM   17  C   UNL     1      -9.059   9.738  69.991  1.00  0.00    -0.223 C  
HETATM   18  O   UNL     1      -6.731   9.189  69.977  1.00  0.00    -0.041 OA 
HETATM   19  O   UNL     1     -10.215   9.779  67.884  1.00  0.00    -0.171 OA 
HETATM   20  C   UNL     1      -6.784   8.481  68.735  1.00  0.00    -0.058 C  
HETATM   21  H   UNL     1     -11.004  10.189  70.247  1.00  0.00     0.000 HD 
HETATM   22  C   UNL     1      -9.298   9.000  68.681  1.00  0.00    -0.136 C  
HETATM   23  C   UNL     1      -8.016   8.783  67.862  1.00  0.00    -0.107 C  
BRANCH  20  24
HETATM   24  C   UNL     1      -5.459   8.761  67.990  1.00  0.00    -0.035 C  
HETATM   25  O   UNL     1      -5.492   9.928  67.166  1.00  0.00    -0.041 OA 
HETATM   26  H   UNL     1      -4.677  10.100  66.709  1.00  0.00     0.000 HD 
ENDBRANCH  20  24
BRANCH  23  27
HETATM   27  O   UNL     1      -8.161   7.646  66.965  1.00  0.00    -0.114 OA 
BRANCH  27  28
HETATM   28  C   UNL     1      -8.162   8.012  65.579  1.00  0.00    -0.138 C  
HETATM   29  O   UNL     1      -9.397   8.614  65.222  1.00  0.00    -0.067 OA 
HETATM   30  C   UNL     1      -9.655   9.808  65.966  1.00  0.00    -0.235 C  
HETATM   31  C   UNL     1      -8.599  10.882  65.601  1.00  0.00    -0.160 C  
HETATM   32  C   UNL     1     -11.100  10.188  65.652  1.00  0.00     0.864 C  
HETATM   33  C   UNL     1      -7.182  10.323  65.905  1.00  0.00    -0.131 C  
HETATM   34  H   UNL     1      -5.302  10.846  65.551  1.00  0.00     0.000 HD 
HETATM   35  C   UNL     1      -6.983   8.946  65.267  1.00  0.00    -0.076 C  
HETATM   36  O   UNL     1      -6.168  11.189  65.365  1.00  0.00     0.084 OA 
HETATM   37  O   UNL     1      -5.729   8.383  65.690  1.00  0.00    -0.042 OA 
HETATM   38  H   UNL     1      -5.001   8.960  65.497  1.00  0.00     0.000 HD 
BRANCH  31  39
HETATM   39  N   UNL     1      -8.913  12.153  66.299  1.00  0.00    -0.368 NA 
HETATM   40  H   UNL     1      -8.221  12.642  66.867  1.00  0.00     0.000 HD 
BRANCH  39  41
HETATM   41  C   UNL     1     -10.300  12.673  66.120  1.00  0.00    -0.256 C  
HETATM   42  C   UNL     1     -10.899  14.972  66.996  1.00  0.00    -0.311 C  
HETATM   43  C   UNL     1     -10.608  13.684  67.183  1.00  0.00    -0.272 C  
HETATM   44  C   UNL     1     -11.057  15.548  65.615  1.00  0.00    -0.235 C  
HETATM   45  H   UNL     1      -9.146  13.708  63.208  1.00  0.00     0.000 HD 
HETATM   46  O   UNL     1      -9.082  13.380  64.098  1.00  0.00     1.524 OA 
HETATM   47  C   UNL     1     -11.197  14.516  64.466  1.00  0.00    -0.294 C  
HETATM   48  O   UNL     1      -9.954  16.418  65.378  1.00  0.00    -0.534 OA 
HETATM   49  H   UNL     1     -12.667  13.560  63.558  1.00  0.00     0.000 HD 
HETATM   50  O   UNL     1     -12.582  14.192  64.262  1.00  0.00    -0.676 OA 
HETATM   51  C   UNL     1     -10.406  13.213  64.655  1.00  0.00    -0.361 C  
HETATM   52  H   UNL     1     -10.054  16.781  64.506  1.00  0.00     0.000 HD 
BRANCH  42  53
HETATM   53  C   UNL     1     -11.075  15.956  68.132  1.00  0.00    -0.338 C  
HETATM   54  O   UNL     1      -9.832  16.474  68.594  1.00  0.00    -0.230 OA 
HETATM   55  H   UNL     1      -9.943  17.091  69.308  1.00  0.00     0.000 HD 
ENDBRANCH  42  53
ENDBRANCH  39  41
ENDBRANCH  31  39
ENDBRANCH  27  28
ENDBRANCH  23  27
ENDBRANCH  13  14
ENDBRANCH   4  13
ENDBRANCH   1   4
BRANCH   1  56
HETATM   56  C   UNL     1      -9.364   6.903  74.018  1.00  0.00    -0.225 C  
HETATM   57  O   UNL     1      -8.200   6.255  73.498  1.00  0.00    -0.116 OA 
HETATM   58  H   UNL     1      -7.899   5.610  74.128  1.00  0.00     0.000 HD 
ENDBRANCH   1  56
TORSDOF 12
ENDMDL
MODEL      280
REMARK 921   NORMALIZED FREE ENERGY PREDICTED BY IDOCK:    7.07 KCAL/MOL
REMARK 922        TOTAL FREE ENERGY PREDICTED BY IDOCK:    8.84 KCAL/MOL
REMARK 923 INTER-LIGAND FREE ENERGY PREDICTED BY IDOCK:    3.28 KCAL/MOL
REMARK 924 INTRA-LIGAND FREE ENERGY PREDICTED BY IDOCK:    5.56 KCAL/MOL
REMARK 927      BINDING AFFINITY PREDICTED BY RF-SCORE:    0.00 PKD
ROOT
HETATM    1  C   UNL     1     -12.404   9.759  69.360  1.00  0.00     0.950 C  
HETATM    2  H   UNL     1     -13.260  11.261  68.484  1.00  0.00     0.000 HD 
HETATM    3  O   UNL     1     -13.477  10.698  69.218  1.00  0.00     0.898 OA 
ENDROOT
BRANCH   1   4
HETATM    4  C   UNL     1     -11.013  10.448  69.498  1.00  0.00    -0.262 C  
BRANCH   4   5
HETATM    5  C   UNL     1      -9.842   9.421  69.608  1.00  0.00    -0.193 C  
HETATM    6  O   UNL     1      -8.807   9.896  70.482  1.00  0.00    -0.309 OA 
HETATM    7  H   UNL     1      -8.095   9.271  70.550  1.00  0.00     0.000 HD 
BRANCH   5   8
HETATM    8  C   UNL     1      -9.174   9.062  68.274  1.00  0.00    -0.136 C  
HETATM    9  C   UNL     1      -8.680   7.633  68.275  1.00  0.00    -0.123 C  
HETATM   10  O   UNL     1      -8.046   9.935  68.101  1.00  0.00    -0.103 OA 
HETATM   11  O   UNL     1      -9.371   6.690  67.895  1.00  0.00    -0.113 OA 
HETATM   12  H   UNL     1      -7.633   9.713  67.276  1.00  0.00     0.000 HD 
ENDBRANCH   5   8
ENDBRANCH   4   5
BRANCH   4  13
HETATM   13  O   UNL     1     -10.952  11.367  70.616  1.00  0.00     0.593 OA 
BRANCH  13  14
HETATM   14  C   UNL     1     -10.118  12.518  70.407  1.00  0.00     3.982 C  
HETATM   15  H   UNL     1     -12.979  15.282  70.059  1.00  0.00     0.000 HD 
HETATM   16  O   UNL     1     -11.661  14.003  71.673  1.00  0.00    -0.266 OA 
HETATM   17  C   UNL     1     -10.964  13.802  70.433  1.00  0.00     0.749 C  
HETATM   18  O   UNL     1      -9.405  12.492  69.179  1.00  0.00     0.345 OA 
HETATM   19  O   UNL     1     -12.598  15.074  69.213  1.00  0.00    -0.045 OA 
HETATM   20  C   UNL     1     -10.240  12.393  68.021  1.00  0.00    -0.219 C  
HETATM   21  H   UNL     1     -12.185  14.796  71.689  1.00  0.00     0.000 HD 
HETATM   22  C   UNL     1     -11.985  13.772  69.304  1.00  0.00    -0.352 C  
HETATM   23  C   UNL     1     -11.369  13.435  67.937  1.00  0.00    -0.289 C  
BRANCH  20  24
HETATM   24  C   UNL     1      -9.314  12.433  66.784  1.00  0.00    -0.220 C  
HETATM   25  O   UNL     1      -7.990  12.892  67.064  1.00  0.00    -0.344 OA 
HETATM   26  H   UNL     1      -7.422  12.917  66.303  1.00  0.00     0.000 HD 
ENDBRANCH  20  24
BRANCH  23  27
HETATM   27  O   UNL     1     -12.369  12.873  67.042  1.00  0.00    -0.360 OA 
BRANCH  27  28
HETATM   28  C   UNL     1     -12.792  13.782  66.018  1.00  0.00    -0.240 C  
HETATM   29  O   UNL     1     -12.755  15.120  66.491  1.00  0.00     0.713 OA 
HETATM   30  C   UNL     1     -11.441  15.521  66.884  1.00  0.00    -0.000 C  
HETATM   31  C   UNL     1     -10.513  15.541  65.643  1.00  0.00    -0.374 C  
HETATM   32  C   UNL     1     -11.611  16.866  67.586  1.00  0.00     0.598 C  
HETATM   33  C   UNL     1     -10.502  14.129  64.997  1.00  0.00    -0.425 C  
HETATM   34  H   UNL     1      -9.840  13.297  63.322  1.00  0.00     0.000 HD 
HETATM   35  C   UNL     1     -11.925  13.619  64.760  1.00  0.00    -0.396 C  
HETATM   36  O   UNL     1      -9.847  14.161  63.717  1.00  0.00     1.564 OA 
HETATM   37  O   UNL     1     -11.891  12.253  64.309  1.00  0.00    -0.364 OA 
HETATM   38  H   UNL     1     -11.355  12.152  63.532  1.00  0.00     0.000 HD 
BRANCH  31  39
HETATM   39  N   UNL     1      -9.171  16.045  66.026  1.00  0.00    -0.344 NA 
HETATM   40  H   UNL     1      -8.530  15.494  66.598  1.00  0.00     0.000 HD 
BRANCH  39  41
HETATM   41  C   UNL     1      -8.814  17.405  65.526  1.00  0.00     0.905 C  
HETATM   42  C   UNL     1      -9.305  19.435  66.956  1.00  0.00    -0.393 C  
HETATM   43  C   UNL     1      -9.695  18.433  66.167  1.00  0.00    -0.236 C  
HETATM   44  C   UNL     1      -7.847  19.709  67.212  1.00  0.00    -0.268 C  
HETATM   45  H   UNL     1      -5.882  16.734  66.881  1.00  0.00     0.000 HD 
HETATM   46  O   UNL     1      -6.812  16.613  66.725  1.00  0.00    -0.205 OA 
HETATM   47  C   UNL     1      -6.850  18.997  66.263  1.00  0.00    -0.219 C  
HETATM   48  O   UNL     1      -7.576  19.376  68.571  1.00  0.00    -0.308 OA 
HETATM   49  H   UNL     1      -5.977  19.385  64.535  1.00  0.00     0.000 HD 
HETATM   50  O   UNL     1      -6.588  19.822  65.116  1.00  0.00    -0.272 OA 
HETATM   51  C   UNL     1      -7.283  17.604  65.783  1.00  0.00    -0.074 C  
HETATM   52  H   UNL     1      -6.655  19.549  68.733  1.00  0.00     0.000 HD 
BRANCH  42  53
HETATM   53  C   UNL     1     -10.272  20.357  67.665  1.00  0.00    -0.270 C  
HETATM   54  O   UNL     1     -10.778  19.787  68.868  1.00  0.00    -0.420 OA 
HETATM   55  H   UNL     1     -11.386  20.366  69.313  1.00  0.00     0.000 HD 
ENDBRANCH  42  53
ENDBRANCH  39  41
ENDBRANCH  31  39
ENDBRANCH  27  28
ENDBRANCH  23  27
ENDBRANCH  13  14
ENDBRANCH   4  13
ENDBRANCH   1   4
BRANCH   1  56
HETATM   56  C   UNL     1     -12.754   8.853  70.543  1.00  0.00     0.491 C  
HETATM   57  O   UNL     1     -13.278   9.657  71.604  1.00  0.00    -0.362 OA 
HETATM   58  H   UNL     1     -13.495   9.095  72.338  1.00  0.00     0.000 HD 
ENDBRANCH   1  56
TORSDOF 12
ENDMDL
MODEL      281
REMARK 921   NORMALIZED FREE ENERGY PREDICTED BY IDOCK:    7.52 KCAL/MOL
REMARK 922        TOTAL FREE ENERGY PREDICTED BY IDOCK:    9.60 KCAL/MOL
REMARK 923 INTER-LIGAND FREE ENERGY PREDICTED BY IDOCK:    0.43 KCAL/MOL
REMARK 924 INTRA-LIGAND FREE ENERGY PREDICTED BY IDOCK:    9.17 KCAL/MOL
REMARK 927      BINDING AFFINITY PREDICTED BY RF-SCORE:    0.00 PKD
ROOT
HETATM    1  C   UNL     1     -12.332  13.295  66.291  1.00  0.00    -0.317 C  
HETATM    2  H   UNL     1     -11.079  11.965  65.642  1.00  0.00     0.000 HD 
HETATM    3  O   UNL     1     -11.955  12.241  65.395  1.00  0.00    -0.404 OA 
ENDROOT
BRANCH   1   4
HETATM    4  C   UNL     1     -11.299  14.461  66.319  1.00  0.00    -0.350 C  
BRANCH   4   5
HETATM    5  C   UNL     1     -10.175  14.294  65.249  1.00  0.00    -0.382 C  
HETATM    6  O   UNL     1      -9.069  15.173  65.505  1.00  0.00    -0.338 OA 
HETATM    7  H   UNL     1      -8.385  15.071  64.854  1.00  0.00     0.000 HD 
BRANCH   5   8
HETATM    8  C   UNL     1     -10.621  14.543  63.802  1.00  0.00     2.097 C  
HETATM    9  C   UNL     1     -11.794  15.496  63.747  1.00  0.00     0.488 C  
HETATM   10  O   UNL     1     -11.030  13.283  63.247  1.00  0.00    -0.348 OA 
HETATM   11  O   UNL     1     -11.658  16.714  63.649  1.00  0.00    -0.778 OA 
HETATM   12  H   UNL     1     -11.306  13.438  62.352  1.00  0.00     0.000 HD 
ENDBRANCH   5   8
ENDBRANCH   4   5
BRANCH   4  13
HETATM   13  O   UNL     1     -10.696  14.643  67.623  1.00  0.00    -0.263 OA 
BRANCH  13  14
HETATM   14  C   UNL     1     -10.819  13.517  68.508  1.00  0.00    -0.264 C  
HETATM   15  H   UNL     1      -7.312  13.843  70.390  1.00  0.00     0.000 HD 
HETATM   16  O   UNL     1      -9.607  14.685  70.341  1.00  0.00     0.113 OA 
HETATM   17  C   UNL     1      -9.662  13.506  69.521  1.00  0.00     1.002 C  
HETATM   18  O   UNL     1     -10.824  12.264  67.840  1.00  0.00    -0.205 OA 
HETATM   19  O   UNL     1      -7.301  13.126  69.767  1.00  0.00     0.437 OA 
HETATM   20  C   UNL     1      -9.658  12.019  67.047  1.00  0.00    -0.195 C  
HETATM   21  H   UNL     1      -8.892  14.678  70.966  1.00  0.00     0.000 HD 
HETATM   22  C   UNL     1      -8.335  13.364  68.789  1.00  0.00     0.086 C  
HETATM   23  C   UNL     1      -8.318  12.204  67.781  1.00  0.00    -0.159 C  
BRANCH  20  24
HETATM   24  C   UNL     1      -9.803  10.604  66.443  1.00  0.00    -0.211 C  
HETATM   25  O   UNL     1      -8.807  10.284  65.470  1.00  0.00    -0.157 OA 
HETATM   26  H   UNL     1      -8.896   9.414  65.099  1.00  0.00     0.000 HD 
ENDBRANCH  20  24
BRANCH  23  27
HETATM   27  O   UNL     1      -7.321  12.433  66.745  1.00  0.00     0.007 OA 
BRANCH  27  28
HETATM   28  C   UNL     1      -5.979  12.186  67.183  1.00  0.00    -0.143 C  
HETATM   29  O   UNL     1      -5.957  11.846  68.561  1.00  0.00    -0.049 OA 
HETATM   30  C   UNL     1      -6.709  10.663  68.841  1.00  0.00    -0.062 C  
HETATM   31  C   UNL     1      -6.039   9.448  68.149  1.00  0.00    -0.052 C  
HETATM   32  C   UNL     1      -6.792  10.575  70.363  1.00  0.00    -0.012 C  
HETATM   33  C   UNL     1      -5.959   9.717  66.622  1.00  0.00    -0.059 C  
HETATM   34  H   UNL     1      -5.090   8.893  65.040  1.00  0.00     0.000 HD 
HETATM   35  C   UNL     1      -5.330  11.082  66.333  1.00  0.00    -0.114 C  
HETATM   36  O   UNL     1      -5.138   8.729  65.975  1.00  0.00    -0.029 OA 
HETATM   37  O   UNL     1      -5.409  11.375  64.927  1.00  0.00    -0.452 OA 
HETATM   38  H   UNL     1      -5.008  10.693  64.402  1.00  0.00     0.000 HD 
BRANCH  31  39
HETATM   39  N   UNL     1      -6.761   8.203  68.510  1.00  0.00    -0.061 NA 
HETATM   40  H   UNL     1      -6.601   7.724  69.396  1.00  0.00     0.000 HD 
BRANCH  39  41
HETATM   41  C   UNL     1      -7.734   7.694  67.500  1.00  0.00    -0.118 C  
HETATM   42  C   UNL     1      -7.247   5.536  66.268  1.00  0.00    -0.077 C  
HETATM   43  C   UNL     1      -7.027   6.831  66.498  1.00  0.00    -0.063 C  
HETATM   44  C   UNL     1      -8.360   4.795  66.957  1.00  0.00    -0.106 C  
HETATM   45  H   UNL     1      -9.153   6.277  70.119  1.00  0.00     0.000 HD 
HETATM   46  O   UNL     1      -8.456   6.713  69.642  1.00  0.00    -0.129 OA 
HETATM   47  C   UNL     1      -9.419   5.677  67.668  1.00  0.00    -0.115 C  
HETATM   48  O   UNL     1      -7.769   3.879  67.874  1.00  0.00    -0.067 OA 
HETATM   49  H   UNL     1     -11.129   6.542  67.193  1.00  0.00     0.000 HD 
HETATM   50  O   UNL     1     -10.481   6.001  66.757  1.00  0.00    -0.228 OA 
HETATM   51  C   UNL     1      -8.881   6.976  68.286  1.00  0.00    -0.126 C  
HETATM   52  H   UNL     1      -8.472   3.411  68.310  1.00  0.00     0.000 HD 
BRANCH  42  53
HETATM   53  C   UNL     1      -6.403   4.708  65.324  1.00  0.00    -0.035 C  
HETATM   54  O   UNL     1      -5.334   5.458  64.757  1.00  0.00    -0.009 OA 
HETATM   55  H   UNL     1      -4.804   4.937  64.164  1.00  0.00     0.000 HD 
ENDBRANCH  42  53
ENDBRANCH  39  41
ENDBRANCH  31  39
ENDBRANCH  27  28
ENDBRANCH  23  27
ENDBRANCH  13  14
ENDBRANCH   4  13
ENDBRANCH   1   4
BRANCH   1  56
HETATM   56  C   UNL     1     -13.741  13.739  65.893  1.00  0.00     2.384 C  
HETATM   57  O   UNL     1     -13.644  14.697  64.836  1.00  0.00     0.289 OA 
HETATM   58  H   UNL     1     -14.519  14.973  64.589  1.00  0.00     0.000 HD 
ENDBRANCH   1  56
TORSDOF 12
ENDMDL
MODEL      282
REMARK 921   NORMALIZED FREE ENERGY PREDICTED BY IDOCK:    8.07 KCAL/MOL
REMARK 922        TOTAL FREE ENERGY PREDICTED BY IDOCK:   10.54 KCAL/MOL
REMARK 923 INTER-LIGAND FREE ENERGY PREDICTED BY IDOCK:   -1.84 KCAL/MOL
REMARK 924 INTRA-LIGAND FREE ENERGY PREDICTED BY IDOCK:   12.39 KCAL/MOL
REMARK 927      BINDING AFFINITY PREDICTED BY RF-SCORE:    0.00 PKD
ROOT
HETATM    1  C   UNL     1     -10.236   5.541  67.600  1.00  0.00    -0.193 C  
HETATM    2  H   UNL     1      -9.183   6.341  66.183  1.00  0.00     0.000 HD 
HETATM    3  O   UNL     1     -10.007   6.550  66.608  1.00  0.00    -0.173 OA 
ENDROOT
BRANCH   1   4
HETATM    4  C   UNL     1      -9.046   5.391  68.595  1.00  0.00    -0.115 C  
BRANCH   4   5
HETATM    5  C   UNL     1      -9.134   4.084  69.444  1.00  0.00    -0.127 C  
HETATM    6  O   UNL     1      -8.589   4.274  70.759  1.00  0.00    -0.080 OA 
HETATM    7  H   UNL     1      -8.643   3.478  71.276  1.00  0.00     0.000 HD 
BRANCH   5   8
HETATM    8  C   UNL     1      -8.423   2.870  68.833  1.00  0.00    -0.067 C  
HETATM    9  C   UNL     1      -9.402   1.762  68.516  1.00  0.00    -0.186 C  
HETATM   10  O   UNL     1      -7.479   2.384  69.801  1.00  0.00    -0.043 OA 
HETATM   11  O   UNL     1      -9.965   1.663  67.428  1.00  0.00     0.362 OA 
HETATM   12  H   UNL     1      -7.038   1.632  69.423  1.00  0.00     0.000 HD 
ENDBRANCH   5   8
ENDBRANCH   4   5
BRANCH   4  13
HETATM   13  O   UNL     1      -8.910   6.530  69.479  1.00  0.00    -0.136 OA 
BRANCH  13  14
HETATM   14  C   UNL     1      -7.560   6.979  69.683  1.00  0.00    -0.104 C  
HETATM   15  H   UNL     1      -7.785   7.818  73.581  1.00  0.00     0.000 HD 
HETATM   16  O   UNL     1      -7.464   6.006  71.970  1.00  0.00    -0.092 OA 
HETATM   17  C   UNL     1      -7.290   7.193  71.181  1.00  0.00    -0.075 C  
HETATM   18  O   UNL     1      -7.253   8.190  69.007  1.00  0.00    -0.070 OA 
HETATM   19  O   UNL     1      -7.781   8.611  73.059  1.00  0.00    -0.361 OA 
HETATM   20  C   UNL     1      -8.095   9.290  69.368  1.00  0.00    -0.108 C  
HETATM   21  H   UNL     1      -7.298   6.138  72.896  1.00  0.00     0.000 HD 
HETATM   22  C   UNL     1      -8.214   8.275  71.724  1.00  0.00    -0.145 C  
HETATM   23  C   UNL     1      -8.209   9.559  70.880  1.00  0.00     0.069 C  
BRANCH  20  24
HETATM   24  C   UNL     1      -7.592  10.528  68.591  1.00  0.00    -0.099 C  
HETATM   25  O   UNL     1      -6.227  10.439  68.180  1.00  0.00    -0.051 OA 
HETATM   26  H   UNL     1      -5.918  11.199  67.702  1.00  0.00     0.000 HD 
ENDBRANCH  20  24
BRANCH  23  27
HETATM   27  O   UNL     1      -9.445  10.305  71.064  1.00  0.00     0.711 OA 
BRANCH  27  28
HETATM   28  C   UNL     1     -10.620   9.539  70.775  1.00  0.00    -0.317 C  
HETATM   29  O   UNL     1     -11.789  10.269  71.117  1.00  0.00    -0.353 OA 
HETATM   30  C   UNL     1     -11.900  11.491  70.384  1.00  0.00    -0.320 C  
HETATM   31  C   UNL     1     -12.088  11.176  68.879  1.00  0.00    -0.207 C  
HETATM   32  C   UNL     1     -13.049  12.260  71.032  1.00  0.00    -0.019 C  
HETATM   33  C   UNL     1     -10.883  10.330  68.385  1.00  0.00    -0.245 C  
HETATM   34  H   UNL     1     -10.392   9.301  66.762  1.00  0.00     0.000 HD 
HETATM   35  C   UNL     1     -10.644   9.124  69.296  1.00  0.00    -0.216 C  
HETATM   36  O   UNL     1     -11.129   9.818  67.063  1.00  0.00    -0.093 OA 
HETATM   37  O   UNL     1      -9.434   8.447  68.912  1.00  0.00    -0.147 OA 
HETATM   38  H   UNL     1      -9.449   8.190  67.998  1.00  0.00     0.000 HD 
BRANCH  31  39
HETATM   39  N   UNL     1     -12.296  12.436  68.123  1.00  0.00    -0.070 NA 
HETATM   40  H   UNL     1     -12.798  13.229  68.523  1.00  0.00     0.000 HD 
BRANCH  39  41
HETATM   41  C   UNL     1     -11.727  12.474  66.744  1.00  0.00    -0.384 C  
HETATM   42  C   UNL     1     -11.525  14.689  65.533  1.00  0.00    -0.341 C  
HETATM   43  C   UNL     1     -12.246  13.674  66.010  1.00  0.00    -0.492 C  
HETATM   44  C   UNL     1     -10.021  14.680  65.598  1.00  0.00    -0.351 C  
HETATM   45  H   UNL     1      -8.844  12.689  68.332  1.00  0.00     0.000 HD 
HETATM   46  O   UNL     1      -9.790  12.723  68.247  1.00  0.00    -0.221 OA 
HETATM   47  C   UNL     1      -9.368  13.314  65.929  1.00  0.00     0.081 C  
HETATM   48  O   UNL     1      -9.622  15.671  66.541  1.00  0.00    -0.237 OA 
HETATM   49  H   UNL     1      -8.711  11.748  64.921  1.00  0.00     0.000 HD 
HETATM   50  O   UNL     1      -9.111  12.586  64.718  1.00  0.00     0.565 OA 
HETATM   51  C   UNL     1     -10.170  12.419  66.885  1.00  0.00    -0.225 C  
HETATM   52  H   UNL     1      -8.673  15.666  66.582  1.00  0.00     0.000 HD 
BRANCH  42  53
HETATM   53  C   UNL     1     -12.140  15.924  64.913  1.00  0.00     0.456 C  
HETATM   54  O   UNL     1     -13.532  15.763  64.658  1.00  0.00     1.021 OA 
HETATM   55  H   UNL     1     -13.918  16.538  64.268  1.00  0.00     0.000 HD 
ENDBRANCH  42  53
ENDBRANCH  39  41
ENDBRANCH  31  39
ENDBRANCH  27  28
ENDBRANCH  23  27
ENDBRANCH  13  14
ENDBRANCH   4  13
ENDBRANCH   1   4
BRANCH   1  56
HETATM   56  C   UNL     1     -11.563   5.878  68.284  1.00  0.00     1.217 C  
HETATM   57  O   UNL     1     -11.661   7.297  68.431  1.00  0.00     0.139 OA 
HETATM   58  H   UNL     1     -12.485   7.506  68.856  1.00  0.00     0.000 HD 
ENDBRANCH   1  56
TORSDOF 12
ENDMDL
MODEL      283
REMARK 921   NORMALIZED FREE ENERGY PREDICTED BY IDOCK:    8.96 KCAL/MOL
REMARK 922        TOTAL FREE ENERGY PREDICTED BY IDOCK:   12.06 KCAL/MOL
REMARK 923 INTER-LIGAND FREE ENERGY PREDICTED BY IDOCK:   10.96 KCAL/MOL
REMARK 924 INTRA-LIGAND FREE ENERGY PREDICTED BY IDOCK:    1.10 KCAL/MOL
REMARK 927      BINDING AFFINITY PREDICTED BY RF-SCORE:    0.00 PKD
ROOT
HETATM    1  C   UNL     1     -11.272  14.497  72.225  1.00  0.00     1.126 C  
HETATM    2  H   UNL     1     -12.715  15.706  72.687  1.00  0.00     0.000 HD 
HETATM    3  O   UNL     1     -11.767  15.767  72.669  1.00  0.00    -0.439 OA 
ENDROOT
BRANCH   1   4
HETATM    4  C   UNL     1     -11.891  14.050  70.867  1.00  0.00    -0.173 C  
BRANCH   4   5
HETATM    5  C   UNL     1     -13.452  14.040  70.893  1.00  0.00    -0.038 C  
HETATM    6  O   UNL     1     -13.988  13.085  69.964  1.00  0.00     2.652 OA 
HETATM    7  H   UNL     1     -14.937  13.078  69.980  1.00  0.00     0.000 HD 
BRANCH   5   8
HETATM    8  C   UNL     1     -14.110  15.390  70.579  1.00  0.00     0.621 C  
HETATM    9  C   UNL     1     -13.212  16.250  69.718  1.00  0.00     2.546 C  
HETATM   10  O   UNL     1     -14.334  16.068  71.825  1.00  0.00    -0.197 OA 
HETATM   11  O   UNL     1     -13.251  16.230  68.489  1.00  0.00     2.146 OA 
HETATM   12  H   UNL     1     -14.741  16.903  71.630  1.00  0.00     0.000 HD 
ENDBRANCH   5   8
ENDBRANCH   4   5
BRANCH   4  13
HETATM   13  O   UNL     1     -11.410  12.755  70.433  1.00  0.00     0.173 OA 
BRANCH  13  14
HETATM   14  C   UNL     1     -11.387  12.565  69.008  1.00  0.00    -0.290 C  
HETATM   15  H   UNL     1     -10.912   8.600  68.936  1.00  0.00     0.000 HD 
HETATM   16  O   UNL     1     -12.570  10.382  69.169  1.00  0.00    -0.645 OA 
HETATM   17  C   UNL     1     -11.409  11.065  68.670  1.00  0.00    -0.281 C  
HETATM   18  O   UNL     1     -10.252  13.137  68.375  1.00  0.00    -0.243 OA 
HETATM   19  O   UNL     1     -10.104   9.047  68.711  1.00  0.00    -0.186 OA 
HETATM   20  C   UNL     1      -9.000  12.643  68.861  1.00  0.00     0.327 C  
HETATM   21  H   UNL     1     -12.583   9.455  68.960  1.00  0.00     0.000 HD 
HETATM   22  C   UNL     1     -10.169  10.388  69.238  1.00  0.00    -0.230 C  
HETATM   23  C   UNL     1      -8.862  11.110  68.874  1.00  0.00    -0.079 C  
BRANCH  20  24
HETATM   24  C   UNL     1      -7.886  13.323  68.032  1.00  0.00    -0.148 C  
HETATM   25  O   UNL     1      -8.188  13.441  66.641  1.00  0.00    -0.406 OA 
HETATM   26  H   UNL     1      -7.502  13.859  66.132  1.00  0.00     0.000 HD 
ENDBRANCH  20  24
BRANCH  23  27
HETATM   27  O   UNL     1      -7.817  10.808  69.841  1.00  0.00     0.012 OA 
BRANCH  27  28
HETATM   28  C   UNL     1      -6.542  10.551  69.241  1.00  0.00    -0.060 C  
HETATM   29  O   UNL     1      -5.666   9.934  70.172  1.00  0.00    -0.040 OA 
HETATM   30  C   UNL     1      -6.166   8.679  70.638  1.00  0.00    -0.037 C  
HETATM   31  C   UNL     1      -6.220   7.674  69.459  1.00  0.00    -0.031 C  
HETATM   32  C   UNL     1      -5.253   8.272  71.792  1.00  0.00    -0.034 C  
HETATM   33  C   UNL     1      -7.122   8.258  68.338  1.00  0.00    -0.081 C  
HETATM   34  H   UNL     1      -7.564   7.831  66.452  1.00  0.00     0.000 HD 
HETATM   35  C   UNL     1      -6.704   9.686  67.981  1.00  0.00    -0.062 C  
HETATM   36  O   UNL     1      -7.012   7.474  67.137  1.00  0.00    -0.078 OA 
HETATM   37  O   UNL     1      -7.645  10.260  67.057  1.00  0.00    -0.097 OA 
HETATM   38  H   UNL     1      -7.745   9.726  66.278  1.00  0.00     0.000 HD 
BRANCH  31  39
HETATM   39  N   UNL     1      -6.650   6.343  69.953  1.00  0.00    -0.046 NA 
HETATM   40  H   UNL     1      -6.248   5.921  70.790  1.00  0.00     0.000 HD 
BRANCH  39  41
HETATM   41  C   UNL     1      -7.705   5.656  69.151  1.00  0.00    -0.088 C  
HETATM   42  C   UNL     1      -8.543   3.378  69.872  1.00  0.00    -0.109 C  
HETATM   43  C   UNL     1      -7.611   4.173  69.345  1.00  0.00    -0.054 C  
HETATM   44  C   UNL     1      -9.900   3.907  70.252  1.00  0.00    -0.098 C  
HETATM   45  H   UNL     1      -9.765   7.395  71.051  1.00  0.00     0.000 HD 
HETATM   46  O   UNL     1      -8.931   7.014  70.802  1.00  0.00    -0.149 OA 
HETATM   47  C   UNL     1     -10.258   5.308  69.694  1.00  0.00    -0.278 C  
HETATM   48  O   UNL     1      -9.990   3.892  71.674  1.00  0.00    -0.185 OA 
HETATM   49  H   UNL     1     -11.117   6.039  68.072  1.00  0.00     0.000 HD 
HETATM   50  O   UNL     1     -10.898   5.180  68.414  1.00  0.00     0.072 OA 
HETATM   51  C   UNL     1      -9.078   6.283  69.563  1.00  0.00    -0.137 C  
HETATM   52  H   UNL     1     -10.846   4.226  71.913  1.00  0.00     0.000 HD 
BRANCH  42  53
HETATM   53  C   UNL     1      -8.320   1.908  70.148  1.00  0.00    -0.041 C  
HETATM   54  O   UNL     1      -7.099   1.668  70.840  1.00  0.00    -0.032 OA 
HETATM   55  H   UNL     1      -6.958   0.744  71.012  1.00  0.00     0.000 HD 
ENDBRANCH  42  53
ENDBRANCH  39  41
ENDBRANCH  31  39
ENDBRANCH  27  28
ENDBRANCH  23  27
ENDBRANCH  13  14
ENDBRANCH   4  13
ENDBRANCH   1   4
BRANCH   1  56
HETATM   56  C   UNL     1      -9.745  14.596  72.194  1.00  0.00     5.179 C  
HETATM   57  O   UNL     1      -9.362  15.548  71.198  1.00  0.00     1.196 OA 
HETATM   58  H   UNL     1      -8.414  15.610  71.180  1.00  0.00     0.000 HD 
ENDBRANCH   1  56
TORSDOF 12
ENDMDL
MODEL      284
REMARK 921   NORMALIZED FREE ENERGY PREDICTED BY IDOCK:    9.26 KCAL/MOL
REMARK 922        TOTAL FREE ENERGY PREDICTED BY IDOCK:   12.57 KCAL/MOL
REMARK 923 INTER-LIGAND FREE ENERGY PREDICTED BY IDOCK:   -5.69 KCAL/MOL
REMARK 924 INTRA-LIGAND FREE ENERGY PREDICTED BY IDOCK:   18.26 KCAL/MOL
REMARK 927      BINDING AFFINITY PREDICTED BY RF-SCORE:    0.00 PKD
ROOT
HETATM    1  C   UNL     1      -6.624   8.693  69.481  1.00  0.00    -0.040 C  
HETATM    2  H   UNL     1      -6.787   6.841  70.029  1.00  0.00     0.000 HD 
HETATM    3  O   UNL     1      -7.054   7.677  70.395  1.00  0.00    -0.056 OA 
ENDROOT
BRANCH   1   4
HETATM    4  C   UNL     1      -7.142   8.459  68.030  1.00  0.00    -0.086 C  
BRANCH   4   5
HETATM    5  C   UNL     1      -6.281   7.420  67.245  1.00  0.00    -0.051 C  
HETATM    6  O   UNL     1      -6.615   7.407  65.849  1.00  0.00    -0.044 OA 
HETATM    7  H   UNL     1      -6.090   6.775  65.371  1.00  0.00     0.000 HD 
BRANCH   5   8
HETATM    8  C   UNL     1      -6.399   5.975  67.749  1.00  0.00    -0.037 C  
HETATM    9  C   UNL     1      -5.679   5.793  69.066  1.00  0.00    -0.012 C  
HETATM   10  O   UNL     1      -5.785   5.120  66.771  1.00  0.00    -0.016 OA 
HETATM   11  O   UNL     1      -6.232   5.950  70.153  1.00  0.00    -0.025 OA 
HETATM   12  H   UNL     1      -5.858   4.226  67.082  1.00  0.00     0.000 HD 
ENDBRANCH   5   8
ENDBRANCH   4   5
BRANCH   4  13
HETATM   13  O   UNL     1      -7.232   9.684  67.264  1.00  0.00    -0.085 OA 
BRANCH  13  14
HETATM   14  C   UNL     1      -8.522   9.943  66.686  1.00  0.00    -0.125 C  
HETATM   15  H   UNL     1     -10.190  11.860  69.766  1.00  0.00     0.000 HD 
HETATM   16  O   UNL     1      -8.718  12.141  67.833  1.00  0.00    -0.159 OA 
HETATM   17  C   UNL     1      -9.341  10.868  67.601  1.00  0.00    -0.156 C  
HETATM   18  O   UNL     1      -9.289   8.770  66.454  1.00  0.00    -0.171 OA 
HETATM   19  O   UNL     1     -10.529  10.976  69.688  1.00  0.00    -0.161 OA 
HETATM   20  C   UNL     1      -9.530   7.988  67.628  1.00  0.00    -0.145 C  
HETATM   21  H   UNL     1      -9.224  12.713  68.400  1.00  0.00     0.000 HD 
HETATM   22  C   UNL     1      -9.574  10.191  68.946  1.00  0.00    -0.184 C  
HETATM   23  C   UNL     1     -10.123   8.761  68.819  1.00  0.00    -0.198 C  
BRANCH  20  24
HETATM   24  C   UNL     1     -10.417   6.792  67.208  1.00  0.00    -0.282 C  
HETATM   25  O   UNL     1     -11.462   6.493  68.135  1.00  0.00    -0.553 OA 
HETATM   26  H   UNL     1     -12.007   5.759  67.877  1.00  0.00     0.000 HD 
ENDBRANCH  20  24
BRANCH  23  27
HETATM   27  O   UNL     1      -9.806   7.979  70.004  1.00  0.00    -0.183 OA 
BRANCH  27  28
HETATM   28  C   UNL     1     -10.332   8.538  71.214  1.00  0.00    -0.224 C  
HETATM   29  O   UNL     1     -11.731   8.312  71.302  1.00  0.00    -0.275 OA 
HETATM   30  C   UNL     1     -12.056   6.919  71.314  1.00  0.00    -0.373 C  
HETATM   31  C   UNL     1     -11.493   6.268  72.602  1.00  0.00    -0.218 C  
HETATM   32  C   UNL     1     -13.574   6.847  71.162  1.00  0.00    -0.052 C  
HETATM   33  C   UNL     1      -9.957   6.488  72.651  1.00  0.00    -0.171 C  
HETATM   34  H   UNL     1      -8.490   6.244  73.964  1.00  0.00     0.000 HD 
HETATM   35  C   UNL     1      -9.603   7.962  72.437  1.00  0.00    -0.210 C  
HETATM   36  O   UNL     1      -9.430   6.109  73.934  1.00  0.00    -0.135 OA 
HETATM   37  O   UNL     1      -8.177   8.117  72.330  1.00  0.00    -0.125 OA 
HETATM   38  H   UNL     1      -7.726   7.761  73.086  1.00  0.00     0.000 HD 
BRANCH  31  39
HETATM   39  N   UNL     1     -11.905   4.844  72.667  1.00  0.00     0.066 NA 
HETATM   40  H   UNL     1     -12.816   4.561  73.029  1.00  0.00     0.000 HD 
BRANCH  39  41
HETATM   41  C   UNL     1     -10.908   3.850  72.171  1.00  0.00     0.348 C  
HETATM   42  C   UNL     1      -8.857   4.650  70.921  1.00  0.00    -0.149 C  
HETATM   43  C   UNL     1     -10.167   4.413  70.996  1.00  0.00    -0.121 C  
HETATM   44  C   UNL     1      -7.924   4.259  72.036  1.00  0.00    -0.090 C  
HETATM   45  H   UNL     1      -9.620   4.182  75.189  1.00  0.00     0.000 HD 
HETATM   46  O   UNL     1     -10.169   4.421  74.451  1.00  0.00    -0.186 OA 
HETATM   47  C   UNL     1      -8.507   3.286  73.092  1.00  0.00    -0.081 C  
HETATM   48  O   UNL     1      -7.462   5.457  72.654  1.00  0.00    -0.093 OA 
HETATM   49  H   UNL     1      -8.622   1.330  73.342  1.00  0.00     0.000 HD 
HETATM   50  O   UNL     1      -8.265   1.926  72.694  1.00  0.00    -0.052 OA 
HETATM   51  C   UNL     1     -10.004   3.457  73.386  1.00  0.00    -0.116 C  
HETATM   52  H   UNL     1      -6.873   5.210  73.358  1.00  0.00     0.000 HD 
BRANCH  42  53
HETATM   53  C   UNL     1      -8.205   5.337  69.741  1.00  0.00    -0.098 C  
HETATM   54  O   UNL     1      -8.959   5.183  68.543  1.00  0.00    -0.103 OA 
HETATM   55  H   UNL     1      -8.549   5.614  67.802  1.00  0.00     0.000 HD 
ENDBRANCH  42  53
ENDBRANCH  39  41
ENDBRANCH  31  39
ENDBRANCH  27  28
ENDBRANCH  23  27
ENDBRANCH  13  14
ENDBRANCH   4  13
ENDBRANCH   1   4
BRANCH   1  56
HETATM   56  C   UNL     1      -7.054  10.039  70.070  1.00  0.00    -0.146 C  
HETATM   57  O   UNL     1      -6.278  10.300  71.243  1.00  0.00    -0.321 OA 
HETATM   58  H   UNL     1      -6.545  11.135  71.609  1.00  0.00     0.000 HD 
ENDBRANCH   1  56
TORSDOF 12
ENDMDL
MODEL      285
REMARK 921   NORMALIZED FREE ENERGY PREDICTED BY IDOCK:    9.84 KCAL/MOL
REMARK 922        TOTAL FREE ENERGY PREDICTED BY IDOCK:   13.56 KCAL/MOL
REMARK 923 INTER-LIGAND FREE ENERGY PREDICTED BY IDOCK:   11.29 KCAL/MOL
REMARK 924 INTRA-LIGAND FREE ENERGY PREDICTED BY IDOCK:    2.27 KCAL/MOL
REMARK 927      BINDING AFFINITY PREDICTED BY RF-SCORE:    0.00 PKD
ROOT
HETATM    1  C   UNL     1     -11.322  10.377  70.048  1.00  0.00    -0.313 C  
HETATM    2  H   UNL     1     -10.193  11.905  69.662  1.00  0.00     0.000 HD 
HETATM    3  O   UNL     1     -10.754  11.649  70.386  1.00  0.00     0.833 OA 
ENDROOT
BRANCH   1   4
HETATM    4  C   UNL     1     -10.243   9.310  69.693  1.00  0.00    -0.208 C  
BRANCH   4   5
HETATM    5  C   UNL     1      -9.247   9.049  70.866  1.00  0.00    -0.259 C  
HETATM    6  O   UNL     1      -8.228  10.059  70.926  1.00  0.00    -0.311 OA 
HETATM    7  H   UNL     1      -7.622   9.900  71.640  1.00  0.00     0.000 HD 
BRANCH   5   8
HETATM    8  C   UNL     1      -8.532   7.693  70.813  1.00  0.00    -0.125 C  
HETATM    9  C   UNL     1      -7.066   7.830  71.160  1.00  0.00    -0.050 C  
HETATM   10  O   UNL     1      -8.638   7.195  69.470  1.00  0.00    -0.133 OA 
HETATM   11  O   UNL     1      -6.642   7.726  72.309  1.00  0.00    -0.053 OA 
HETATM   12  H   UNL     1      -8.196   6.355  69.437  1.00  0.00     0.000 HD 
ENDBRANCH   5   8
ENDBRANCH   4   5
BRANCH   4  13
HETATM   13  O   UNL     1      -9.498   9.646  68.497  1.00  0.00    -0.140 OA 
BRANCH  13  14
HETATM   14  C   UNL     1     -10.210   9.442  67.265  1.00  0.00    -0.246 C  
HETATM   15  H   UNL     1      -7.307  10.457  64.716  1.00  0.00     0.000 HD 
HETATM   16  O   UNL     1      -8.171   8.629  66.093  1.00  0.00    -0.113 OA 
HETATM   17  C   UNL     1      -9.253   9.574  66.068  1.00  0.00    -0.196 C  
HETATM   18  O   UNL     1     -11.282  10.353  67.068  1.00  0.00    -0.207 OA 
HETATM   19  O   UNL     1      -7.965  11.139  64.777  1.00  0.00     0.284 OA 
HETATM   20  C   UNL     1     -10.889  11.728  67.075  1.00  0.00    -0.263 C  
HETATM   21  H   UNL     1      -7.580   8.711  65.354  1.00  0.00     0.000 HD 
HETATM   22  C   UNL     1      -8.668  10.979  66.026  1.00  0.00    -0.188 C  
HETATM   23  C   UNL     1      -9.732  12.084  66.124  1.00  0.00    -0.238 C  
BRANCH  20  24
HETATM   24  C   UNL     1     -12.155  12.569  66.794  1.00  0.00    -0.110 C  
HETATM   25  O   UNL     1     -12.432  13.553  67.792  1.00  0.00    -0.253 OA 
HETATM   26  H   UNL     1     -13.210  14.070  67.618  1.00  0.00     0.000 HD 
ENDBRANCH  20  24
BRANCH  23  27
HETATM   27  O   UNL     1      -9.152  13.316  66.638  1.00  0.00    -0.234 OA 
BRANCH  27  28
HETATM   28  C   UNL     1      -7.772  13.484  66.292  1.00  0.00     1.974 C  
HETATM   29  O   UNL     1      -7.565  14.734  65.653  1.00  0.00     3.276 OA 
HETATM   30  C   UNL     1      -7.921  15.838  66.489  1.00  0.00    -0.137 C  
HETATM   31  C   UNL     1      -6.970  15.886  67.713  1.00  0.00    -0.149 C  
HETATM   32  C   UNL     1      -7.879  17.070  65.589  1.00  0.00     0.704 C  
HETATM   33  C   UNL     1      -7.068  14.541  68.483  1.00  0.00    -0.114 C  
HETATM   34  H   UNL     1      -6.097  13.628  69.952  1.00  0.00     0.000 HD 
HETATM   35  C   UNL     1      -6.884  13.350  67.539  1.00  0.00    -0.144 C  
HETATM   36  O   UNL     1      -6.037  14.451  69.481  1.00  0.00    -0.100 OA 
HETATM   37  O   UNL     1      -7.133  12.120  68.242  1.00  0.00    -0.072 OA 
HETATM   38  H   UNL     1      -6.584  12.037  69.013  1.00  0.00     0.000 HD 
BRANCH  31  39
HETATM   39  N   UNL     1      -7.273  17.081  68.537  1.00  0.00    -0.199 NA 
HETATM   40  H   UNL     1      -6.579  17.499  69.158  1.00  0.00     0.000 HD 
BRANCH  39  41
HETATM   41  C   UNL     1      -8.652  17.637  68.405  1.00  0.00    -0.284 C  
HETATM   42  C   UNL     1      -9.455  19.399  70.036  1.00  0.00     0.692 C  
HETATM   43  C   UNL     1      -9.129  18.142  69.733  1.00  0.00     1.139 C  
HETATM   44  C   UNL     1      -9.474  20.478  68.988  1.00  0.00     0.699 C  
HETATM   45  H   UNL     1      -7.210  19.741  66.313  1.00  0.00     0.000 HD 
HETATM   46  O   UNL     1      -7.236  19.085  67.001  1.00  0.00    -0.207 OA 
HETATM   47  C   UNL     1      -9.430  19.991  67.517  1.00  0.00    -0.374 C  
HETATM   48  O   UNL     1      -8.392  21.365  69.258  1.00  0.00     3.233 OA 
HETATM   49  H   UNL     1     -10.737  19.484  66.126  1.00  0.00     0.000 HD 
HETATM   50  O   UNL     1     -10.765  19.782  67.028  1.00  0.00    -0.467 OA 
HETATM   51  C   UNL     1      -8.608  18.717  67.274  1.00  0.00    -0.274 C  
HETATM   52  H   UNL     1      -8.404  22.046  68.596  1.00  0.00     0.000 HD 
BRANCH  42  53
HETATM   53  C   UNL     1      -9.809  19.848  71.437  1.00  0.00     2.462 C  
HETATM   54  O   UNL     1      -9.424  21.197  71.684  1.00  0.00     0.981 OA 
HETATM   55  H   UNL     1      -9.646  21.479  72.564  1.00  0.00     0.000 HD 
ENDBRANCH  42  53
ENDBRANCH  39  41
ENDBRANCH  31  39
ENDBRANCH  27  28
ENDBRANCH  23  27
ENDBRANCH  13  14
ENDBRANCH   4  13
ENDBRANCH   1   4
BRANCH   1  56
HETATM   56  C   UNL     1     -12.224   9.965  71.214  1.00  0.00    -0.387 C  
HETATM   57  O   UNL     1     -11.605  10.358  72.441  1.00  0.00     1.560 OA 
HETATM   58  H   UNL     1     -12.166  10.103  73.165  1.00  0.00     0.000 HD 
ENDBRANCH   1  56
TORSDOF 12
ENDMDL
MODEL      286
REMARK 921   NORMALIZED FREE ENERGY PREDICTED BY IDOCK:   10.19 KCAL/MOL
REMARK 922        TOTAL FREE ENERGY PREDICTED BY IDOCK:   14.14 KCAL/MOL
REMARK 923 INTER-LIGAND FREE ENERGY PREDICTED BY IDOCK:    2.59 KCAL/MOL
REMARK 924 INTRA-LIGAND FREE ENERGY PREDICTED BY IDOCK:   11.55 KCAL/MOL
REMARK 927      BINDING AFFINITY PREDICTED BY RF-SCORE:    0.00 PKD
ROOT
HETATM    1  C   UNL     1      -9.161   8.680  68.839  1.00  0.00    -0.145 C  
HETATM    2  H   UNL     1      -8.689   9.245  70.632  1.00  0.00     0.000 HD 
HETATM    3  O   UNL     1      -9.282   8.599  70.265  1.00  0.00    -0.155 OA 
ENDROOT
BRANCH   1   4
HETATM    4  C   UNL     1      -7.691   8.522  68.348  1.00  0.00    -0.101 C  
BRANCH   4   5
HETATM    5  C   UNL     1      -6.737   7.998  69.467  1.00  0.00    -0.038 C  
HETATM    6  O   UNL     1      -5.497   7.522  68.921  1.00  0.00    -0.021 OA 
HETATM    7  H   UNL     1      -4.917   7.203  69.601  1.00  0.00     0.000 HD 
BRANCH   5   8
HETATM    8  C   UNL     1      -7.314   6.864  70.325  1.00  0.00    -0.084 C  
HETATM    9  C   UNL     1      -6.449   6.599  71.537  1.00  0.00    -0.042 C  
HETATM   10  O   UNL     1      -7.344   5.677  69.517  1.00  0.00    -0.064 OA 
HETATM   11  O   UNL     1      -6.624   7.165  72.615  1.00  0.00    -0.056 OA 
HETATM   12  H   UNL     1      -7.702   4.975  70.048  1.00  0.00     0.000 HD 
ENDBRANCH   5   8
ENDBRANCH   4   5
BRANCH   4  13
HETATM   13  O   UNL     1      -7.153   9.747  67.794  1.00  0.00    -0.085 OA 
BRANCH  13  14
HETATM   14  C   UNL     1      -6.187  10.413  68.624  1.00  0.00    -0.047 C  
HETATM   15  H   UNL     1      -8.704  12.455  70.957  1.00  0.00     0.000 HD 
HETATM   16  O   UNL     1      -7.651  10.272  70.630  1.00  0.00    -0.420 OA 
HETATM   17  C   UNL     1      -6.891  11.145  69.779  1.00  0.00    -0.089 C  
HETATM   18  O   UNL     1      -5.393  11.363  67.927  1.00  0.00    -0.043 OA 
HETATM   19  O   UNL     1      -8.286  13.025  70.322  1.00  0.00     3.090 OA 
HETATM   20  C   UNL     1      -6.147  12.398  67.288  1.00  0.00    -0.143 C  
HETATM   21  H   UNL     1      -8.087  10.725  71.344  1.00  0.00     0.000 HD 
HETATM   22  C   UNL     1      -7.824  12.212  69.224  1.00  0.00     0.436 C  
HETATM   23  C   UNL     1      -7.149  13.134  68.195  1.00  0.00    -0.109 C  
BRANCH  20  24
HETATM   24  C   UNL     1      -5.134  13.364  66.632  1.00  0.00     1.940 C  
HETATM   25  O   UNL     1      -5.329  14.735  66.984  1.00  0.00     0.108 OA 
HETATM   26  H   UNL     1      -4.706  15.329  66.581  1.00  0.00     0.000 HD 
ENDBRANCH  20  24
BRANCH  23  27
HETATM   27  O   UNL     1      -8.136  13.728  67.306  1.00  0.00    -0.175 OA 
BRANCH  27  28
HETATM   28  C   UNL     1      -7.868  15.100  66.994  1.00  0.00    -0.162 C  
HETATM   29  O   UNL     1      -9.042  15.743  66.519  1.00  0.00    -0.239 OA 
HETATM   30  C   UNL     1     -10.095  15.735  67.486  1.00  0.00    -0.245 C  
HETATM   31  C   UNL     1      -9.677  16.586  68.712  1.00  0.00    -0.251 C  
HETATM   32  C   UNL     1     -11.338  16.229  66.749  1.00  0.00     0.371 C  
HETATM   33  C   UNL     1      -8.363  16.008  69.305  1.00  0.00    -0.217 C  
HETATM   34  H   UNL     1      -7.012  16.547  70.653  1.00  0.00     0.000 HD 
HETATM   35  C   UNL     1      -7.299  15.831  68.219  1.00  0.00    -0.119 C  
HETATM   36  O   UNL     1      -7.815  16.901  70.291  1.00  0.00     1.635 OA 
HETATM   37  O   UNL     1      -6.151  15.152  68.759  1.00  0.00    -0.085 OA 
HETATM   38  H   UNL     1      -5.798  15.604  69.517  1.00  0.00     0.000 HD 
BRANCH  31  39
HETATM   39  N   UNL     1     -10.799  16.659  69.679  1.00  0.00    -0.339 NA 
HETATM   40  H   UNL     1     -10.784  17.296  70.476  1.00  0.00     0.000 HD 
BRANCH  39  41
HETATM   41  C   UNL     1     -11.950  15.747  69.418  1.00  0.00    -0.305 C  
HETATM   42  C   UNL     1     -11.520  13.389  68.600  1.00  0.00    -0.345 C  
HETATM   43  C   UNL     1     -11.561  14.709  68.409  1.00  0.00    -0.351 C  
HETATM   44  C   UNL     1     -11.986  12.769  69.890  1.00  0.00    -0.298 C  
HETATM   45  H   UNL     1     -11.658  15.053  72.629  1.00  0.00     0.000 HD 
HETATM   46  O   UNL     1     -11.379  15.400  71.790  1.00  0.00    -0.401 OA 
HETATM   47  C   UNL     1     -12.811  13.693  70.823  1.00  0.00    -0.202 C  
HETATM   48  O   UNL     1     -10.839  12.263  70.567  1.00  0.00     0.756 OA 
HETATM   49  H   UNL     1     -14.714  14.152  71.082  1.00  0.00     0.000 HD 
HETATM   50  O   UNL     1     -14.209  13.586  70.510  1.00  0.00     1.518 OA 
HETATM   51  C   UNL     1     -12.409  15.175  70.800  1.00  0.00    -0.360 C  
HETATM   52  H   UNL     1     -11.133  11.871  71.381  1.00  0.00     0.000 HD 
BRANCH  42  53
HETATM   53  C   UNL     1     -10.996  12.418  67.566  1.00  0.00    -0.252 C  
HETATM   54  O   UNL     1     -11.925  12.201  66.510  1.00  0.00    -0.618 OA 
HETATM   55  H   UNL     1     -11.596  11.590  65.860  1.00  0.00     0.000 HD 
ENDBRANCH  42  53
ENDBRANCH  39  41
ENDBRANCH  31  39
ENDBRANCH  27  28
ENDBRANCH  23  27
ENDBRANCH  13  14
ENDBRANCH   4  13
ENDBRANCH   1   4
BRANCH   1  56
HETATM   56  C   UNL     1     -10.116   7.640  68.248  1.00  0.00    -0.186 C  
HETATM   57  O   UNL     1     -11.102   8.311  67.460  1.00  0.00    -0.471 OA 
HETATM   58  H   UNL     1     -11.695   7.665  67.092  1.00  0.00     0.000 HD 
ENDBRANCH   1  56
TORSDOF 12
ENDMDL
MODEL      287
REMARK 921   NORMALIZED FREE ENERGY PREDICTED BY IDOCK:   10.57 KCAL/MOL
REMARK 922        TOTAL FREE ENERGY PREDICTED BY IDOCK:   14.79 KCAL/MOL
REMARK 923 INTER-LIGAND FREE ENERGY PREDICTED BY IDOCK:    0.21 KCAL/MOL
REMARK 924 INTRA-LIGAND FREE ENERGY PREDICTED BY IDOCK:   14.59 KCAL/MOL
REMARK 927      BINDING AFFINITY PREDICTED BY RF-SCORE:    0.00 PKD
ROOT
HETATM    1  C   UNL     1     -11.489  10.503  68.532  1.00  0.00    -0.215 C  
HETATM    2  H   UNL     1     -11.103  11.754  69.962  1.00  0.00     0.000 HD 
HETATM    3  O   UNL     1     -11.197  10.810  69.902  1.00  0.00    -0.269 OA 
ENDROOT
BRANCH   1   4
HETATM    4  C   UNL     1     -10.434  11.084  67.545  1.00  0.00    -0.209 C  
BRANCH   4   5
HETATM    5  C   UNL     1     -10.949  12.352  66.793  1.00  0.00    -0.263 C  
HETATM    6  O   UNL     1     -11.587  12.006  65.555  1.00  0.00    -0.350 OA 
HETATM    7  H   UNL     1     -11.901  12.777  65.097  1.00  0.00     0.000 HD 
BRANCH   5   8
HETATM    8  C   UNL     1      -9.867  13.390  66.466  1.00  0.00    -0.286 C  
HETATM    9  C   UNL     1     -10.466  14.766  66.276  1.00  0.00    -0.296 C  
HETATM   10  O   UNL     1      -9.237  12.992  65.238  1.00  0.00    -0.241 OA 
HETATM   11  O   UNL     1     -10.600  15.566  67.199  1.00  0.00    -0.289 OA 
HETATM   12  H   UNL     1      -8.567  13.635  65.036  1.00  0.00     0.000 HD 
ENDBRANCH   5   8
ENDBRANCH   4   5
BRANCH   4  13
HETATM   13  O   UNL     1      -9.974  10.108  66.580  1.00  0.00    -0.204 OA 
BRANCH  13  14
HETATM   14  C   UNL     1      -9.042   9.141  67.094  1.00  0.00    -0.126 C  
HETATM   15  H   UNL     1      -8.228  10.890  70.591  1.00  0.00     0.000 HD 
HETATM   16  O   UNL     1      -9.835   9.458  69.431  1.00  0.00    -0.165 OA 
HETATM   17  C   UNL     1      -8.695   9.462  68.557  1.00  0.00    -0.128 C  
HETATM   18  O   UNL     1      -7.827   9.074  66.362  1.00  0.00    -0.098 OA 
HETATM   19  O   UNL     1      -7.508  10.994  69.979  1.00  0.00     0.040 OA 
HETATM   20  C   UNL     1      -7.115  10.314  66.297  1.00  0.00    -0.117 C  
HETATM   21  H   UNL     1      -9.620   9.656  70.335  1.00  0.00     0.000 HD 
HETATM   22  C   UNL     1      -8.025  10.826  68.643  1.00  0.00    -0.133 C  
HETATM   23  C   UNL     1      -6.861  10.995  67.653  1.00  0.00    -0.081 C  
BRANCH  20  24
HETATM   24  C   UNL     1      -5.804  10.050  65.521  1.00  0.00    -0.081 C  
HETATM   25  O   UNL     1      -6.004   9.605  64.179  1.00  0.00    -0.088 OA 
HETATM   26  H   UNL     1      -5.198   9.443  63.702  1.00  0.00     0.000 HD 
ENDBRANCH  20  24
BRANCH  23  27
HETATM   27  O   UNL     1      -6.631  12.402  67.360  1.00  0.00    -0.135 OA 
BRANCH  27  28
HETATM   28  C   UNL     1      -5.653  13.008  68.214  1.00  0.00    -0.081 C  
HETATM   29  O   UNL     1      -5.139  14.193  67.623  1.00  0.00    -0.304 OA 
HETATM   30  C   UNL     1      -6.155  15.172  67.395  1.00  0.00     0.112 C  
HETATM   31  C   UNL     1      -6.723  15.653  68.754  1.00  0.00    -0.116 C  
HETATM   32  C   UNL     1      -5.500  16.259  66.546  1.00  0.00     0.752 C  
HETATM   33  C   UNL     1      -7.283  14.430  69.530  1.00  0.00    -0.051 C  
HETATM   34  H   UNL     1      -7.945  14.043  71.359  1.00  0.00     0.000 HD 
HETATM   35  C   UNL     1      -6.252  13.301  69.599  1.00  0.00    -0.113 C  
HETATM   36  O   UNL     1      -7.603  14.792  70.885  1.00  0.00     1.005 OA 
HETATM   37  O   UNL     1      -6.845  12.127  70.182  1.00  0.00    -0.387 OA 
HETATM   38  H   UNL     1      -7.215  12.307  71.037  1.00  0.00     0.000 HD 
BRANCH  31  39
HETATM   39  N   UNL     1      -7.713  16.735  68.530  1.00  0.00    -0.212 NA 
HETATM   40  H   UNL     1      -8.508  16.877  69.153  1.00  0.00     0.000 HD 
BRANCH  39  41
HETATM   41  C   UNL     1      -7.477  17.604  67.340  1.00  0.00    -0.194 C  
HETATM   42  C   UNL     1      -8.889  19.678  67.001  1.00  0.00    -0.376 C  
HETATM   43  C   UNL     1      -8.729  18.354  66.997  1.00  0.00    -0.270 C  
HETATM   44  C   UNL     1      -7.735  20.607  67.265  1.00  0.00    -0.311 C  
HETATM   45  H   UNL     1      -5.230  19.034  69.285  1.00  0.00     0.000 HD 
HETATM   46  O   UNL     1      -5.980  18.486  69.087  1.00  0.00    -0.220 OA 
HETATM   47  C   UNL     1      -6.324  19.967  67.194  1.00  0.00    -0.188 C  
HETATM   48  O   UNL     1      -7.949  21.215  68.536  1.00  0.00     0.873 OA 
HETATM   49  H   UNL     1      -4.949  19.659  65.810  1.00  0.00     0.000 HD 
HETATM   50  O   UNL     1      -5.813  20.051  65.854  1.00  0.00    -0.168 OA 
HETATM   51  C   UNL     1      -6.242  18.508  67.666  1.00  0.00    -0.184 C  
HETATM   52  H   UNL     1      -7.220  21.801  68.702  1.00  0.00     0.000 HD 
BRANCH  42  53
HETATM   53  C   UNL     1     -10.222  20.352  66.764  1.00  0.00    -0.257 C  
HETATM   54  O   UNL     1     -11.268  19.413  66.535  1.00  0.00    -0.143 OA 
HETATM   55  H   UNL     1     -12.106  19.836  66.385  1.00  0.00     0.000 HD 
ENDBRANCH  42  53
ENDBRANCH  39  41
ENDBRANCH  31  39
ENDBRANCH  27  28
ENDBRANCH  23  27
ENDBRANCH  13  14
ENDBRANCH   4  13
ENDBRANCH   1   4
BRANCH   1  56
HETATM   56  C   UNL     1     -11.641   8.983  68.435  1.00  0.00     1.194 C  
HETATM   57  O   UNL     1     -12.865   8.598  69.066  1.00  0.00     3.577 OA 
HETATM   58  H   UNL     1     -12.960   7.654  69.006  1.00  0.00     0.000 HD 
ENDBRANCH   1  56
TORSDOF 12
ENDMDL
MODEL      288
REMARK 921   NORMALIZED FREE ENERGY PREDICTED BY IDOCK:   10.85 KCAL/MOL
REMARK 922        TOTAL FREE ENERGY PREDICTED BY IDOCK:   15.26 KCAL/MOL
REMARK 923 INTER-LIGAND FREE ENERGY PREDICTED BY IDOCK:   -4.89 KCAL/MOL
REMARK 924 INTRA-LIGAND FREE ENERGY PREDICTED BY IDOCK:   20.15 KCAL/MOL
REMARK 927      BINDING AFFINITY PREDICTED BY RF-SCORE:    0.00 PKD
ROOT
HETATM    1  C   UNL     1      -9.144  15.154  69.634  1.00  0.00    -0.061 C  
HETATM    2  H   UNL     1      -9.047  16.027  71.362  1.00  0.00     0.000 HD 
HETATM    3  O   UNL     1      -8.426  15.843  70.667  1.00  0.00     1.629 OA 
ENDROOT
BRANCH   1   4
HETATM    4  C   UNL     1     -10.403  15.934  69.151  1.00  0.00    -0.237 C  
BRANCH   4   5
HETATM    5  C   UNL     1     -11.694  15.532  69.932  1.00  0.00    -0.352 C  
HETATM    6  O   UNL     1     -12.799  16.384  69.594  1.00  0.00    -0.200 OA 
HETATM    7  H   UNL     1     -13.585  16.140  70.068  1.00  0.00     0.000 HD 
BRANCH   5   8
HETATM    8  C   UNL     1     -11.557  15.559  71.459  1.00  0.00    -0.419 C  
HETATM    9  C   UNL     1     -12.911  15.584  72.132  1.00  0.00    -0.422 C  
HETATM   10  O   UNL     1     -10.850  16.758  71.813  1.00  0.00     0.912 OA 
HETATM   11  O   UNL     1     -13.512  14.561  72.456  1.00  0.00    -0.411 OA 
HETATM   12  H   UNL     1     -10.764  16.775  72.759  1.00  0.00     0.000 HD 
ENDBRANCH   5   8
ENDBRANCH   4   5
BRANCH   4  13
HETATM   13  O   UNL     1     -10.638  15.790  67.729  1.00  0.00    -0.277 OA 
BRANCH  13  14
HETATM   14  C   UNL     1     -11.875  15.145  67.383  1.00  0.00    -0.069 C  
HETATM   15  H   UNL     1     -11.843  12.257  70.140  1.00  0.00     0.000 HD 
HETATM   16  O   UNL     1     -12.389  14.609  69.757  1.00  0.00    -0.417 OA 
HETATM   17  C   UNL     1     -12.233  14.079  68.431  1.00  0.00    -0.167 C  
HETATM   18  O   UNL     1     -11.853  14.515  66.110  1.00  0.00    -0.374 OA 
HETATM   19  O   UNL     1     -11.629  11.913  69.280  1.00  0.00    -0.267 OA 
HETATM   20  C   UNL     1     -10.834  13.520  65.969  1.00  0.00    -0.278 C  
HETATM   21  H   UNL     1     -12.609  13.950  70.405  1.00  0.00     0.000 HD 
HETATM   22  C   UNL     1     -11.155  13.004  68.464  1.00  0.00    -0.266 C  
HETATM   23  C   UNL     1     -10.808  12.448  67.074  1.00  0.00    -0.246 C  
BRANCH  20  24
HETATM   24  C   UNL     1     -10.988  12.902  64.560  1.00  0.00    -0.351 C  
HETATM   25  O   UNL     1     -11.026  11.474  64.554  1.00  0.00    -0.321 OA 
HETATM   26  H   UNL     1     -11.121  11.095  63.688  1.00  0.00     0.000 HD 
ENDBRANCH  20  24
BRANCH  23  27
HETATM   27  O   UNL     1      -9.465  11.888  67.060  1.00  0.00    -0.182 OA 
BRANCH  27  28
HETATM   28  C   UNL     1      -8.930  11.659  68.370  1.00  0.00    -0.176 C  
HETATM   29  O   UNL     1      -9.833  10.889  69.150  1.00  0.00    -0.205 OA 
HETATM   30  C   UNL     1     -10.090   9.605  68.576  1.00  0.00    -0.175 C  
HETATM   31  C   UNL     1      -8.787   8.766  68.582  1.00  0.00    -0.138 C  
HETATM   32  C   UNL     1     -11.243   9.014  69.382  1.00  0.00     0.102 C  
HETATM   33  C   UNL     1      -7.690   9.529  67.789  1.00  0.00    -0.088 C  
HETATM   34  H   UNL     1      -5.737   9.371  67.483  1.00  0.00     0.000 HD 
HETATM   35  C   UNL     1      -7.558  10.973  68.280  1.00  0.00    -0.106 C  
HETATM   36  O   UNL     1      -6.407   8.904  67.968  1.00  0.00    -0.054 OA 
HETATM   37  O   UNL     1      -6.652  11.701  67.432  1.00  0.00    -0.083 OA 
HETATM   38  H   UNL     1      -5.804  11.278  67.376  1.00  0.00     0.000 HD 
BRANCH  31  39
HETATM   39  N   UNL     1      -9.065   7.401  68.072  1.00  0.00    -0.131 NA 
HETATM   40  H   UNL     1      -9.265   7.222  67.088  1.00  0.00     0.000 HD 
BRANCH  39  41
HETATM   41  C   UNL     1      -9.036   6.305  69.085  1.00  0.00    -0.130 C  
HETATM   42  C   UNL     1      -7.174   4.591  69.024  1.00  0.00    -0.052 C  
HETATM   43  C   UNL     1      -8.296   5.122  68.537  1.00  0.00    -0.089 C  
HETATM   44  C   UNL     1      -6.560   5.091  70.303  1.00  0.00    -0.035 C  
HETATM   45  H   UNL     1      -7.401   8.521  70.900  1.00  0.00     0.000 HD 
HETATM   46  O   UNL     1      -7.769   8.157  70.104  1.00  0.00    -0.081 OA 
HETATM   47  C   UNL     1      -7.465   5.999  71.176  1.00  0.00    -0.085 C  
HETATM   48  O   UNL     1      -5.347   5.760  69.970  1.00  0.00    -0.008 OA 
HETATM   49  H   UNL     1      -8.777   5.755  72.632  1.00  0.00     0.000 HD 
HETATM   50  O   UNL     1      -8.222   5.198  72.097  1.00  0.00    -0.111 OA 
HETATM   51  C   UNL     1      -8.430   6.905  70.397  1.00  0.00    -0.134 C  
HETATM   52  H   UNL     1      -4.960   6.076  70.778  1.00  0.00     0.000 HD 
BRANCH  42  53
HETATM   53  C   UNL     1      -6.422   3.472  68.338  1.00  0.00    -0.037 C  
HETATM   54  O   UNL     1      -7.078   2.216  68.476  1.00  0.00    -0.043 OA 
HETATM   55  H   UNL     1      -6.605   1.513  68.046  1.00  0.00     0.000 HD 
ENDBRANCH  42  53
ENDBRANCH  39  41
ENDBRANCH  31  39
ENDBRANCH  27  28
ENDBRANCH  23  27
ENDBRANCH  13  14
ENDBRANCH   4  13
ENDBRANCH   1   4
BRANCH   1  56
HETATM   56  C   UNL     1      -8.144  14.858  68.514  1.00  0.00    -0.147 C  
HETATM   57  O   UNL     1      -6.826  15.165  68.975  1.00  0.00    -0.107 OA 
HETATM   58  H   UNL     1      -6.205  14.981  68.280  1.00  0.00     0.000 HD 
ENDBRANCH   1  56
TORSDOF 12
ENDMDL
MODEL      289
REMARK 921   NORMALIZED FREE ENERGY PREDICTED BY IDOCK:   10.88 KCAL/MOL
REMARK 922        TOTAL FREE ENERGY PREDICTED BY IDOCK:   15.32 KCAL/MOL
REMARK 923 INTER-LIGAND FREE ENERGY PREDICTED BY IDOCK:   -2.26 KCAL/MOL
REMARK 924 INTRA-LIGAND FREE ENERGY PREDICTED BY IDOCK:   17.58 KCAL/MOL
REMARK 927      BINDING AFFINITY PREDICTED BY RF-SCORE:    0.00 PKD
ROOT
HETATM    1  C   UNL     1     -12.032  15.190  68.816  1.00  0.00    -0.250 C  
HETATM    2  H   UNL     1     -13.219  13.658  68.787  1.00  0.00     0.000 HD 
HETATM    3  O   UNL     1     -13.190  14.495  68.337  1.00  0.00     1.819 OA 
ENDROOT
BRANCH   1   4
HETATM    4  C   UNL     1     -10.723  14.358  68.664  1.00  0.00    -0.253 C  
BRANCH   4   5
HETATM    5  C   UNL     1     -10.269  14.220  67.176  1.00  0.00    -0.254 C  
HETATM    6  O   UNL     1      -9.221  15.149  66.858  1.00  0.00    -0.212 OA 
HETATM    7  H   UNL     1      -8.944  15.064  65.953  1.00  0.00     0.000 HD 
BRANCH   5   8
HETATM    8  C   UNL     1     -11.382  14.427  66.142  1.00  0.00    -0.350 C  
HETATM    9  C   UNL     1     -10.821  14.508  64.740  1.00  0.00    -0.393 C  
HETATM   10  O   UNL     1     -12.035  15.670  66.445  1.00  0.00     0.422 OA 
HETATM   11  O   UNL     1     -10.682  13.520  64.021  1.00  0.00    -0.296 OA 
HETATM   12  H   UNL     1     -12.725  15.797  65.804  1.00  0.00     0.000 HD 
ENDBRANCH   5   8
ENDBRANCH   4   5
BRANCH   4  13
HETATM   13  O   UNL     1     -10.825  13.042  69.259  1.00  0.00    -0.138 OA 
BRANCH  13  14
HETATM   14  C   UNL     1     -11.888  12.225  68.740  1.00  0.00    -0.306 C  
HETATM   15  H   UNL     1     -10.916   8.777  70.506  1.00  0.00     0.000 HD 
HETATM   16  O   UNL     1     -12.056  10.913  70.848  1.00  0.00    -0.332 OA 
HETATM   17  C   UNL     1     -11.884  10.847  69.423  1.00  0.00    -0.328 C  
HETATM   18  O   UNL     1     -11.815  12.016  67.337  1.00  0.00    -0.546 OA 
HETATM   19  O   UNL     1     -10.695   8.764  69.582  1.00  0.00    -0.231 OA 
HETATM   20  C   UNL     1     -10.598  11.405  66.900  1.00  0.00    -0.252 C  
HETATM   21  H   UNL     1     -12.053  10.062  71.270  1.00  0.00     0.000 HD 
HETATM   22  C   UNL     1     -10.574  10.128  69.128  1.00  0.00    -0.224 C  
HETATM   23  C   UNL     1     -10.217  10.106  67.633  1.00  0.00    -0.203 C  
BRANCH  20  24
HETATM   24  C   UNL     1     -10.709  11.202  65.372  1.00  0.00    -0.192 C  
HETATM   25  O   UNL     1     -12.018  11.435  64.850  1.00  0.00     0.086 OA 
HETATM   26  H   UNL     1     -12.087  11.310  63.910  1.00  0.00     0.000 HD 
ENDBRANCH  20  24
BRANCH  23  27
HETATM   27  O   UNL     1      -8.782   9.945  67.447  1.00  0.00    -0.128 OA 
BRANCH  27  28
HETATM   28  C   UNL     1      -8.397   9.825  66.072  1.00  0.00    -0.120 C  
HETATM   29  O   UNL     1      -7.013   9.527  65.965  1.00  0.00    -0.088 OA 
HETATM   30  C   UNL     1      -6.672   8.293  66.601  1.00  0.00    -0.064 C  
HETATM   31  C   UNL     1      -7.361   7.121  65.858  1.00  0.00    -0.075 C  
HETATM   32  C   UNL     1      -5.146   8.242  66.615  1.00  0.00    -0.027 C  
HETATM   33  C   UNL     1      -8.896   7.351  65.863  1.00  0.00    -0.120 C  
HETATM   34  H   UNL     1     -10.492   6.560  64.990  1.00  0.00     0.000 HD 
HETATM   35  C   UNL     1      -9.245   8.756  65.365  1.00  0.00    -0.088 C  
HETATM   36  O   UNL     1      -9.553   6.418  64.987  1.00  0.00     0.805 OA 
HETATM   37  O   UNL     1     -10.654   9.001  65.526  1.00  0.00     0.421 OA 
HETATM   38  H   UNL     1     -11.178   8.341  65.089  1.00  0.00     0.000 HD 
BRANCH  31  39
HETATM   39  N   UNL     1      -6.938   5.830  66.454  1.00  0.00    -0.059 NA 
HETATM   40  H   UNL     1      -5.980   5.488  66.381  1.00  0.00     0.000 HD 
BRANCH  39  41
HETATM   41  C   UNL     1      -7.999   5.060  67.169  1.00  0.00    -0.100 C  
HETATM   42  C   UNL     1      -9.908   4.041  65.855  1.00  0.00    -0.179 C  
HETATM   43  C   UNL     1      -9.272   5.089  66.378  1.00  0.00    -0.139 C  
HETATM   44  C   UNL     1      -9.438   2.633  66.106  1.00  0.00     0.117 C  
HETATM   45  H   UNL     1      -5.920   2.530  66.768  1.00  0.00     0.000 HD 
HETATM   46  O   UNL     1      -6.266   3.400  66.606  1.00  0.00    -0.027 OA 
HETATM   47  C   UNL     1      -8.410   2.460  67.253  1.00  0.00    -0.084 C  
HETATM   48  O   UNL     1      -8.917   2.124  64.881  1.00  0.00    -0.116 OA 
HETATM   49  H   UNL     1      -8.464   2.125  69.199  1.00  0.00     0.000 HD 
HETATM   50  O   UNL     1      -9.094   2.231  68.496  1.00  0.00    -0.119 OA 
HETATM   51  C   UNL     1      -7.429   3.627  67.435  1.00  0.00    -0.067 C  
HETATM   52  H   UNL     1      -8.621   1.236  65.040  1.00  0.00     0.000 HD 
BRANCH  42  53
HETATM   53  C   UNL     1     -11.123   4.169  64.963  1.00  0.00     0.223 C  
HETATM   54  O   UNL     1     -12.003   5.202  65.395  1.00  0.00    -0.122 OA 
HETATM   55  H   UNL     1     -12.767   5.282  64.836  1.00  0.00     0.000 HD 
ENDBRANCH  42  53
ENDBRANCH  39  41
ENDBRANCH  31  39
ENDBRANCH  27  28
ENDBRANCH  23  27
ENDBRANCH  13  14
ENDBRANCH   4  13
ENDBRANCH   1   4
BRANCH   1  56
HETATM   56  C   UNL     1     -11.985  16.537  68.091  1.00  0.00     0.688 C  
HETATM   57  O   UNL     1     -10.669  17.084  68.213  1.00  0.00    -0.358 OA 
HETATM   58  H   UNL     1     -10.640  17.920  67.762  1.00  0.00     0.000 HD 
ENDBRANCH   1  56
TORSDOF 12
ENDMDL
MODEL      290
REMARK 921   NORMALIZED FREE ENERGY PREDICTED BY IDOCK:   10.91 KCAL/MOL
REMARK 922        TOTAL FREE ENERGY PREDICTED BY IDOCK:   15.38 KCAL/MOL
REMARK 923 INTER-LIGAND FREE ENERGY PREDICTED BY IDOCK:    0.34 KCAL/MOL
REMARK 924 INTRA-LIGAND FREE ENERGY PREDICTED BY IDOCK:   15.03 KCAL/MOL
REMARK 927      BINDING AFFINITY PREDICTED BY RF-SCORE:    0.00 PKD
ROOT
HETATM    1  C   UNL     1      -6.609   7.467  67.517  1.00  0.00    -0.061 C  
HETATM    2  H   UNL     1      -6.911   7.240  65.615  1.00  0.00     0.000 HD 
HETATM    3  O   UNL     1      -6.462   6.742  66.289  1.00  0.00    -0.044 OA 
ENDROOT
BRANCH   1   4
HETATM    4  C   UNL     1      -8.096   7.775  67.861  1.00  0.00    -0.126 C  
BRANCH   4   5
HETATM    5  C   UNL     1      -8.845   6.539  68.452  1.00  0.00    -0.123 C  
HETATM    6  O   UNL     1      -9.553   5.816  67.433  1.00  0.00    -0.111 OA 
HETATM    7  H   UNL     1     -10.008   5.064  67.792  1.00  0.00     0.000 HD 
BRANCH   5   8
HETATM    8  C   UNL     1      -9.858   6.867  69.556  1.00  0.00    -0.159 C  
HETATM    9  C   UNL     1      -9.331   6.477  70.919  1.00  0.00    -0.161 C  
HETATM   10  O   UNL     1     -11.051   6.110  69.294  1.00  0.00    -0.352 OA 
HETATM   11  O   UNL     1      -8.687   7.247  71.628  1.00  0.00    -0.118 OA 
HETATM   12  H   UNL     1     -11.678   6.314  69.977  1.00  0.00     0.000 HD 
ENDBRANCH   5   8
ENDBRANCH   4   5
BRANCH   4  13
HETATM   13  O   UNL     1      -8.838   8.289  66.728  1.00  0.00    -0.130 OA 
BRANCH  13  14
HETATM   14  C   UNL     1      -8.030   8.697  65.612  1.00  0.00    -0.105 C  
HETATM   15  H   UNL     1      -5.991  11.637  67.386  1.00  0.00     0.000 HD 
HETATM   16  O   UNL     1      -6.081   9.214  67.069  1.00  0.00    -0.055 OA 
HETATM   17  C   UNL     1      -6.974   9.719  66.063  1.00  0.00    -0.099 C  
HETATM   18  O   UNL     1      -8.774   9.279  64.552  1.00  0.00    -0.189 OA 
HETATM   19  O   UNL     1      -6.657  11.984  66.803  1.00  0.00    -0.096 OA 
HETATM   20  C   UNL     1      -9.532  10.431  64.934  1.00  0.00    -0.265 C  
HETATM   21  H   UNL     1      -5.429   9.846  67.349  1.00  0.00     0.000 HD 
HETATM   22  C   UNL     1      -7.659  10.966  66.607  1.00  0.00    -0.139 C  
HETATM   23  C   UNL     1      -8.736  11.527  65.664  1.00  0.00     0.050 C  
BRANCH  20  24
HETATM   24  C   UNL     1     -10.229  10.965  63.661  1.00  0.00    -0.332 C  
HETATM   25  O   UNL     1      -9.937  12.334  63.372  1.00  0.00    -0.488 OA 
HETATM   26  H   UNL     1     -10.365  12.662  62.589  1.00  0.00     0.000 HD 
ENDBRANCH  20  24
BRANCH  23  27
HETATM   27  O   UNL     1      -9.714  12.310  66.404  1.00  0.00    -0.224 OA 
BRANCH  27  28
HETATM   28  C   UNL     1     -10.998  12.362  65.771  1.00  0.00    -0.298 C  
HETATM   29  O   UNL     1     -12.022  12.560  66.734  1.00  0.00    -0.518 OA 
HETATM   30  C   UNL     1     -11.863  13.786  67.452  1.00  0.00    -0.396 C  
HETATM   31  C   UNL     1     -12.034  14.981  66.479  1.00  0.00     0.039 C  
HETATM   32  C   UNL     1     -12.876  13.732  68.594  1.00  0.00     1.295 C  
HETATM   33  C   UNL     1     -10.989  14.857  65.338  1.00  0.00    -0.364 C  
HETATM   34  H   UNL     1     -10.624  15.730  63.594  1.00  0.00     0.000 HD 
HETATM   35  C   UNL     1     -11.028  13.465  64.701  1.00  0.00    -0.377 C  
HETATM   36  O   UNL     1     -11.263  15.806  64.292  1.00  0.00    -0.328 OA 
HETATM   37  O   UNL     1      -9.951  13.323  63.758  1.00  0.00    -0.699 OA 
HETATM   38  H   UNL     1      -9.970  14.004  63.097  1.00  0.00     0.000 HD 
BRANCH  31  39
HETATM   39  N   UNL     1     -11.963  16.257  67.232  1.00  0.00     0.756 NA 
HETATM   40  H   UNL     1     -12.514  16.418  68.076  1.00  0.00     0.000 HD 
BRANCH  39  41
HETATM   41  C   UNL     1     -11.037  17.291  66.683  1.00  0.00     0.391 C  
HETATM   42  C   UNL     1     -10.841  19.537  67.836  1.00  0.00    -0.304 C  
HETATM   43  C   UNL     1     -11.504  18.658  67.082  1.00  0.00     0.917 C  
HETATM   44  C   UNL     1      -9.437  19.267  68.303  1.00  0.00    -0.359 C  
HETATM   45  H   UNL     1      -8.796  15.752  68.552  1.00  0.00     0.000 HD 
HETATM   46  O   UNL     1      -9.672  15.974  68.257  1.00  0.00    -0.210 OA 
HETATM   47  C   UNL     1      -8.702  18.100  67.594  1.00  0.00    -0.248 C  
HETATM   48  O   UNL     1      -9.481  19.053  69.711  1.00  0.00     0.281 OA 
HETATM   49  H   UNL     1      -7.552  17.875  66.005  1.00  0.00     0.000 HD 
HETATM   50  O   UNL     1      -8.001  18.590  66.439  1.00  0.00    -0.259 OA 
HETATM   51  C   UNL     1      -9.596  16.925  67.170  1.00  0.00    -0.244 C  
HETATM   52  H   UNL     1      -8.594  18.883  70.006  1.00  0.00     0.000 HD 
BRANCH  42  53
HETATM   53  C   UNL     1     -11.437  20.849  68.296  1.00  0.00     3.065 C  
HETATM   54  O   UNL     1     -11.764  20.837  69.682  1.00  0.00     1.580 OA 
HETATM   55  H   UNL     1     -12.138  21.661  69.971  1.00  0.00     0.000 HD 
ENDBRANCH  42  53
ENDBRANCH  39  41
ENDBRANCH  31  39
ENDBRANCH  27  28
ENDBRANCH  23  27
ENDBRANCH  13  14
ENDBRANCH   4  13
ENDBRANCH   1   4
BRANCH   1  56
HETATM   56  C   UNL     1      -5.886   6.664  68.601  1.00  0.00    -0.021 C  
HETATM   57  O   UNL     1      -6.123   7.280  69.869  1.00  0.00    -0.026 OA 
HETATM   58  H   UNL     1      -5.675   6.781  70.543  1.00  0.00     0.000 HD 
ENDBRANCH   1  56
TORSDOF 12
ENDMDL
MODEL      291
REMARK 921   NORMALIZED FREE ENERGY PREDICTED BY IDOCK:   12.67 KCAL/MOL
REMARK 922        TOTAL FREE ENERGY PREDICTED BY IDOCK:   18.37 KCAL/MOL
REMARK 923 INTER-LIGAND FREE ENERGY PREDICTED BY IDOCK:   -0.37 KCAL/MOL
REMARK 924 INTRA-LIGAND FREE ENERGY PREDICTED BY IDOCK:   18.74 KCAL/MOL
REMARK 927      BINDING AFFINITY PREDICTED BY RF-SCORE:    0.00 PKD
ROOT
HETATM    1  C   UNL     1      -8.590   6.451  66.501  1.00  0.00    -0.125 C  
HETATM    2  H   UNL     1      -8.559   5.143  67.932  1.00  0.00     0.000 HD 
HETATM    3  O   UNL     1      -8.278   5.153  67.024  1.00  0.00    -0.107 OA 
ENDROOT
BRANCH   1   4
HETATM    4  C   UNL     1      -7.981   7.606  67.351  1.00  0.00    -0.119 C  
BRANCH   4   5
HETATM    5  C   UNL     1      -7.544   8.827  66.481  1.00  0.00    -0.095 C  
HETATM    6  O   UNL     1      -7.157   8.419  65.160  1.00  0.00    -0.073 OA 
HETATM    7  H   UNL     1      -6.892   9.162  64.630  1.00  0.00     0.000 HD 
BRANCH   5   8
HETATM    8  C   UNL     1      -6.382   9.645  67.058  1.00  0.00    -0.065 C  
HETATM    9  C   UNL     1      -6.174  10.926  66.282  1.00  0.00    -0.134 C  
HETATM   10  O   UNL     1      -5.191   8.848  66.951  1.00  0.00    -0.038 OA 
HETATM   11  O   UNL     1      -6.732  11.981  66.578  1.00  0.00     0.056 OA 
HETATM   12  H   UNL     1      -4.471   9.354  67.308  1.00  0.00     0.000 HD 
ENDBRANCH   5   8
ENDBRANCH   4   5
BRANCH   4  13
HETATM   13  O   UNL     1      -6.864   7.172  68.164  1.00  0.00    -0.068 OA 
BRANCH  13  14
HETATM   14  C   UNL     1      -7.061   7.302  69.582  1.00  0.00    -0.073 C  
HETATM   15  H   UNL     1     -10.984   6.562  69.715  1.00  0.00     0.000 HD 
HETATM   16  O   UNL     1      -8.781   5.504  69.618  1.00  0.00    -0.106 OA 
HETATM   17  C   UNL     1      -8.486   6.867  69.964  1.00  0.00    -0.140 C  
HETATM   18  O   UNL     1      -6.864   8.622  70.067  1.00  0.00    -0.041 OA 
HETATM   19  O   UNL     1     -10.805   7.487  69.835  1.00  0.00    -0.248 OA 
HETATM   20  C   UNL     1      -7.712   9.601  69.458  1.00  0.00    -0.109 C  
HETATM   21  H   UNL     1      -9.661   5.236  69.854  1.00  0.00     0.000 HD 
HETATM   22  C   UNL     1      -9.504   7.770  69.280  1.00  0.00    -0.155 C  
HETATM   23  C   UNL     1      -9.214   9.267  69.474  1.00  0.00    -0.165 C  
BRANCH  20  24
HETATM   24  C   UNL     1      -7.408  10.957  70.137  1.00  0.00     0.435 C  
HETATM   25  O   UNL     1      -6.788  11.911  69.273  1.00  0.00    -0.125 OA 
HETATM   26  H   UNL     1      -6.601  12.744  69.690  1.00  0.00     0.000 HD 
ENDBRANCH  20  24
BRANCH  23  27
HETATM   27  O   UNL     1      -9.812  10.053  68.405  1.00  0.00    -0.149 OA 
BRANCH  27  28
HETATM   28  C   UNL     1     -11.174  10.418  68.660  1.00  0.00    -0.248 C  
HETATM   29  O   UNL     1     -11.239  11.466  69.616  1.00  0.00    -0.258 OA 
HETATM   30  C   UNL     1     -10.568  12.648  69.173  1.00  0.00     0.050 C  
HETATM   31  C   UNL     1     -11.304  13.227  67.937  1.00  0.00    -0.284 C  
HETATM   32  C   UNL     1     -10.515  13.574  70.386  1.00  0.00     2.078 C  
HETATM   33  C   UNL     1     -11.342  12.149  66.820  1.00  0.00    -0.342 C  
HETATM   34  H   UNL     1     -12.238  11.897  65.068  1.00  0.00     0.000 HD 
HETATM   35  C   UNL     1     -11.879  10.820  67.355  1.00  0.00     0.722 C  
HETATM   36  O   UNL     1     -12.214  12.556  65.751  1.00  0.00    -0.578 OA 
HETATM   37  O   UNL     1     -11.759   9.798  66.349  1.00  0.00     1.345 OA 
HETATM   38  H   UNL     1     -12.195  10.046  65.542  1.00  0.00     0.000 HD 
BRANCH  31  39
HETATM   39  N   UNL     1     -10.669  14.504  67.527  1.00  0.00    -0.272 NA 
HETATM   40  H   UNL     1     -10.440  15.235  68.202  1.00  0.00     0.000 HD 
BRANCH  39  41
HETATM   41  C   UNL     1     -10.384  14.656  66.070  1.00  0.00    -0.305 C  
HETATM   42  C   UNL     1     -10.632  12.662  64.530  1.00  0.00    -0.369 C  
HETATM   43  C   UNL     1      -9.989  13.333  65.486  1.00  0.00    -0.222 C  
HETATM   44  C   UNL     1     -11.830  13.246  63.832  1.00  0.00    -0.465 C  
HETATM   45  H   UNL     1     -13.542  15.596  65.923  1.00  0.00     0.000 HD 
HETATM   46  O   UNL     1     -12.774  15.201  66.319  1.00  0.00     0.620 OA 
HETATM   47  C   UNL     1     -12.057  14.766  64.040  1.00  0.00    -0.161 C  
HETATM   48  O   UNL     1     -12.976  12.505  64.241  1.00  0.00    -0.748 OA 
HETATM   49  H   UNL     1     -11.503  16.441  63.153  1.00  0.00     0.000 HD 
HETATM   50  O   UNL     1     -11.364  15.510  63.025  1.00  0.00     1.894 OA 
HETATM   51  C   UNL     1     -11.648  15.307  65.418  1.00  0.00    -0.102 C  
HETATM   52  H   UNL     1     -13.732  12.874  63.800  1.00  0.00     0.000 HD 
BRANCH  42  53
HETATM   53  C   UNL     1     -10.235  11.272  64.083  1.00  0.00    -0.335 C  
HETATM   54  O   UNL     1      -9.961  11.212  62.687  1.00  0.00    -0.579 OA 
HETATM   55  H   UNL     1      -9.712  10.339  62.407  1.00  0.00     0.000 HD 
ENDBRANCH  42  53
ENDBRANCH  39  41
ENDBRANCH  31  39
ENDBRANCH  27  28
ENDBRANCH  23  27
ENDBRANCH  13  14
ENDBRANCH   4  13
ENDBRANCH   1   4
BRANCH   1  56
HETATM   56  C   UNL     1      -8.138   6.468  65.039  1.00  0.00    -0.127 C  
HETATM   57  O   UNL     1      -6.731   6.221  64.986  1.00  0.00    -0.041 OA 
HETATM   58  H   UNL     1      -6.450   6.230  64.079  1.00  0.00     0.000 HD 
ENDBRANCH   1  56
TORSDOF 12
ENDMDL
MODEL      292
REMARK 921   NORMALIZED FREE ENERGY PREDICTED BY IDOCK:   12.88 KCAL/MOL
REMARK 922        TOTAL FREE ENERGY PREDICTED BY IDOCK:   18.72 KCAL/MOL
REMARK 923 INTER-LIGAND FREE ENERGY PREDICTED BY IDOCK:   -5.58 KCAL/MOL
REMARK 924 INTRA-LIGAND FREE ENERGY PREDICTED BY IDOCK:   24.30 KCAL/MOL
REMARK 927      BINDING AFFINITY PREDICTED BY RF-SCORE:    0.00 PKD
ROOT
HETATM    1  C   UNL     1      -9.611   4.535  68.029  1.00  0.00    -0.154 C  
HETATM    2  H   UNL     1      -8.749   2.937  67.349  1.00  0.00     0.000 HD 
HETATM    3  O   UNL     1      -9.476   3.481  67.067  1.00  0.00    -0.197 OA 
ENDROOT
BRANCH   1   4
HETATM    4  C   UNL     1      -8.288   5.330  68.242  1.00  0.00    -0.097 C  
BRANCH   4   5
HETATM    5  C   UNL     1      -7.187   4.955  67.200  1.00  0.00    -0.077 C  
HETATM    6  O   UNL     1      -6.261   6.034  67.003  1.00  0.00    -0.024 OA 
HETATM    7  H   UNL     1      -5.591   5.806  66.369  1.00  0.00     0.000 HD 
BRANCH   5   8
HETATM    8  C   UNL     1      -7.719   4.560  65.816  1.00  0.00    -0.094 C  
HETATM    9  C   UNL     1      -6.641   3.909  64.980  1.00  0.00    -0.047 C  
HETATM   10  O   UNL     1      -8.148   5.761  65.154  1.00  0.00    -0.119 OA 
HETATM   11  O   UNL     1      -6.447   2.695  64.974  1.00  0.00    -0.029 OA 
HETATM   12  H   UNL     1      -8.478   5.516  64.298  1.00  0.00     0.000 HD 
ENDBRANCH   5   8
ENDBRANCH   4   5
BRANCH   4  13
HETATM   13  O   UNL     1      -7.754   5.179  69.580  1.00  0.00    -0.067 OA 
BRANCH  13  14
HETATM   14  C   UNL     1      -8.699   4.715  70.559  1.00  0.00    -0.102 C  
HETATM   15  H   UNL     1      -9.896   8.256  71.966  1.00  0.00     0.000 HD 
HETATM   16  O   UNL     1     -10.224   6.640  70.160  1.00  0.00    -0.182 OA 
HETATM   17  C   UNL     1      -9.485   5.900  71.145  1.00  0.00    -0.161 C  
HETATM   18  O   UNL     1      -8.103   4.011  71.639  1.00  0.00    -0.075 OA 
HETATM   19  O   UNL     1      -9.316   7.820  72.580  1.00  0.00    -0.155 OA 
HETATM   20  C   UNL     1      -7.124   4.767  72.359  1.00  0.00    -0.079 C  
HETATM   21  H   UNL     1     -10.709   7.372  70.522  1.00  0.00     0.000 HD 
HETATM   22  C   UNL     1      -8.531   6.854  71.851  1.00  0.00    -0.114 C  
HETATM   23  C   UNL     1      -7.593   6.151  72.844  1.00  0.00    -0.101 C  
BRANCH  20  24
HETATM   24  C   UNL     1      -6.624   3.879  73.522  1.00  0.00    -0.042 C  
HETATM   25  O   UNL     1      -5.860   4.584  74.503  1.00  0.00    -0.026 OA 
HETATM   26  H   UNL     1      -5.553   4.038  75.217  1.00  0.00     0.000 HD 
ENDBRANCH  20  24
BRANCH  23  27
HETATM   27  O   UNL     1      -6.384   6.933  73.057  1.00  0.00    -0.060 OA 
BRANCH  27  28
HETATM   28  C   UNL     1      -6.644   8.299  73.401  1.00  0.00    -0.112 C  
HETATM   29  O   UNL     1      -5.966   9.176  72.514  1.00  0.00    -0.206 OA 
HETATM   30  C   UNL     1      -6.382   9.004  71.157  1.00  0.00    -0.065 C  
HETATM   31  C   UNL     1      -7.870   9.413  71.017  1.00  0.00     0.026 C  
HETATM   32  C   UNL     1      -5.404   9.822  70.317  1.00  0.00    -0.041 C  
HETATM   33  C   UNL     1      -8.726   8.549  71.982  1.00  0.00    -0.196 C  
HETATM   34  H   UNL     1     -10.594   8.523  72.649  1.00  0.00     0.000 HD 
HETATM   35  C   UNL     1      -8.155   8.578  73.402  1.00  0.00     0.004 C  
HETATM   36  O   UNL     1     -10.071   9.052  72.058  1.00  0.00    -0.327 OA 
HETATM   37  O   UNL     1      -8.868   7.651  74.240  1.00  0.00    -0.328 OA 
HETATM   38  H   UNL     1      -9.801   7.823  74.241  1.00  0.00     0.000 HD 
BRANCH  31  39
HETATM   39  N   UNL     1      -8.283   9.325  69.595  1.00  0.00    -0.116 NA 
HETATM   40  H   UNL     1      -8.352   8.432  69.106  1.00  0.00     0.000 HD 
BRANCH  39  41
HETATM   41  C   UNL     1      -8.593  10.620  68.921  1.00  0.00    -0.158 C  
HETATM   42  C   UNL     1      -7.242  11.337  66.902  1.00  0.00    -0.142 C  
HETATM   43  C   UNL     1      -7.374  11.132  68.214  1.00  0.00    -0.090 C  
HETATM   44  C   UNL     1      -8.403  11.160  65.961  1.00  0.00    -0.115 C  
HETATM   45  H   UNL     1     -10.778   8.806  67.243  1.00  0.00     0.000 HD 
HETATM   46  O   UNL     1     -10.026   8.955  67.805  1.00  0.00    -0.171 OA 
HETATM   47  C   UNL     1      -9.801  11.065  66.624  1.00  0.00    -0.200 C  
HETATM   48  O   UNL     1      -8.143  10.008  65.164  1.00  0.00    -0.131 OA 
HETATM   49  H   UNL     1     -11.231  12.318  67.158  1.00  0.00     0.000 HD 
HETATM   50  O   UNL     1     -10.374  12.376  66.752  1.00  0.00    -0.220 OA 
HETATM   51  C   UNL     1      -9.830  10.375  67.995  1.00  0.00    -0.150 C  
HETATM   52  H   UNL     1      -8.876   9.897  64.569  1.00  0.00     0.000 HD 
BRANCH  42  53
HETATM   53  C   UNL     1      -5.936  11.738  66.254  1.00  0.00     0.361 C  
HETATM   54  O   UNL     1      -5.773  11.156  64.965  1.00  0.00    -0.454 OA 
HETATM   55  H   UNL     1      -4.952  11.408  64.557  1.00  0.00     0.000 HD 
ENDBRANCH  42  53
ENDBRANCH  39  41
ENDBRANCH  31  39
ENDBRANCH  27  28
ENDBRANCH  23  27
ENDBRANCH  13  14
ENDBRANCH   4  13
ENDBRANCH   1   4
BRANCH   1  56
HETATM   56  C   UNL     1     -10.781   5.411  67.574  1.00  0.00    -0.058 C  
HETATM   57  O   UNL     1     -11.060   5.134  66.199  1.00  0.00    -0.686 OA 
HETATM   58  H   UNL     1     -11.787   5.677  65.916  1.00  0.00     0.000 HD 
ENDBRANCH   1  56
TORSDOF 12
ENDMDL
MODEL      293
REMARK 921   NORMALIZED FREE ENERGY PREDICTED BY IDOCK:   13.66 KCAL/MOL
REMARK 922        TOTAL FREE ENERGY PREDICTED BY IDOCK:   20.05 KCAL/MOL
REMARK 923 INTER-LIGAND FREE ENERGY PREDICTED BY IDOCK:   -2.61 KCAL/MOL
REMARK 924 INTRA-LIGAND FREE ENERGY PREDICTED BY IDOCK:   22.66 KCAL/MOL
REMARK 927      BINDING AFFINITY PREDICTED BY RF-SCORE:    0.00 PKD
ROOT
HETATM    1  C   UNL     1      -8.916   6.369  69.899  1.00  0.00    -0.142 C  
HETATM    2  H   UNL     1     -10.809   6.117  69.570  1.00  0.00     0.000 HD 
HETATM    3  O   UNL     1     -10.263   6.852  69.823  1.00  0.00    -0.188 OA 
ENDROOT
BRANCH   1   4
HETATM    4  C   UNL     1      -8.449   5.673  68.586  1.00  0.00    -0.105 C  
BRANCH   4   5
HETATM    5  C   UNL     1      -9.629   5.395  67.602  1.00  0.00    -0.127 C  
HETATM    6  O   UNL     1     -10.048   6.593  66.930  1.00  0.00    -0.170 OA 
HETATM    7  H   UNL     1     -10.765   6.424  66.331  1.00  0.00     0.000 HD 
BRANCH   5   8
HETATM    8  C   UNL     1     -10.877   4.784  68.251  1.00  0.00     0.958 C  
HETATM    9  C   UNL     1     -11.021   5.228  69.689  1.00  0.00     0.328 C  
HETATM   10  O   UNL     1     -10.727   3.355  68.226  1.00  0.00     1.842 OA 
HETATM   11  O   UNL     1     -11.651   6.232  70.015  1.00  0.00    -0.425 OA 
HETATM   12  H   UNL     1     -11.500   2.977  68.628  1.00  0.00     0.000 HD 
ENDBRANCH   5   8
ENDBRANCH   4   5
BRANCH   4  13
HETATM   13  O   UNL     1      -7.728   4.442  68.831  1.00  0.00    -0.065 OA 
BRANCH  13  14
HETATM   14  C   UNL     1      -7.647   3.554  67.703  1.00  0.00    -0.069 C  
HETATM   15  H   UNL     1      -4.353   5.038  66.001  1.00  0.00     0.000 HD 
HETATM   16  O   UNL     1      -5.160   3.537  67.755  1.00  0.00    -0.007 OA 
HETATM   17  C   UNL     1      -6.325   3.770  66.948  1.00  0.00    -0.036 C  
HETATM   18  O   UNL     1      -8.710   3.712  66.775  1.00  0.00    -0.110 OA 
HETATM   19  O   UNL     1      -5.132   5.291  65.520  1.00  0.00    -0.008 OA 
HETATM   20  C   UNL     1      -8.820   5.032  66.233  1.00  0.00    -0.118 C  
HETATM   21  H   UNL     1      -4.343   3.671  67.288  1.00  0.00     0.000 HD 
HETATM   22  C   UNL     1      -6.264   5.193  66.409  1.00  0.00    -0.035 C  
HETATM   23  C   UNL     1      -7.524   5.603  65.631  1.00  0.00    -0.074 C  
BRANCH  20  24
HETATM   24  C   UNL     1      -9.979   5.012  65.210  1.00  0.00     0.121 C  
HETATM   25  O   UNL     1      -9.586   4.614  63.895  1.00  0.00    -0.343 OA 
HETATM   26  H   UNL     1     -10.298   4.601  63.267  1.00  0.00     0.000 HD 
ENDBRANCH  20  24
BRANCH  23  27
HETATM   27  O   UNL     1      -7.683   7.049  65.630  1.00  0.00    -0.091 OA 
BRANCH  27  28
HETATM   28  C   UNL     1      -6.440   7.760  65.588  1.00  0.00    -0.042 C  
HETATM   29  O   UNL     1      -6.263   8.385  64.326  1.00  0.00    -0.065 OA 
HETATM   30  C   UNL     1      -7.293   9.334  64.040  1.00  0.00    -0.102 C  
HETATM   31  C   UNL     1      -7.208  10.507  65.049  1.00  0.00     0.005 C  
HETATM   32  C   UNL     1      -7.103   9.725  62.577  1.00  0.00    -0.113 C  
HETATM   33  C   UNL     1      -7.343   9.946  66.491  1.00  0.00    -0.099 C  
HETATM   34  H   UNL     1      -7.118  10.617  68.344  1.00  0.00     0.000 HD 
HETATM   35  C   UNL     1      -6.368   8.790  66.726  1.00  0.00    -0.059 C  
HETATM   36  O   UNL     1      -7.035  10.961  67.462  1.00  0.00    -0.079 OA 
HETATM   37  O   UNL     1      -6.619   8.186  68.008  1.00  0.00    -0.055 OA 
HETATM   38  H   UNL     1      -6.574   8.822  68.712  1.00  0.00     0.000 HD 
BRANCH  31  39
HETATM   39  N   UNL     1      -8.214  11.541  64.704  1.00  0.00     0.219 NA 
HETATM   40  H   UNL     1      -7.945  12.487  64.432  1.00  0.00     0.000 HD 
BRANCH  39  41
HETATM   41  C   UNL     1      -9.643  11.116  64.777  1.00  0.00    -0.240 C  
HETATM   42  C   UNL     1     -11.051  11.790  66.771  1.00  0.00    -0.360 C  
HETATM   43  C   UNL     1     -10.087  11.060  66.208  1.00  0.00    -0.282 C  
HETATM   44  C   UNL     1     -11.906  12.723  65.956  1.00  0.00    -0.439 C  
HETATM   45  H   UNL     1     -10.172  13.869  63.039  1.00  0.00     0.000 HD 
HETATM   46  O   UNL     1      -9.674  13.274  63.587  1.00  0.00     0.447 OA 
HETATM   47  C   UNL     1     -11.832  12.535  64.419  1.00  0.00    -0.386 C  
HETATM   48  O   UNL     1     -11.559  14.057  66.318  1.00  0.00    -0.341 OA 
HETATM   49  H   UNL     1     -12.779  11.473  63.049  1.00  0.00     0.000 HD 
HETATM   50  O   UNL     1     -12.825  11.588  63.991  1.00  0.00    -0.064 OA 
HETATM   51  C   UNL     1     -10.464  12.098  63.876  1.00  0.00    -0.409 C  
HETATM   52  H   UNL     1     -12.099  14.645  65.803  1.00  0.00     0.000 HD 
BRANCH  42  53
HETATM   53  C   UNL     1     -11.353  11.762  68.253  1.00  0.00    -0.282 C  
HETATM   54  O   UNL     1     -12.247  10.709  68.601  1.00  0.00    -0.814 OA 
HETATM   55  H   UNL     1     -12.437  10.691  69.532  1.00  0.00     0.000 HD 
ENDBRANCH  42  53
ENDBRANCH  39  41
ENDBRANCH  31  39
ENDBRANCH  27  28
ENDBRANCH  23  27
ENDBRANCH  13  14
ENDBRANCH   4  13
ENDBRANCH   1   4
BRANCH   1  56
HETATM   56  C   UNL     1      -8.036   7.553  70.307  1.00  0.00    -0.103 C  
HETATM   57  O   UNL     1      -7.659   7.400  71.678  1.00  0.00    -0.083 OA 
HETATM   58  H   UNL     1      -7.113   8.136  71.931  1.00  0.00     0.000 HD 
ENDBRANCH   1  56
TORSDOF 12
ENDMDL
MODEL      294
REMARK 921   NORMALIZED FREE ENERGY PREDICTED BY IDOCK:   14.06 KCAL/MOL
REMARK 922        TOTAL FREE ENERGY PREDICTED BY IDOCK:   20.74 KCAL/MOL
REMARK 923 INTER-LIGAND FREE ENERGY PREDICTED BY IDOCK:   19.76 KCAL/MOL
REMARK 924 INTRA-LIGAND FREE ENERGY PREDICTED BY IDOCK:    0.98 KCAL/MOL
REMARK 927      BINDING AFFINITY PREDICTED BY RF-SCORE:    0.00 PKD
ROOT
HETATM    1  C   UNL     1     -11.301  10.382  70.044  1.00  0.00    -0.313 C  
HETATM    2  H   UNL     1     -10.150  11.889  69.642  1.00  0.00     0.000 HD 
HETATM    3  O   UNL     1     -10.693  11.636  70.380  1.00  0.00     0.833 OA 
ENDROOT
BRANCH   1   4
HETATM    4  C   UNL     1     -10.260   9.296  69.639  1.00  0.00    -0.208 C  
BRANCH   4   5
HETATM    5  C   UNL     1      -9.228   9.001  70.773  1.00  0.00    -0.245 C  
HETATM    6  O   UNL     1      -8.092   9.875  70.691  1.00  0.00    -0.391 OA 
HETATM    7  H   UNL     1      -7.464   9.696  71.381  1.00  0.00     0.000 HD 
BRANCH   5   8
HETATM    8  C   UNL     1      -8.689   7.565  70.794  1.00  0.00    -0.140 C  
HETATM    9  C   UNL     1      -9.349   6.715  69.731  1.00  0.00    -0.145 C  
HETATM   10  O   UNL     1      -8.992   7.003  72.081  1.00  0.00    -0.131 OA 
HETATM   11  O   UNL     1      -8.895   6.601  68.594  1.00  0.00    -0.124 OA 
HETATM   12  H   UNL     1      -8.657   6.114  72.094  1.00  0.00     0.000 HD 
ENDBRANCH   5   8
ENDBRANCH   4   5
BRANCH   4  13
HETATM   13  O   UNL     1      -9.552   9.628  68.420  1.00  0.00    -0.143 OA 
BRANCH  13  14
HETATM   14  C   UNL     1     -10.324   9.491  67.216  1.00  0.00    -0.255 C  
HETATM   15  H   UNL     1      -7.475  10.390  64.566  1.00  0.00     0.000 HD 
HETATM   16  O   UNL     1      -8.386   8.587  65.945  1.00  0.00    -0.123 OA 
HETATM   17  C   UNL     1      -9.411   9.592  65.983  1.00  0.00    -0.225 C  
HETATM   18  O   UNL     1     -11.349  10.465  67.081  1.00  0.00    -0.274 OA 
HETATM   19  O   UNL     1      -8.089  11.108  64.667  1.00  0.00     0.259 OA 
HETATM   20  C   UNL     1     -10.876  11.816  67.097  1.00  0.00    -0.258 C  
HETATM   21  H   UNL     1      -7.822   8.650  65.183  1.00  0.00     0.000 HD 
HETATM   22  C   UNL     1      -8.747  10.962  65.942  1.00  0.00    -0.183 C  
HETATM   23  C   UNL     1      -9.740  12.124  66.104  1.00  0.00    -0.240 C  
BRANCH  20  24
HETATM   24  C   UNL     1     -12.102  12.734  66.884  1.00  0.00    -0.197 C  
HETATM   25  O   UNL     1     -12.826  12.465  65.682  1.00  0.00    -0.308 OA 
HETATM   26  H   UNL     1     -13.579  13.029  65.552  1.00  0.00     0.000 HD 
ENDBRANCH  20  24
BRANCH  23  27
HETATM   27  O   UNL     1      -9.070  13.310  66.615  1.00  0.00    -0.234 OA 
BRANCH  27  28
HETATM   28  C   UNL     1      -7.717  13.439  66.163  1.00  0.00     2.338 C  
HETATM   29  O   UNL     1      -7.489  14.735  65.630  1.00  0.00     3.634 OA 
HETATM   30  C   UNL     1      -7.702  15.766  66.598  1.00  0.00    -0.105 C  
HETATM   31  C   UNL     1      -6.649  15.639  67.728  1.00  0.00    -0.161 C  
HETATM   32  C   UNL     1      -7.662  17.079  65.820  1.00  0.00     0.344 C  
HETATM   33  C   UNL     1      -6.763  14.230  68.371  1.00  0.00    -0.104 C  
HETATM   34  H   UNL     1      -5.728  13.123  69.650  1.00  0.00     0.000 HD 
HETATM   35  C   UNL     1      -6.734  13.133  67.304  1.00  0.00     0.034 C  
HETATM   36  O   UNL     1      -5.658  13.985  69.257  1.00  0.00    -0.081 OA 
HETATM   37  O   UNL     1      -6.998  11.853  67.905  1.00  0.00    -0.074 OA 
HETATM   38  H   UNL     1      -6.391  11.663  68.611  1.00  0.00     0.000 HD 
BRANCH  31  39
HETATM   39  N   UNL     1      -6.806  16.759  68.688  1.00  0.00    -0.166 NA 
HETATM   40  H   UNL     1      -7.521  17.477  68.570  1.00  0.00     0.000 HD 
BRANCH  39  41
HETATM   41  C   UNL     1      -5.854  16.774  69.838  1.00  0.00    -0.220 C  
HETATM   42  C   UNL     1      -5.695  18.831  71.306  1.00  0.00     0.077 C  
HETATM   43  C   UNL     1      -5.466  18.185  70.162  1.00  0.00    -0.249 C  
HETATM   44  C   UNL     1      -6.310  18.135  72.490  1.00  0.00     3.566 C  
HETATM   45  H   UNL     1      -8.368  15.389  71.464  1.00  0.00     0.000 HD 
HETATM   46  O   UNL     1      -7.953  15.860  70.751  1.00  0.00     1.903 OA 
HETATM   47  C   UNL     1      -6.344  16.587  72.418  1.00  0.00     4.023 C  
HETATM   48  O   UNL     1      -7.623  18.660  72.668  1.00  0.00     6.348 OA 
HETATM   49  H   UNL     1      -5.164  15.093  72.944  1.00  0.00     0.000 HD 
HETATM   50  O   UNL     1      -5.143  16.042  72.988  1.00  0.00     0.689 OA 
HETATM   51  C   UNL     1      -6.538  15.999  71.013  1.00  0.00     1.595 C  
HETATM   52  H   UNL     1      -8.011  18.220  73.415  1.00  0.00     0.000 HD 
BRANCH  42  53
HETATM   53  C   UNL     1      -5.381  20.297  71.507  1.00  0.00    -0.344 C  
HETATM   54  O   UNL     1      -5.664  20.732  72.833  1.00  0.00     0.342 OA 
HETATM   55  H   UNL     1      -5.467  21.653  72.959  1.00  0.00     0.000 HD 
ENDBRANCH  42  53
ENDBRANCH  39  41
ENDBRANCH  31  39
ENDBRANCH  27  28
ENDBRANCH  23  27
ENDBRANCH  13  14
ENDBRANCH   4  13
ENDBRANCH   1   4
BRANCH   1  56
HETATM   56  C   UNL     1     -12.175   9.975  71.233  1.00  0.00    -0.402 C  
HETATM   57  O   UNL     1     -12.549  11.149  71.957  1.00  0.00    -0.181 OA 
HETATM   58  H   UNL     1     -13.092  10.896  72.695  1.00  0.00     0.000 HD 
ENDBRANCH   1  56
TORSDOF 12
ENDMDL
MODEL      295
REMARK 921   NORMALIZED FREE ENERGY PREDICTED BY IDOCK:   14.67 KCAL/MOL
REMARK 922        TOTAL FREE ENERGY PREDICTED BY IDOCK:   21.78 KCAL/MOL
REMARK 923 INTER-LIGAND FREE ENERGY PREDICTED BY IDOCK:    4.96 KCAL/MOL
REMARK 924 INTRA-LIGAND FREE ENERGY PREDICTED BY IDOCK:   16.82 KCAL/MOL
REMARK 927      BINDING AFFINITY PREDICTED BY RF-SCORE:    0.00 PKD
ROOT
HETATM    1  C   UNL     1     -10.199   7.943  70.105  1.00  0.00    -0.202 C  
HETATM    2  H   UNL     1      -8.349   8.512  69.999  1.00  0.00     0.000 HD 
HETATM    3  O   UNL     1      -8.791   7.676  70.099  1.00  0.00    -0.144 OA 
ENDROOT
BRANCH   1   4
HETATM    4  C   UNL     1     -10.667   8.745  68.854  1.00  0.00    -0.087 C  
BRANCH   4   5
HETATM    5  C   UNL     1     -10.459   7.956  67.523  1.00  0.00    -0.262 C  
HETATM    6  O   UNL     1     -11.247   6.756  67.494  1.00  0.00    -0.558 OA 
HETATM    7  H   UNL     1     -11.121   6.277  66.684  1.00  0.00     0.000 HD 
BRANCH   5   8
HETATM    8  C   UNL     1      -9.008   7.548  67.237  1.00  0.00    -0.124 C  
HETATM    9  C   UNL     1      -8.871   6.936  65.860  1.00  0.00    -0.105 C  
HETATM   10  O   UNL     1      -8.630   6.564  68.213  1.00  0.00    -0.116 OA 
HETATM   11  O   UNL     1      -8.616   7.602  64.859  1.00  0.00    -0.040 OA 
HETATM   12  H   UNL     1      -7.732   6.312  68.036  1.00  0.00     0.000 HD 
ENDBRANCH   5   8
ENDBRANCH   4   5
BRANCH   4  13
HETATM   13  O   UNL     1     -10.027  10.040  68.749  1.00  0.00    -0.159 OA 
BRANCH  13  14
HETATM   14  C   UNL     1      -9.917  10.762  69.987  1.00  0.00     0.468 C  
HETATM   15  H   UNL     1     -13.557  12.405  70.053  1.00  0.00     0.000 HD 
HETATM   16  O   UNL     1     -12.306  10.365  70.559  1.00  0.00    -0.298 OA 
HETATM   17  C   UNL     1     -11.280  11.355  70.382  1.00  0.00     0.293 C  
HETATM   18  O   UNL     1      -8.975  11.824  69.947  1.00  0.00     1.607 OA 
HETATM   19  O   UNL     1     -12.894  13.047  69.825  1.00  0.00     0.276 OA 
HETATM   20  C   UNL     1      -9.243  12.804  68.939  1.00  0.00     0.316 C  
HETATM   21  H   UNL     1     -13.148  10.732  70.802  1.00  0.00     0.000 HD 
HETATM   22  C   UNL     1     -11.741  12.344  69.320  1.00  0.00    -0.329 C  
HETATM   23  C   UNL     1     -10.669  13.383  68.951  1.00  0.00    -0.190 C  
BRANCH  20  24
HETATM   24  C   UNL     1      -8.166  13.905  69.071  1.00  0.00     0.159 C  
HETATM   25  O   UNL     1      -6.994  13.487  69.774  1.00  0.00    -0.332 OA 
HETATM   26  H   UNL     1      -6.332  14.164  69.855  1.00  0.00     0.000 HD 
ENDBRANCH  20  24
BRANCH  23  27
HETATM   27  O   UNL     1     -10.900  13.913  67.615  1.00  0.00    -0.250 OA 
BRANCH  27  28
HETATM   28  C   UNL     1      -9.823  14.724  67.131  1.00  0.00    -0.232 C  
HETATM   29  O   UNL     1      -9.154  14.077  66.059  1.00  0.00    -0.036 OA 
HETATM   30  C   UNL     1     -10.019  13.830  64.948  1.00  0.00    -0.145 C  
HETATM   31  C   UNL     1     -10.477  15.179  64.338  1.00  0.00     0.489 C  
HETATM   32  C   UNL     1      -9.231  12.927  64.002  1.00  0.00     1.697 C  
HETATM   33  C   UNL     1     -11.193  16.013  65.436  1.00  0.00    -0.047 C  
HETATM   34  H   UNL     1     -11.861  17.868  65.653  1.00  0.00     0.000 HD 
HETATM   35  C   UNL     1     -10.339  16.107  66.703  1.00  0.00    -0.296 C  
HETATM   36  O   UNL     1     -11.423  17.358  64.982  1.00  0.00    -0.078 OA 
HETATM   37  O   UNL     1     -11.085  16.746  67.754  1.00  0.00    -0.269 OA 
HETATM   38  H   UNL     1     -11.404  17.601  67.490  1.00  0.00     0.000 HD 
BRANCH  31  39
HETATM   39  N   UNL     1     -11.300  14.931  63.130  1.00  0.00     1.378 NA 
HETATM   40  H   UNL     1     -11.305  15.575  62.338  1.00  0.00     0.000 HD 
BRANCH  39  41
HETATM   41  C   UNL     1     -12.121  13.685  63.140  1.00  0.00     0.173 C  
HETATM   42  C   UNL     1     -11.064  11.494  63.842  1.00  0.00    -0.458 C  
HETATM   43  C   UNL     1     -11.236  12.488  62.969  1.00  0.00     0.167 C  
HETATM   44  C   UNL     1     -11.866  11.419  65.113  1.00  0.00     0.455 C  
HETATM   45  H   UNL     1     -12.917  14.671  66.186  1.00  0.00     0.000 HD 
HETATM   46  O   UNL     1     -12.408  14.665  65.384  1.00  0.00    -0.305 OA 
HETATM   47  C   UNL     1     -13.107  12.347  65.183  1.00  0.00     0.826 C  
HETATM   48  O   UNL     1     -10.982  11.677  66.200  1.00  0.00    -0.284 OA 
HETATM   49  H   UNL     1     -15.020  12.236  64.706  1.00  0.00     0.000 HD 
HETATM   50  O   UNL     1     -14.260  11.667  64.663  1.00  0.00     2.451 OA 
HETATM   51  C   UNL     1     -12.958  13.695  64.463  1.00  0.00     0.243 C  
HETATM   52  H   UNL     1     -11.488  11.630  67.002  1.00  0.00     0.000 HD 
BRANCH  42  53
HETATM   53  C   UNL     1     -10.055  10.384  63.646  1.00  0.00    -0.018 C  
HETATM   54  O   UNL     1      -9.161  10.267  64.747  1.00  0.00    -0.199 OA 
HETATM   55  H   UNL     1      -8.527   9.570  64.624  1.00  0.00     0.000 HD 
ENDBRANCH  42  53
ENDBRANCH  39  41
ENDBRANCH  31  39
ENDBRANCH  27  28
ENDBRANCH  23  27
ENDBRANCH  13  14
ENDBRANCH   4  13
ENDBRANCH   1   4
BRANCH   1  56
HETATM   56  C   UNL     1     -10.910   6.597  70.267  1.00  0.00    -0.271 C  
HETATM   57  O   UNL     1     -10.391   5.934  71.423  1.00  0.00    -0.204 OA 
HETATM   58  H   UNL     1     -10.833   5.099  71.523  1.00  0.00     0.000 HD 
ENDBRANCH   1  56
TORSDOF 12
ENDMDL
MODEL      296
REMARK 921   NORMALIZED FREE ENERGY PREDICTED BY IDOCK:   16.10 KCAL/MOL
REMARK 922        TOTAL FREE ENERGY PREDICTED BY IDOCK:   24.20 KCAL/MOL
REMARK 923 INTER-LIGAND FREE ENERGY PREDICTED BY IDOCK:   -3.56 KCAL/MOL
REMARK 924 INTRA-LIGAND FREE ENERGY PREDICTED BY IDOCK:   27.76 KCAL/MOL
REMARK 927      BINDING AFFINITY PREDICTED BY RF-SCORE:    0.00 PKD
ROOT
HETATM    1  C   UNL     1     -12.363  11.499  69.530  1.00  0.00    -0.124 C  
HETATM    2  H   UNL     1     -13.061  10.499  71.037  1.00  0.00     0.000 HD 
HETATM    3  O   UNL     1     -12.887  10.304  70.124  1.00  0.00    -0.186 OA 
ENDROOT
BRANCH   1   4
HETATM    4  C   UNL     1     -11.125  12.059  70.291  1.00  0.00     0.760 C  
BRANCH   4   5
HETATM    5  C   UNL     1     -11.346  13.515  70.810  1.00  0.00     0.866 C  
HETATM    6  O   UNL     1     -12.562  13.625  71.564  1.00  0.00    -0.342 OA 
HETATM    7  H   UNL     1     -12.697  14.511  71.880  1.00  0.00     0.000 HD 
BRANCH   5   8
HETATM    8  C   UNL     1     -11.398  14.587  69.714  1.00  0.00    -0.260 C  
HETATM    9  C   UNL     1     -11.223  15.973  70.293  1.00  0.00    -0.389 C  
HETATM   10  O   UNL     1     -12.689  14.512  69.090  1.00  0.00    -0.537 OA 
HETATM   11  O   UNL     1     -10.124  16.509  70.415  1.00  0.00     0.437 OA 
HETATM   12  H   UNL     1     -12.721  15.176  68.411  1.00  0.00     0.000 HD 
ENDBRANCH   5   8
ENDBRANCH   4   5
BRANCH   4  13
HETATM   13  O   UNL     1      -9.913  12.010  69.499  1.00  0.00     0.467 OA 
BRANCH  13  14
HETATM   14  C   UNL     1      -9.647  10.741  68.879  1.00  0.00    -0.195 C  
HETATM   15  H   UNL     1      -6.470   9.665  71.047  1.00  0.00     0.000 HD 
HETATM   16  O   UNL     1      -8.915   9.721  71.026  1.00  0.00    -0.344 OA 
HETATM   17  C   UNL     1      -8.560   9.984  69.659  1.00  0.00    -0.184 C  
HETATM   18  O   UNL     1      -9.220  10.845  67.528  1.00  0.00    -0.147 OA 
HETATM   19  O   UNL     1      -6.213   9.944  70.176  1.00  0.00    -0.055 OA 
HETATM   20  C   UNL     1      -8.038  11.630  67.347  1.00  0.00    -0.153 C  
HETATM   21  H   UNL     1      -8.243   9.253  71.509  1.00  0.00     0.000 HD 
HETATM   22  C   UNL     1      -7.261  10.779  69.642  1.00  0.00    -0.125 C  
HETATM   23  C   UNL     1      -6.844  11.231  68.233  1.00  0.00    -0.064 C  
BRANCH  20  24
HETATM   24  C   UNL     1      -7.687  11.591  65.842  1.00  0.00     0.354 C  
HETATM   25  O   UNL     1      -6.283  11.582  65.574  1.00  0.00    -0.295 OA 
HETATM   26  H   UNL     1      -6.068  11.558  64.649  1.00  0.00     0.000 HD 
ENDBRANCH  20  24
BRANCH  23  27
HETATM   27  O   UNL     1      -5.982  12.401  68.299  1.00  0.00    -0.053 OA 
BRANCH  27  28
HETATM   28  C   UNL     1      -6.488  13.434  69.153  1.00  0.00    -0.105 C  
HETATM   29  O   UNL     1      -5.851  14.672  68.872  1.00  0.00    -0.084 OA 
HETATM   30  C   UNL     1      -6.069  15.102  67.526  1.00  0.00    -0.019 C  
HETATM   31  C   UNL     1      -7.574  15.405  67.317  1.00  0.00    -0.212 C  
HETATM   32  C   UNL     1      -5.135  16.291  67.315  1.00  0.00    -0.072 C  
HETATM   33  C   UNL     1      -8.397  14.128  67.641  1.00  0.00    -0.182 C  
HETATM   34  H   UNL     1     -10.306  13.647  67.887  1.00  0.00     0.000 HD 
HETATM   35  C   UNL     1      -8.013  13.555  69.007  1.00  0.00     0.199 C  
HETATM   36  O   UNL     1      -9.803  14.428  67.689  1.00  0.00    -0.220 OA 
HETATM   37  O   UNL     1      -8.671  12.293  69.216  1.00  0.00    -0.069 OA 
HETATM   38  H   UNL     1      -9.613  12.367  69.126  1.00  0.00     0.000 HD 
BRANCH  31  39
HETATM   39  N   UNL     1      -7.795  15.940  65.951  1.00  0.00     0.393 NA 
HETATM   40  H   UNL     1      -7.872  15.328  65.138  1.00  0.00     0.000 HD 
BRANCH  39  41
HETATM   41  C   UNL     1      -7.898  17.424  65.837  1.00  0.00    -0.042 C  
HETATM   42  C   UNL     1      -9.096  18.739  67.638  1.00  0.00    -0.304 C  
HETATM   43  C   UNL     1      -9.097  17.913  66.592  1.00  0.00    -0.279 C  
HETATM   44  C   UNL     1      -7.827  19.380  68.130  1.00  0.00    -0.308 C  
HETATM   45  H   UNL     1      -4.964  17.377  67.344  1.00  0.00     0.000 HD 
HETATM   46  O   UNL     1      -5.792  17.016  67.051  1.00  0.00    -0.147 OA 
HETATM   47  C   UNL     1      -6.613  19.298  67.169  1.00  0.00    -0.192 C  
HETATM   48  O   UNL     1      -7.509  18.802  69.393  1.00  0.00    -0.137 OA 
HETATM   49  H   UNL     1      -5.858  20.386  65.704  1.00  0.00     0.000 HD 
HETATM   50  O   UNL     1      -6.602  20.437  66.293  1.00  0.00    -0.217 OA 
HETATM   51  C   UNL     1      -6.534  18.020  66.322  1.00  0.00    -0.228 C  
HETATM   52  H   UNL     1      -6.708  19.207  69.703  1.00  0.00     0.000 HD 
BRANCH  42  53
HETATM   53  C   UNL     1     -10.343  19.086  68.422  1.00  0.00    -0.308 C  
HETATM   54  O   UNL     1     -10.160  18.928  69.825  1.00  0.00    -0.182 OA 
HETATM   55  H   UNL     1     -10.943  19.145  70.317  1.00  0.00     0.000 HD 
ENDBRANCH  42  53
ENDBRANCH  39  41
ENDBRANCH  31  39
ENDBRANCH  27  28
ENDBRANCH  23  27
ENDBRANCH  13  14
ENDBRANCH   4  13
ENDBRANCH   1   4
BRANCH   1  56
HETATM   56  C   UNL     1     -12.083  11.183  68.059  1.00  0.00     0.204 C  
HETATM   57  O   UNL     1     -12.211  12.385  67.294  1.00  0.00    -0.478 OA 
HETATM   58  H   UNL     1     -12.037  12.189  66.381  1.00  0.00     0.000 HD 
ENDBRANCH   1  56
TORSDOF 12
ENDMDL
MODEL      297
REMARK 921   NORMALIZED FREE ENERGY PREDICTED BY IDOCK:   16.33 KCAL/MOL
REMARK 922        TOTAL FREE ENERGY PREDICTED BY IDOCK:   24.59 KCAL/MOL
REMARK 923 INTER-LIGAND FREE ENERGY PREDICTED BY IDOCK:   -2.37 KCAL/MOL
REMARK 924 INTRA-LIGAND FREE ENERGY PREDICTED BY IDOCK:   26.96 KCAL/MOL
REMARK 927      BINDING AFFINITY PREDICTED BY RF-SCORE:    0.00 PKD
ROOT
HETATM    1  C   UNL     1      -8.024  11.865  67.993  1.00  0.00    -0.147 C  
HETATM    2  H   UNL     1      -8.366  12.188  69.874  1.00  0.00     0.000 HD 
HETATM    3  O   UNL     1      -7.598  12.222  69.315  1.00  0.00     0.122 OA 
ENDROOT
BRANCH   1   4
HETATM    4  C   UNL     1      -9.204  12.744  67.481  1.00  0.00    -0.191 C  
BRANCH   4   5
HETATM    5  C   UNL     1      -8.964  13.289  66.038  1.00  0.00     0.369 C  
HETATM    6  O   UNL     1      -9.154  14.710  65.974  1.00  0.00    -0.498 OA 
HETATM    7  H   UNL     1      -9.008  15.042  65.095  1.00  0.00     0.000 HD 
BRANCH   5   8
HETATM    8  C   UNL     1      -9.860  12.667  64.959  1.00  0.00    -0.069 C  
HETATM    9  C   UNL     1      -9.642  11.174  64.857  1.00  0.00    -0.239 C  
HETATM   10  O   UNL     1      -9.510  13.267  63.701  1.00  0.00     0.094 OA 
HETATM   11  O   UNL     1     -10.293  10.361  65.509  1.00  0.00    -0.264 OA 
HETATM   12  H   UNL     1     -10.066  12.882  63.033  1.00  0.00     0.000 HD 
ENDBRANCH   5   8
ENDBRANCH   4   5
BRANCH   4  13
HETATM   13  O   UNL     1      -9.503  13.849  68.367  1.00  0.00    -0.213 OA 
BRANCH  13  14
HETATM   14  C   UNL     1     -10.832  14.382  68.243  1.00  0.00    -0.242 C  
HETATM   15  H   UNL     1     -12.563  12.392  71.241  1.00  0.00     0.000 HD 
HETATM   16  O   UNL     1     -11.196  14.347  70.704  1.00  0.00    -0.499 OA 
HETATM   17  C   UNL     1     -11.702  13.927  69.426  1.00  0.00    -0.315 C  
HETATM   18  O   UNL     1     -11.491  13.997  67.045  1.00  0.00    -0.318 OA 
HETATM   19  O   UNL     1     -12.819  12.034  70.399  1.00  0.00     0.022 OA 
HETATM   20  C   UNL     1     -11.614  12.581  66.875  1.00  0.00    -0.370 C  
HETATM   21  H   UNL     1     -11.734  14.065  71.435  1.00  0.00     0.000 HD 
HETATM   22  C   UNL     1     -11.821  12.409  69.428  1.00  0.00    -0.304 C  
HETATM   23  C   UNL     1     -12.234  11.830  68.066  1.00  0.00     0.346 C  
BRANCH  20  24
HETATM   24  C   UNL     1     -12.396  12.343  65.563  1.00  0.00    -0.176 C  
HETATM   25  O   UNL     1     -11.581  11.912  64.471  1.00  0.00    -0.322 OA 
HETATM   26  H   UNL     1     -12.062  11.766  63.665  1.00  0.00     0.000 HD 
ENDBRANCH  20  24
BRANCH  23  27
HETATM   27  O   UNL     1     -11.801  10.446  67.939  1.00  0.00    -0.293 OA 
BRANCH  27  28
HETATM   28  C   UNL     1     -10.379  10.301  67.843  1.00  0.00    -0.196 C  
HETATM   29  O   UNL     1      -9.767  10.527  69.104  1.00  0.00    -0.203 OA 
HETATM   30  C   UNL     1     -10.213   9.602  70.099  1.00  0.00    -0.264 C  
HETATM   31  C   UNL     1      -9.754   8.172  69.716  1.00  0.00    -0.173 C  
HETATM   32  C   UNL     1      -9.666  10.123  71.425  1.00  0.00     2.118 C  
HETATM   33  C   UNL     1     -10.325   7.814  68.317  1.00  0.00    -0.198 C  
HETATM   34  H   UNL     1     -10.085   6.381  66.967  1.00  0.00     0.000 HD 
HETATM   35  C   UNL     1     -10.014   8.912  67.297  1.00  0.00    -0.216 C  
HETATM   36  O   UNL     1      -9.735   6.599  67.823  1.00  0.00    -0.122 OA 
HETATM   37  O   UNL     1     -10.684   8.635  66.054  1.00  0.00     0.213 OA 
HETATM   38  H   UNL     1     -10.458   7.777  65.716  1.00  0.00     0.000 HD 
BRANCH  31  39
HETATM   39  N   UNL     1     -10.132   7.219  70.788  1.00  0.00    -0.190 NA 
HETATM   40  H   UNL     1     -10.986   7.333  71.336  1.00  0.00     0.000 HD 
BRANCH  39  41
HETATM   41  C   UNL     1      -9.191   6.083  71.018  1.00  0.00    -0.157 C  
HETATM   42  C   UNL     1      -9.494   3.924  69.731  1.00  0.00    -0.264 C  
HETATM   43  C   UNL     1      -9.862   4.787  70.680  1.00  0.00    -0.292 C  
HETATM   44  C   UNL     1      -8.238   4.130  68.930  1.00  0.00    -0.071 C  
HETATM   45  H   UNL     1      -7.377   7.600  68.718  1.00  0.00     0.000 HD 
HETATM   46  O   UNL     1      -8.164   7.417  69.219  1.00  0.00    -0.127 OA 
HETATM   47  C   UNL     1      -7.247   5.184  69.486  1.00  0.00    -0.057 C  
HETATM   48  O   UNL     1      -8.622   4.453  67.596  1.00  0.00    -0.102 OA 
HETATM   49  H   UNL     1      -5.713   5.207  70.730  1.00  0.00     0.000 HD 
HETATM   50  O   UNL     1      -6.320   4.560  70.389  1.00  0.00    -0.024 OA 
HETATM   51  C   UNL     1      -7.896   6.383  70.193  1.00  0.00    -0.107 C  
HETATM   52  H   UNL     1      -7.828   4.583  67.090  1.00  0.00     0.000 HD 
BRANCH  42  53
HETATM   53  C   UNL     1     -10.300   2.696  69.370  1.00  0.00     1.862 C  
HETATM   54  O   UNL     1      -9.522   1.723  68.680  1.00  0.00    -0.168 OA 
HETATM   55  H   UNL     1     -10.028   0.952  68.453  1.00  0.00     0.000 HD 
ENDBRANCH  42  53
ENDBRANCH  39  41
ENDBRANCH  31  39
ENDBRANCH  27  28
ENDBRANCH  23  27
ENDBRANCH  13  14
ENDBRANCH   4  13
ENDBRANCH   1   4
BRANCH   1  56
HETATM   56  C   UNL     1      -6.787  11.921  67.093  1.00  0.00    -0.144 C  
HETATM   57  O   UNL     1      -7.193  11.722  65.736  1.00  0.00     0.019 OA 
HETATM   58  H   UNL     1      -6.425  11.757  65.177  1.00  0.00     0.000 HD 
ENDBRANCH   1  56
TORSDOF 12
ENDMDL
MODEL      298
REMARK 921   NORMALIZED FREE ENERGY PREDICTED BY IDOCK:   16.56 KCAL/MOL
REMARK 922        TOTAL FREE ENERGY PREDICTED BY IDOCK:   24.99 KCAL/MOL
REMARK 923 INTER-LIGAND FREE ENERGY PREDICTED BY IDOCK:   14.04 KCAL/MOL
REMARK 924 INTRA-LIGAND FREE ENERGY PREDICTED BY IDOCK:   10.95 KCAL/MOL
REMARK 927      BINDING AFFINITY PREDICTED BY RF-SCORE:    0.00 PKD
ROOT
HETATM    1  C   UNL     1      -9.002  15.778  69.728  1.00  0.00     0.051 C  
HETATM    2  H   UNL     1      -9.069  16.255  67.850  1.00  0.00     0.000 HD 
HETATM    3  O   UNL     1      -9.519  16.548  68.635  1.00  0.00    -0.225 OA 
ENDROOT
BRANCH   1   4
HETATM    4  C   UNL     1      -7.449  15.854  69.838  1.00  0.00     0.241 C  
BRANCH   4   5
HETATM    5  C   UNL     1      -6.823  14.541  70.405  1.00  0.00     0.134 C  
HETATM    6  O   UNL     1      -6.027  14.800  71.572  1.00  0.00     0.039 OA 
HETATM    7  H   UNL     1      -5.646  14.001  71.918  1.00  0.00     0.000 HD 
BRANCH   5   8
HETATM    8  C   UNL     1      -5.935  13.773  69.418  1.00  0.00    -0.101 C  
HETATM    9  C   UNL     1      -5.988  14.390  68.038  1.00  0.00    -0.148 C  
HETATM   10  O   UNL     1      -6.434  12.429  69.336  1.00  0.00    -0.108 OA 
HETATM   11  O   UNL     1      -5.206  15.265  67.670  1.00  0.00    -0.266 OA 
HETATM   12  H   UNL     1      -5.884  11.953  68.725  1.00  0.00     0.000 HD 
ENDBRANCH   5   8
ENDBRANCH   4   5
BRANCH   4  13
HETATM   13  O   UNL     1      -6.999  16.981  70.628  1.00  0.00     1.597 OA 
BRANCH  13  14
HETATM   14  C   UNL     1      -5.930  17.742  70.042  1.00  0.00    -0.184 C  
HETATM   15  H   UNL     1      -7.591  21.368  70.234  1.00  0.00     0.000 HD 
HETATM   16  O   UNL     1      -6.359  19.694  71.523  1.00  0.00     0.073 OA 
HETATM   17  C   UNL     1      -6.216  19.247  70.165  1.00  0.00    -0.165 C  
HETATM   18  O   UNL     1      -5.708  17.451  68.670  1.00  0.00    -0.152 OA 
HETATM   19  O   UNL     1      -7.601  21.032  69.345  1.00  0.00     1.478 OA 
HETATM   20  C   UNL     1      -6.850  17.666  67.835  1.00  0.00    -0.190 C  
HETATM   21  H   UNL     1      -6.537  20.625  71.599  1.00  0.00     0.000 HD 
HETATM   22  C   UNL     1      -7.489  19.596  69.405  1.00  0.00    -0.145 C  
HETATM   23  C   UNL     1      -7.505  19.053  67.967  1.00  0.00    -0.260 C  
BRANCH  20  24
HETATM   24  C   UNL     1      -6.421  17.359  66.382  1.00  0.00    -0.248 C  
HETATM   25  O   UNL     1      -5.277  18.097  65.947  1.00  0.00    -0.153 OA 
HETATM   26  H   UNL     1      -5.013  17.907  65.054  1.00  0.00     0.000 HD 
ENDBRANCH  20  24
BRANCH  23  27
HETATM   27  O   UNL     1      -8.871  18.900  67.488  1.00  0.00    -0.275 OA 
BRANCH  27  28
HETATM   28  C   UNL     1      -8.952  18.590  66.091  1.00  0.00    -0.108 C  
HETATM   29  O   UNL     1      -8.361  17.327  65.824  1.00  0.00    -0.535 OA 
HETATM   30  C   UNL     1      -9.011  16.263  66.524  1.00  0.00    -0.278 C  
HETATM   31  C   UNL     1     -10.462  16.111  66.000  1.00  0.00    -0.338 C  
HETATM   32  C   UNL     1      -8.123  15.037  66.333  1.00  0.00     0.437 C  
HETATM   33  C   UNL     1     -11.214  17.456  66.194  1.00  0.00     0.756 C  
HETATM   34  H   UNL     1     -12.939  18.256  65.631  1.00  0.00     0.000 HD 
HETATM   35  C   UNL     1     -10.413  18.624  65.615  1.00  0.00    -0.111 C  
HETATM   36  O   UNL     1     -12.480  17.433  65.512  1.00  0.00     4.257 OA 
HETATM   37  O   UNL     1     -11.051  19.871  65.944  1.00  0.00    -0.220 OA 
HETATM   38  H   UNL     1     -11.954  19.893  65.649  1.00  0.00     0.000 HD 
BRANCH  31  39
HETATM   39  N   UNL     1     -11.114  14.951  66.656  1.00  0.00    -0.327 NA 
HETATM   40  H   UNL     1     -11.430  14.986  67.626  1.00  0.00     0.000 HD 
BRANCH  39  41
HETATM   41  C   UNL     1     -11.280  13.730  65.814  1.00  0.00    -0.297 C  
HETATM   42  C   UNL     1      -9.343  12.904  64.409  1.00  0.00     0.870 C  
HETATM   43  C   UNL     1     -10.325  13.771  64.660  1.00  0.00    -0.393 C  
HETATM   44  C   UNL     1      -9.152  11.671  65.250  1.00  0.00     0.051 C  
HETATM   45  H   UNL     1     -10.398  12.151  68.573  1.00  0.00     0.000 HD 
HETATM   46  O   UNL     1     -10.499  12.903  68.000  1.00  0.00    -0.218 OA 
HETATM   47  C   UNL     1     -10.334  11.301  66.183  1.00  0.00    -0.251 C  
HETATM   48  O   UNL     1      -7.952  11.838  65.999  1.00  0.00    -0.367 OA 
HETATM   49  H   UNL     1     -11.975  10.208  66.067  1.00  0.00     0.000 HD 
HETATM   50  O   UNL     1     -11.251  10.435  65.494  1.00  0.00     0.413 OA 
HETATM   51  C   UNL     1     -11.113  12.492  66.757  1.00  0.00    -0.279 C  
HETATM   52  H   UNL     1      -7.831  11.060  66.530  1.00  0.00     0.000 HD 
BRANCH  42  53
HETATM   53  C   UNL     1      -8.342  13.087  63.289  1.00  0.00     7.259 C  
HETATM   54  O   UNL     1      -7.712  11.863  62.924  1.00  0.00     0.435 OA 
HETATM   55  H   UNL     1      -7.082  11.978  62.221  1.00  0.00     0.000 HD 
ENDBRANCH  42  53
ENDBRANCH  39  41
ENDBRANCH  31  39
ENDBRANCH  27  28
ENDBRANCH  23  27
ENDBRANCH  13  14
ENDBRANCH   4  13
ENDBRANCH   1   4
BRANCH   1  56
HETATM   56  C   UNL     1      -9.725  16.250  70.991  1.00  0.00     2.750 C  
HETATM   57  O   UNL     1     -10.686  15.262  71.372  1.00  0.00    -0.461 OA 
HETATM   58  H   UNL     1     -11.135  15.554  72.156  1.00  0.00     0.000 HD 
ENDBRANCH   1  56
TORSDOF 12
ENDMDL
MODEL      299
REMARK 921   NORMALIZED FREE ENERGY PREDICTED BY IDOCK:   16.97 KCAL/MOL
REMARK 922        TOTAL FREE ENERGY PREDICTED BY IDOCK:   25.68 KCAL/MOL
REMARK 923 INTER-LIGAND FREE ENERGY PREDICTED BY IDOCK:    4.61 KCAL/MOL
REMARK 924 INTRA-LIGAND FREE ENERGY PREDICTED BY IDOCK:   21.07 KCAL/MOL
REMARK 927      BINDING AFFINITY PREDICTED BY RF-SCORE:    0.00 PKD
ROOT
HETATM    1  C   UNL     1     -12.520  13.355  66.749  1.00  0.00    -0.104 C  
HETATM    2  H   UNL     1     -11.010  12.297  66.151  1.00  0.00     0.000 HD 
HETATM    3  O   UNL     1     -11.861  12.518  65.790  1.00  0.00    -0.408 OA 
ENDROOT
BRANCH   1   4
HETATM    4  C   UNL     1     -11.673  14.600  67.148  1.00  0.00    -0.373 C  
BRANCH   4   5
HETATM    5  C   UNL     1     -10.289  14.640  66.426  1.00  0.00    -0.289 C  
HETATM    6  O   UNL     1      -9.427  15.636  66.997  1.00  0.00    -0.216 OA 
HETATM    7  H   UNL     1      -8.585  15.661  66.558  1.00  0.00     0.000 HD 
BRANCH   5   8
HETATM    8  C   UNL     1     -10.358  14.917  64.918  1.00  0.00    -0.313 C  
HETATM    9  C   UNL     1     -11.524  15.819  64.578  1.00  0.00    -0.289 C  
HETATM   10  O   UNL     1     -10.544  13.659  64.251  1.00  0.00    -0.545 OA 
HETATM   11  O   UNL     1     -11.429  17.044  64.544  1.00  0.00    -0.925 OA 
HETATM   12  H   UNL     1     -10.587  13.830  63.318  1.00  0.00     0.000 HD 
ENDBRANCH   5   8
ENDBRANCH   4   5
BRANCH   4  13
HETATM   13  O   UNL     1     -11.471  14.704  68.578  1.00  0.00    -0.273 OA 
BRANCH  13  14
HETATM   14  C   UNL     1     -11.144  13.467  69.234  1.00  0.00    -0.179 C  
HETATM   15  H   UNL     1      -7.472  14.405  70.493  1.00  0.00     0.000 HD 
HETATM   16  O   UNL     1      -9.850  14.626  71.015  1.00  0.00     0.799 OA 
HETATM   17  C   UNL     1      -9.820  13.606  70.005  1.00  0.00     2.000 C  
HETATM   18  O   UNL     1     -11.017  12.366  68.346  1.00  0.00    -0.217 OA 
HETATM   19  O   UNL     1      -7.439  13.813  69.750  1.00  0.00     0.326 OA 
HETATM   20  C   UNL     1     -10.029  12.548  67.328  1.00  0.00    -0.211 C  
HETATM   21  H   UNL     1      -9.032  14.712  71.491  1.00  0.00     0.000 HD 
HETATM   22  C   UNL     1      -8.688  13.918  69.036  1.00  0.00     0.222 C  
HETATM   23  C   UNL     1      -8.635  12.962  67.834  1.00  0.00    -0.185 C  
BRANCH  20  24
HETATM   24  C   UNL     1      -9.984  11.246  66.494  1.00  0.00    -0.212 C  
HETATM   25  O   UNL     1     -10.594  11.361  65.207  1.00  0.00    -0.273 OA 
HETATM   26  H   UNL     1     -10.566  10.561  64.695  1.00  0.00     0.000 HD 
ENDBRANCH  20  24
BRANCH  23  27
HETATM   27  O   UNL     1      -7.966  13.587  66.703  1.00  0.00     0.242 OA 
BRANCH  27  28
HETATM   28  C   UNL     1      -6.706  12.985  66.384  1.00  0.00     2.361 C  
HETATM   29  O   UNL     1      -5.882  12.906  67.537  1.00  0.00    -0.161 OA 
HETATM   30  C   UNL     1      -6.471  12.113  68.571  1.00  0.00    -0.059 C  
HETATM   31  C   UNL     1      -6.582  10.642  68.095  1.00  0.00    -0.063 C  
HETATM   32  C   UNL     1      -5.598  12.328  69.806  1.00  0.00    -0.101 C  
HETATM   33  C   UNL     1      -7.432  10.595  66.795  1.00  0.00    -0.120 C  
HETATM   34  H   UNL     1      -7.884   9.263  65.397  1.00  0.00     0.000 HD 
HETATM   35  C   UNL     1      -6.914  11.596  65.760  1.00  0.00     0.902 C  
HETATM   36  O   UNL     1      -7.365   9.291  66.192  1.00  0.00    -0.093 OA 
HETATM   37  O   UNL     1      -7.806  11.646  64.632  1.00  0.00     0.635 OA 
HETATM   38  H   UNL     1      -7.935  10.788  64.247  1.00  0.00     0.000 HD 
BRANCH  31  39
HETATM   39  N   UNL     1      -7.106   9.796  69.194  1.00  0.00    -0.065 NA 
HETATM   40  H   UNL     1      -6.521   9.114  69.678  1.00  0.00     0.000 HD 
BRANCH  39  41
HETATM   41  C   UNL     1      -8.541  10.000  69.552  1.00  0.00    -0.186 C  
HETATM   42  C   UNL     1     -10.231   8.185  69.040  1.00  0.00    -0.228 C  
HETATM   43  C   UNL     1      -9.413   9.168  68.660  1.00  0.00    -0.145 C  
HETATM   44  C   UNL     1     -10.448   7.862  70.493  1.00  0.00    -0.214 C  
HETATM   45  H   UNL     1      -7.608   8.783  72.472  1.00  0.00     0.000 HD 
HETATM   46  O   UNL     1      -7.521   8.970  71.545  1.00  0.00    -0.261 OA 
HETATM   47  C   UNL     1      -9.949   8.928  71.502  1.00  0.00    -0.320 C  
HETATM   48  O   UNL     1      -9.841   6.599  70.753  1.00  0.00    -0.182 OA 
HETATM   49  H   UNL     1     -10.687  10.530  72.391  1.00  0.00     0.000 HD 
HETATM   50  O   UNL     1     -10.994   9.877  71.773  1.00  0.00    -0.002 OA 
HETATM   51  C   UNL     1      -8.685   9.690  71.079  1.00  0.00     0.408 C  
HETATM   52  H   UNL     1      -9.978   6.396  71.671  1.00  0.00     0.000 HD 
BRANCH  42  53
HETATM   53  C   UNL     1     -10.984   7.310  68.062  1.00  0.00    -0.013 C  
HETATM   54  O   UNL     1     -10.513   5.967  68.066  1.00  0.00    -0.190 OA 
HETATM   55  H   UNL     1     -10.986   5.418  67.451  1.00  0.00     0.000 HD 
ENDBRANCH  42  53
ENDBRANCH  39  41
ENDBRANCH  31  39
ENDBRANCH  27  28
ENDBRANCH  23  27
ENDBRANCH  13  14
ENDBRANCH   4  13
ENDBRANCH   1   4
BRANCH   1  56
HETATM   56  C   UNL     1     -13.890  13.712  66.167  1.00  0.00     4.036 C  
HETATM   57  O   UNL     1     -13.744  14.833  65.292  1.00  0.00     0.093 OA 
HETATM   58  H   UNL     1     -14.594  15.055  64.930  1.00  0.00     0.000 HD 
ENDBRANCH   1  56
TORSDOF 12
ENDMDL
MODEL      300
REMARK 921   NORMALIZED FREE ENERGY PREDICTED BY IDOCK:   17.03 KCAL/MOL
REMARK 922        TOTAL FREE ENERGY PREDICTED BY IDOCK:   25.79 KCAL/MOL
REMARK 923 INTER-LIGAND FREE ENERGY PREDICTED BY IDOCK:    2.30 KCAL/MOL
REMARK 924 INTRA-LIGAND FREE ENERGY PREDICTED BY IDOCK:   23.49 KCAL/MOL
REMARK 927      BINDING AFFINITY PREDICTED BY RF-SCORE:    0.00 PKD
ROOT
HETATM    1  C   UNL     1     -11.069  10.603  70.502  1.00  0.00    -0.094 C  
HETATM    2  H   UNL     1     -12.812   9.950  69.958  1.00  0.00     0.000 HD 
HETATM    3  O   UNL     1     -12.449  10.803  70.168  1.00  0.00    -0.323 OA 
ENDROOT
BRANCH   1   4
HETATM    4  C   UNL     1     -10.282   9.851  69.387  1.00  0.00    -0.216 C  
BRANCH   4   5
HETATM    5  C   UNL     1      -8.850  10.433  69.167  1.00  0.00    -0.172 C  
HETATM    6  O   UNL     1      -8.202   9.824  68.039  1.00  0.00    -0.108 OA 
HETATM    7  H   UNL     1      -7.331  10.178  67.905  1.00  0.00     0.000 HD 
BRANCH   5   8
HETATM    8  C   UNL     1      -7.903  10.281  70.365  1.00  0.00     0.411 C  
HETATM    9  C   UNL     1      -6.455  10.298  69.926  1.00  0.00    -0.096 C  
HETATM   10  O   UNL     1      -8.178   9.013  70.981  1.00  0.00    -0.164 OA 
HETATM   11  O   UNL     1      -5.794  11.332  69.855  1.00  0.00    -0.076 OA 
HETATM   12  H   UNL     1      -7.592   8.919  71.723  1.00  0.00     0.000 HD 
ENDBRANCH   5   8
ENDBRANCH   4   5
BRANCH   4  13
HETATM   13  O   UNL     1     -10.989   9.825  68.124  1.00  0.00    -0.239 OA 
BRANCH  13  14
HETATM   14  C   UNL     1     -11.013   8.545  67.470  1.00  0.00     0.165 C  
HETATM   15  H   UNL     1      -7.805   6.920  69.207  1.00  0.00     0.000 HD 
HETATM   16  O   UNL     1     -10.190   7.369  69.502  1.00  0.00    -0.193 OA 
HETATM   17  C   UNL     1      -9.974   7.604  68.102  1.00  0.00    -0.175 C  
HETATM   18  O   UNL     1     -10.750   8.611  66.076  1.00  0.00     0.637 OA 
HETATM   19  O   UNL     1      -7.618   7.175  68.310  1.00  0.00    -0.109 OA 
HETATM   20  C   UNL     1      -9.489   9.200  65.746  1.00  0.00    -0.254 C  
HETATM   21  H   UNL     1      -9.548   6.788  69.892  1.00  0.00     0.000 HD 
HETATM   22  C   UNL     1      -8.576   8.180  67.919  1.00  0.00    -0.132 C  
HETATM   23  C   UNL     1      -8.273   8.592  66.469  1.00  0.00    -0.107 C  
BRANCH  20  24
HETATM   24  C   UNL     1      -9.342   9.141  64.208  1.00  0.00     0.372 C  
HETATM   25  O   UNL     1      -8.085   8.627  63.765  1.00  0.00    -0.153 OA 
HETATM   26  H   UNL     1      -7.996   8.591  62.819  1.00  0.00     0.000 HD 
ENDBRANCH  20  24
BRANCH  23  27
HETATM   27  O   UNL     1      -7.231   9.607  66.427  1.00  0.00    -0.091 OA 
BRANCH  27  28
HETATM   28  C   UNL     1      -7.478  10.637  65.463  1.00  0.00    -0.063 C  
HETATM   29  O   UNL     1      -8.822  11.089  65.547  1.00  0.00    -0.195 OA 
HETATM   30  C   UNL     1      -9.131  11.638  66.830  1.00  0.00    -0.188 C  
HETATM   31  C   UNL     1      -8.295  12.922  67.058  1.00  0.00    -0.107 C  
HETATM   32  C   UNL     1     -10.644  11.841  66.839  1.00  0.00    -0.270 C  
HETATM   33  C   UNL     1      -6.786  12.570  66.945  1.00  0.00     0.212 C  
HETATM   34  H   UNL     1      -5.064  13.550  66.846  1.00  0.00     0.000 HD 
HETATM   35  C   UNL     1      -6.494  11.802  65.654  1.00  0.00     1.560 C  
HETATM   36  O   UNL     1      -5.987  13.765  66.915  1.00  0.00     0.281 OA 
HETATM   37  O   UNL     1      -5.127  11.352  65.646  1.00  0.00    -0.387 OA 
HETATM   38  H   UNL     1      -4.519  12.072  65.763  1.00  0.00     0.000 HD 
BRANCH  31  39
HETATM   39  N   UNL     1      -8.677  13.549  68.347  1.00  0.00    -0.247 NA 
HETATM   40  H   UNL     1      -8.816  12.998  69.195  1.00  0.00     0.000 HD 
BRANCH  39  41
HETATM   41  C   UNL     1      -8.846  15.031  68.331  1.00  0.00    -0.178 C  
HETATM   42  C   UNL     1      -6.802  16.525  68.341  1.00  0.00    -0.145 C  
HETATM   43  C   UNL     1      -7.647  15.689  68.945  1.00  0.00    -0.173 C  
HETATM   44  C   UNL     1      -7.039  16.999  66.933  1.00  0.00    -0.216 C  
HETATM   45  H   UNL     1      -8.948  14.617  65.060  1.00  0.00     0.000 HD 
HETATM   46  O   UNL     1      -8.774  14.365  65.959  1.00  0.00     0.227 OA 
HETATM   47  C   UNL     1      -8.457  16.738  66.364  1.00  0.00    -0.303 C  
HETATM   48  O   UNL     1      -6.045  16.404  66.102  1.00  0.00     0.165 OA 
HETATM   49  H   UNL     1     -10.186  17.690  66.310  1.00  0.00     0.000 HD 
HETATM   50  O   UNL     1      -9.317  17.850  66.659  1.00  0.00    -0.270 OA 
HETATM   51  C   UNL     1      -9.131  15.447  66.849  1.00  0.00    -0.242 C  
HETATM   52  H   UNL     1      -6.195  16.703  65.213  1.00  0.00     0.000 HD 
BRANCH  42  53
HETATM   53  C   UNL     1      -5.543  17.049  68.998  1.00  0.00    -0.150 C  
HETATM   54  O   UNL     1      -5.764  17.447  70.347  1.00  0.00    -0.232 OA 
HETATM   55  H   UNL     1      -4.974  17.776  70.760  1.00  0.00     0.000 HD 
ENDBRANCH  42  53
ENDBRANCH  39  41
ENDBRANCH  31  39
ENDBRANCH  27  28
ENDBRANCH  23  27
ENDBRANCH  13  14
ENDBRANCH   4  13
ENDBRANCH   1   4
BRANCH   1  56
HETATM   56  C   UNL     1     -10.485  11.977  70.839  1.00  0.00     4.735 C  
HETATM   57  O   UNL     1     -10.840  12.898  69.805  1.00  0.00    -0.397 OA 
HETATM   58  H   UNL     1     -10.478  13.751  70.014  1.00  0.00     0.000 HD 
ENDBRANCH   1  56
TORSDOF 12
ENDMDL
MODEL      301
REMARK 921   NORMALIZED FREE ENERGY PREDICTED BY IDOCK:   17.24 KCAL/MOL
REMARK 922        TOTAL FREE ENERGY PREDICTED BY IDOCK:   26.14 KCAL/MOL
REMARK 923 INTER-LIGAND FREE ENERGY PREDICTED BY IDOCK:    0.96 KCAL/MOL
REMARK 924 INTRA-LIGAND FREE ENERGY PREDICTED BY IDOCK:   25.19 KCAL/MOL
REMARK 927      BINDING AFFINITY PREDICTED BY RF-SCORE:    0.00 PKD
ROOT
HETATM    1  C   UNL     1     -12.375  14.903  68.492  1.00  0.00     0.094 C  
HETATM    2  H   UNL     1     -13.453  13.305  68.290  1.00  0.00     0.000 HD 
HETATM    3  O   UNL     1     -13.525  14.206  67.995  1.00  0.00     3.070 OA 
ENDROOT
BRANCH   1   4
HETATM    4  C   UNL     1     -11.034  14.222  68.086  1.00  0.00    -0.246 C  
BRANCH   4   5
HETATM    5  C   UNL     1     -10.880  14.072  66.540  1.00  0.00    -0.300 C  
HETATM    6  O   UNL     1     -10.217  15.208  65.965  1.00  0.00    -0.272 OA 
HETATM    7  H   UNL     1     -10.123  15.117  65.024  1.00  0.00     0.000 HD 
BRANCH   5   8
HETATM    8  C   UNL     1     -12.198  13.886  65.777  1.00  0.00    -0.460 C  
HETATM    9  C   UNL     1     -12.562  15.131  64.999  1.00  0.00     0.258 C  
HETATM   10  O   UNL     1     -13.230  13.633  66.744  1.00  0.00     0.234 OA 
HETATM   11  O   UNL     1     -12.207  15.316  63.837  1.00  0.00    -0.604 OA 
HETATM   12  H   UNL     1     -14.046  13.517  66.271  1.00  0.00     0.000 HD 
ENDBRANCH   5   8
ENDBRANCH   4   5
BRANCH   4  13
HETATM   13  O   UNL     1     -10.851  12.930  68.715  1.00  0.00    -0.249 OA 
BRANCH  13  14
HETATM   14  C   UNL     1     -11.905  11.984  68.469  1.00  0.00    -0.311 C  
HETATM   15  H   UNL     1     -10.147   8.722  69.957  1.00  0.00     0.000 HD 
HETATM   16  O   UNL     1     -11.413  10.726  70.558  1.00  0.00    -0.313 OA 
HETATM   17  C   UNL     1     -11.578  10.636  69.134  1.00  0.00    -0.271 C  
HETATM   18  O   UNL     1     -12.145  11.742  67.090  1.00  0.00    -0.592 OA 
HETATM   19  O   UNL     1     -10.153   8.705  69.007  1.00  0.00    -0.188 OA 
HETATM   20  C   UNL     1     -11.004  11.259  66.375  1.00  0.00    -0.227 C  
HETATM   21  H   UNL     1     -11.210   9.893  70.969  1.00  0.00     0.000 HD 
HETATM   22  C   UNL     1     -10.303  10.060  68.534  1.00  0.00    -0.193 C  
HETATM   23  C   UNL     1     -10.312  10.034  66.998  1.00  0.00    -0.243 C  
BRANCH  20  24
HETATM   24  C   UNL     1     -11.453  10.998  64.918  1.00  0.00     0.448 C  
HETATM   25  O   UNL     1     -10.385  10.645  64.037  1.00  0.00    -0.416 OA 
HETATM   26  H   UNL     1     -10.661  10.485  63.142  1.00  0.00     0.000 HD 
ENDBRANCH  20  24
BRANCH  23  27
HETATM   27  O   UNL     1      -8.955  10.028  66.472  1.00  0.00    -0.141 OA 
BRANCH  27  28
HETATM   28  C   UNL     1      -7.959   9.776  67.471  1.00  0.00    -0.106 C  
HETATM   29  O   UNL     1      -6.657   9.972  66.939  1.00  0.00    -0.068 OA 
HETATM   30  C   UNL     1      -6.453  11.310  66.478  1.00  0.00    -0.111 C  
HETATM   31  C   UNL     1      -6.512  12.285  67.681  1.00  0.00    -0.120 C  
HETATM   32  C   UNL     1      -5.125  11.291  65.725  1.00  0.00    -0.007 C  
HETATM   33  C   UNL     1      -7.887  12.135  68.388  1.00  0.00    -0.149 C  
HETATM   34  H   UNL     1      -8.736  12.752  70.071  1.00  0.00     0.000 HD 
HETATM   35  C   UNL     1      -8.190  10.668  68.701  1.00  0.00    -0.135 C  
HETATM   36  O   UNL     1      -7.895  12.844  69.639  1.00  0.00     0.780 OA 
HETATM   37  O   UNL     1      -9.529  10.538  69.209  1.00  0.00    -0.234 OA 
HETATM   38  H   UNL     1      -9.673  11.089  69.969  1.00  0.00     0.000 HD 
BRANCH  31  39
HETATM   39  N   UNL     1      -6.211  13.664  67.226  1.00  0.00    -0.426 NA 
HETATM   40  H   UNL     1      -5.267  13.955  66.970  1.00  0.00     0.000 HD 
BRANCH  39  41
HETATM   41  C   UNL     1      -7.370  14.602  67.163  1.00  0.00     0.053 C  
HETATM   42  C   UNL     1      -8.150  15.773  69.268  1.00  0.00    -0.241 C  
HETATM   43  C   UNL     1      -8.033  14.686  68.505  1.00  0.00    -0.136 C  
HETATM   44  C   UNL     1      -7.692  17.123  68.785  1.00  0.00    -0.259 C  
HETATM   45  H   UNL     1      -5.063  16.823  66.372  1.00  0.00     0.000 HD 
HETATM   46  O   UNL     1      -5.389  15.995  66.706  1.00  0.00    -0.271 OA 
HETATM   47  C   UNL     1      -7.402  17.233  67.266  1.00  0.00    -0.164 C  
HETATM   48  O   UNL     1      -6.544  17.489  69.546  1.00  0.00    -0.239 OA 
HETATM   49  H   UNL     1      -8.417  17.687  65.634  1.00  0.00     0.000 HD 
HETATM   50  O   UNL     1      -8.595  17.619  66.565  1.00  0.00    -0.247 OA 
HETATM   51  C   UNL     1      -6.832  15.965  66.614  1.00  0.00     0.399 C  
HETATM   52  H   UNL     1      -6.255  18.341  69.240  1.00  0.00     0.000 HD 
BRANCH  42  53
HETATM   53  C   UNL     1      -8.725  15.745  70.667  1.00  0.00     2.180 C  
HETATM   54  O   UNL     1      -9.931  14.992  70.740  1.00  0.00    -0.229 OA 
HETATM   55  H   UNL     1     -10.292  14.975  71.619  1.00  0.00     0.000 HD 
ENDBRANCH  42  53
ENDBRANCH  39  41
ENDBRANCH  31  39
ENDBRANCH  27  28
ENDBRANCH  23  27
ENDBRANCH  13  14
ENDBRANCH   4  13
ENDBRANCH   1   4
BRANCH   1  56
HETATM   56  C   UNL     1     -12.490  16.354  68.015  1.00  0.00     1.850 C  
HETATM   57  O   UNL     1     -11.176  16.903  67.882  1.00  0.00    -0.239 OA 
HETATM   58  H   UNL     1     -11.247  17.803  67.586  1.00  0.00     0.000 HD 
ENDBRANCH   1  56
TORSDOF 12
ENDMDL
MODEL      302
REMARK 921   NORMALIZED FREE ENERGY PREDICTED BY IDOCK:   19.40 KCAL/MOL
REMARK 922        TOTAL FREE ENERGY PREDICTED BY IDOCK:   29.82 KCAL/MOL
REMARK 923 INTER-LIGAND FREE ENERGY PREDICTED BY IDOCK:    9.35 KCAL/MOL
REMARK 924 INTRA-LIGAND FREE ENERGY PREDICTED BY IDOCK:   20.47 KCAL/MOL
REMARK 927      BINDING AFFINITY PREDICTED BY RF-SCORE:    0.00 PKD
ROOT
HETATM    1  C   UNL     1      -8.562  13.397  67.444  1.00  0.00    -0.204 C  
HETATM    2  H   UNL     1     -10.474  13.288  67.743  1.00  0.00     0.000 HD 
HETATM    3  O   UNL     1      -9.913  13.297  66.976  1.00  0.00    -0.230 OA 
ENDROOT
BRANCH   1   4
HETATM    4  C   UNL     1      -8.194  12.283  68.468  1.00  0.00    -0.096 C  
BRANCH   4   5
HETATM    5  C   UNL     1      -8.007  12.835  69.916  1.00  0.00     2.152 C  
HETATM    6  O   UNL     1      -9.192  13.499  70.383  1.00  0.00     2.790 OA 
HETATM    7  H   UNL     1      -9.078  13.835  71.264  1.00  0.00     0.000 HD 
BRANCH   5   8
HETATM    8  C   UNL     1      -6.844  13.822  70.083  1.00  0.00     0.303 C  
HETATM    9  C   UNL     1      -5.537  13.213  69.625  1.00  0.00    -0.097 C  
HETATM   10  O   UNL     1      -6.736  14.138  71.480  1.00  0.00    -0.123 OA 
HETATM   11  O   UNL     1      -5.126  13.313  68.471  1.00  0.00    -0.065 OA 
HETATM   12  H   UNL     1      -6.016  14.749  71.584  1.00  0.00     0.000 HD 
ENDBRANCH   5   8
ENDBRANCH   4   5
BRANCH   4  13
HETATM   13  O   UNL     1      -7.013  11.538  68.083  1.00  0.00    -0.065 OA 
BRANCH  13  14
HETATM   14  C   UNL     1      -7.196  10.114  68.000  1.00  0.00    -0.085 C  
HETATM   15  H   UNL     1     -10.870  10.069  66.436  1.00  0.00     0.000 HD 
HETATM   16  O   UNL     1      -8.498  10.294  65.887  1.00  0.00    -0.139 OA 
HETATM   17  C   UNL     1      -8.487   9.787  67.231  1.00  0.00    -0.125 C  
HETATM   18  O   UNL     1      -7.268   9.474  69.266  1.00  0.00    -0.059 OA 
HETATM   19  O   UNL     1     -10.887   9.839  67.357  1.00  0.00    -0.274 OA 
HETATM   20  C   UNL     1      -8.318   9.960  70.107  1.00  0.00    -0.126 C  
HETATM   21  H   UNL     1      -9.296  10.092  65.413  1.00  0.00     0.000 HD 
HETATM   22  C   UNL     1      -9.689  10.356  67.973  1.00  0.00    -0.150 C  
HETATM   23  C   UNL     1      -9.716   9.984  69.463  1.00  0.00    -0.233 C  
BRANCH  20  24
HETATM   24  C   UNL     1      -8.289   9.123  71.407  1.00  0.00     0.043 C  
HETATM   25  O   UNL     1      -6.976   8.908  71.929  1.00  0.00    -0.229 OA 
HETATM   26  H   UNL     1      -6.958   8.394  72.728  1.00  0.00     0.000 HD 
ENDBRANCH  20  24
BRANCH  23  27
HETATM   27  O   UNL     1     -10.494  10.950  70.225  1.00  0.00     0.146 OA 
BRANCH  27  28
HETATM   28  C   UNL     1     -11.906  10.837  70.013  1.00  0.00    -0.344 C  
HETATM   29  O   UNL     1     -12.597  11.884  70.679  1.00  0.00    -0.268 OA 
HETATM   30  C   UNL     1     -12.208  13.177  70.207  1.00  0.00    -0.306 C  
HETATM   31  C   UNL     1     -12.635  13.336  68.725  1.00  0.00     0.641 C  
HETATM   32  C   UNL     1     -12.840  14.177  71.172  1.00  0.00    -0.431 C  
HETATM   33  C   UNL     1     -11.975  12.208  67.885  1.00  0.00    -0.148 C  
HETATM   34  H   UNL     1     -12.123  11.485  66.044  1.00  0.00     0.000 HD 
HETATM   35  C   UNL     1     -12.229  10.834  68.511  1.00  0.00     0.386 C  
HETATM   36  O   UNL     1     -12.527  12.175  66.558  1.00  0.00    -0.227 OA 
HETATM   37  O   UNL     1     -11.481   9.826  67.807  1.00  0.00    -0.511 OA 
HETATM   38  H   UNL     1     -11.680   9.823  66.879  1.00  0.00     0.000 HD 
BRANCH  31  39
HETATM   39  N   UNL     1     -12.318  14.707  68.255  1.00  0.00    -0.593 NA 
HETATM   40  H   UNL     1     -12.782  15.121  67.447  1.00  0.00     0.000 HD 
BRANCH  39  41
HETATM   41  C   UNL     1     -11.280  15.443  69.034  1.00  0.00    -0.291 C  
HETATM   42  C   UNL     1      -9.646  16.955  67.829  1.00  0.00    -0.249 C  
HETATM   43  C   UNL     1     -10.102  15.746  68.159  1.00  0.00    -0.220 C  
HETATM   44  C   UNL     1     -10.239  18.205  68.419  1.00  0.00    -0.387 C  
HETATM   45  H   UNL     1     -13.658  17.706  69.363  1.00  0.00     0.000 HD 
HETATM   46  O   UNL     1     -13.236  16.942  68.987  1.00  0.00     3.156 OA 
HETATM   47  C   UNL     1     -11.154  18.000  69.654  1.00  0.00     1.828 C  
HETATM   48  O   UNL     1     -10.940  18.885  67.380  1.00  0.00    -0.437 OA 
HETATM   49  H   UNL     1     -10.933  17.928  71.615  1.00  0.00     0.000 HD 
HETATM   50  O   UNL     1     -10.373  18.054  70.858  1.00  0.00     1.757 OA 
HETATM   51  C   UNL     1     -11.975  16.702  69.653  1.00  0.00     0.888 C  
HETATM   52  H   UNL     1     -11.315  19.674  67.753  1.00  0.00     0.000 HD 
BRANCH  42  53
HETATM   53  C   UNL     1      -8.524  17.175  66.838  1.00  0.00    -0.222 C  
HETATM   54  O   UNL     1      -7.370  16.401  67.148  1.00  0.00    -0.155 OA 
HETATM   55  H   UNL     1      -6.665  16.539  66.526  1.00  0.00     0.000 HD 
ENDBRANCH  42  53
ENDBRANCH  39  41
ENDBRANCH  31  39
ENDBRANCH  27  28
ENDBRANCH  23  27
ENDBRANCH  13  14
ENDBRANCH   4  13
ENDBRANCH   1   4
BRANCH   1  56
HETATM   56  C   UNL     1      -7.659  13.411  66.208  1.00  0.00     2.127 C  
HETATM   57  O   UNL     1      -6.301  13.574  66.628  1.00  0.00     0.225 OA 
HETATM   58  H   UNL     1      -5.740  13.582  65.861  1.00  0.00     0.000 HD 
ENDBRANCH   1  56
TORSDOF 12
ENDMDL
MODEL      303
REMARK 921   NORMALIZED FREE ENERGY PREDICTED BY IDOCK:   19.44 KCAL/MOL
REMARK 922        TOTAL FREE ENERGY PREDICTED BY IDOCK:   29.88 KCAL/MOL
REMARK 923 INTER-LIGAND FREE ENERGY PREDICTED BY IDOCK:    3.22 KCAL/MOL
REMARK 924 INTRA-LIGAND FREE ENERGY PREDICTED BY IDOCK:   26.66 KCAL/MOL
REMARK 927      BINDING AFFINITY PREDICTED BY RF-SCORE:    0.00 PKD
ROOT
HETATM    1  C   UNL     1     -11.847  15.786  68.665  1.00  0.00    -0.275 C  
HETATM    2  H   UNL     1     -12.076  15.173  70.489  1.00  0.00     0.000 HD 
HETATM    3  O   UNL     1     -12.306  14.834  69.632  1.00  0.00    -0.286 OA 
ENDROOT
BRANCH   1   4
HETATM    4  C   UNL     1     -10.331  16.116  68.815  1.00  0.00    -0.248 C  
BRANCH   4   5
HETATM    5  C   UNL     1      -9.926  17.429  68.074  1.00  0.00    -0.302 C  
HETATM    6  O   UNL     1     -11.014  18.364  68.027  1.00  0.00    -0.243 OA 
HETATM    7  H   UNL     1     -10.767  19.163  67.577  1.00  0.00     0.000 HD 
BRANCH   5   8
HETATM    8  C   UNL     1      -9.440  17.231  66.632  1.00  0.00    -0.265 C  
HETATM    9  C   UNL     1     -10.604  17.101  65.675  1.00  0.00    -0.179 C  
HETATM   10  O   UNL     1      -8.677  16.015  66.591  1.00  0.00    -0.218 OA 
HETATM   11  O   UNL     1     -11.108  18.067  65.106  1.00  0.00    -0.543 OA 
HETATM   12  H   UNL     1      -8.377  15.892  65.699  1.00  0.00     0.000 HD 
ENDBRANCH   5   8
ENDBRANCH   4   5
BRANCH   4  13
HETATM   13  O   UNL     1      -9.478  15.032  68.373  1.00  0.00    -0.190 OA 
BRANCH  13  14
HETATM   14  C   UNL     1      -8.450  14.654  69.304  1.00  0.00     0.030 C  
HETATM   15  H   UNL     1      -5.266  15.823  67.196  1.00  0.00     0.000 HD 
HETATM   16  O   UNL     1      -7.030  16.605  68.699  1.00  0.00    -0.154 OA 
HETATM   17  C   UNL     1      -7.083  15.175  68.830  1.00  0.00    -0.125 C  
HETATM   18  O   UNL     1      -8.340  13.250  69.492  1.00  0.00     0.819 OA 
HETATM   19  O   UNL     1      -5.356  14.877  67.185  1.00  0.00    -0.166 OA 
HETATM   20  C   UNL     1      -8.075  12.519  68.291  1.00  0.00    -0.165 C  
HETATM   21  H   UNL     1      -6.185  16.927  68.406  1.00  0.00     0.000 HD 
HETATM   22  C   UNL     1      -6.729  14.552  67.487  1.00  0.00    -0.116 C  
HETATM   23  C   UNL     1      -6.875  13.023  67.469  1.00  0.00    -0.151 C  
BRANCH  20  24
HETATM   24  C   UNL     1      -7.930  11.030  68.683  1.00  0.00    -0.143 C  
HETATM   25  O   UNL     1      -9.176  10.360  68.885  1.00  0.00    -0.159 OA 
HETATM   26  H   UNL     1      -9.086   9.446  69.126  1.00  0.00     0.000 HD 
ENDBRANCH  20  24
BRANCH  23  27
HETATM   27  O   UNL     1      -7.086  12.539  66.112  1.00  0.00     0.971 OA 
BRANCH  27  28
HETATM   28  C   UNL     1      -8.393  12.827  65.601  1.00  0.00     1.755 C  
HETATM   29  O   UNL     1      -8.714  11.955  64.528  1.00  0.00     0.624 OA 
HETATM   30  C   UNL     1      -8.717  10.582  64.926  1.00  0.00    -0.181 C  
HETATM   31  C   UNL     1      -9.857  10.344  65.949  1.00  0.00    -0.235 C  
HETATM   32  C   UNL     1      -8.830   9.777  63.634  1.00  0.00    -0.258 C  
HETATM   33  C   UNL     1      -9.646  11.283  67.168  1.00  0.00    -0.177 C  
HETATM   34  H   UNL     1     -10.670  11.841  68.773  1.00  0.00     0.000 HD 
HETATM   35  C   UNL     1      -9.443  12.732  66.719  1.00  0.00    -0.243 C  
HETATM   36  O   UNL     1     -10.800  11.266  68.027  1.00  0.00    -0.191 OA 
HETATM   37  O   UNL     1      -9.095  13.554  67.848  1.00  0.00    -0.186 OA 
HETATM   38  H   UNL     1      -9.744  13.496  68.539  1.00  0.00     0.000 HD 
BRANCH  31  39
HETATM   39  N   UNL     1      -9.926   8.903  66.298  1.00  0.00    -0.338 NA 
HETATM   40  H   UNL     1     -10.251   8.584  67.211  1.00  0.00     0.000 HD 
BRANCH  39  41
HETATM   41  C   UNL     1      -9.494   7.950  65.234  1.00  0.00     0.806 C  
HETATM   42  C   UNL     1      -7.574   6.361  65.681  1.00  0.00    -0.086 C  
HETATM   43  C   UNL     1      -8.055   7.580  65.434  1.00  0.00    -0.133 C  
HETATM   44  C   UNL     1      -8.468   5.151  65.682  1.00  0.00    -0.134 C  
HETATM   45  H   UNL     1     -11.840   6.021  66.520  1.00  0.00     0.000 HD 
HETATM   46  O   UNL     1     -11.235   6.753  66.502  1.00  0.00    -0.023 OA 
HETATM   47  C   UNL     1      -9.874   5.350  65.061  1.00  0.00     0.557 C  
HETATM   48  O   UNL     1      -8.572   4.690  67.027  1.00  0.00    -0.105 OA 
HETATM   49  H   UNL     1     -10.698   5.183  63.274  1.00  0.00     0.000 HD 
HETATM   50  O   UNL     1      -9.836   5.060  63.654  1.00  0.00     0.418 OA 
HETATM   51  C   UNL     1     -10.489   6.743  65.264  1.00  0.00     3.351 C  
HETATM   52  H   UNL     1      -9.137   3.926  67.028  1.00  0.00     0.000 HD 
BRANCH  42  53
HETATM   53  C   UNL     1      -6.118   6.092  65.994  1.00  0.00    -0.033 C  
HETATM   54  O   UNL     1      -5.954   5.340  67.191  1.00  0.00    -0.024 OA 
HETATM   55  H   UNL     1      -5.040   5.172  67.388  1.00  0.00     0.000 HD 
ENDBRANCH  42  53
ENDBRANCH  39  41
ENDBRANCH  31  39
ENDBRANCH  27  28
ENDBRANCH  23  27
ENDBRANCH  13  14
ENDBRANCH   4  13
ENDBRANCH   1   4
BRANCH   1  56
HETATM   56  C   UNL     1     -12.217  15.239  67.284  1.00  0.00     0.571 C  
HETATM   57  O   UNL     1     -12.554  13.855  67.410  1.00  0.00    -0.410 OA 
HETATM   58  H   UNL     1     -12.784  13.515  66.553  1.00  0.00     0.000 HD 
ENDBRANCH   1  56
TORSDOF 12
ENDMDL
MODEL      304
REMARK 921   NORMALIZED FREE ENERGY PREDICTED BY IDOCK:   21.81 KCAL/MOL
REMARK 922        TOTAL FREE ENERGY PREDICTED BY IDOCK:   33.92 KCAL/MOL
REMARK 923 INTER-LIGAND FREE ENERGY PREDICTED BY IDOCK:    4.70 KCAL/MOL
REMARK 924 INTRA-LIGAND FREE ENERGY PREDICTED BY IDOCK:   29.22 KCAL/MOL
REMARK 927      BINDING AFFINITY PREDICTED BY RF-SCORE:    0.00 PKD
ROOT
HETATM    1  C   UNL     1     -11.217   6.585  69.539  1.00  0.00    -0.372 C  
HETATM    2  H   UNL     1     -12.843   6.665  70.592  1.00  0.00     0.000 HD 
HETATM    3  O   UNL     1     -12.268   5.969  70.294  1.00  0.00     0.399 OA 
ENDROOT
BRANCH   1   4
HETATM    4  C   UNL     1     -10.478   7.702  70.334  1.00  0.00    -0.220 C  
BRANCH   4   5
HETATM    5  C   UNL     1      -9.818   7.170  71.645  1.00  0.00    -0.162 C  
HETATM    6  O   UNL     1     -10.259   5.839  71.953  1.00  0.00    -0.190 OA 
HETATM    7  H   UNL     1      -9.858   5.515  72.751  1.00  0.00     0.000 HD 
BRANCH   5   8
HETATM    8  C   UNL     1     -10.077   8.029  72.890  1.00  0.00    -0.306 C  
HETATM    9  C   UNL     1     -11.185   9.029  72.646  1.00  0.00     0.546 C  
HETATM   10  O   UNL     1      -8.869   8.748  73.184  1.00  0.00    -0.310 OA 
HETATM   11  O   UNL     1     -12.367   8.783  72.878  1.00  0.00    -0.236 OA 
HETATM   12  H   UNL     1      -9.030   9.279  73.955  1.00  0.00     0.000 HD 
ENDBRANCH   5   8
ENDBRANCH   4   5
BRANCH   4  13
HETATM   13  O   UNL     1     -11.336   8.825  70.650  1.00  0.00    -0.262 OA 
BRANCH  13  14
HETATM   14  C   UNL     1     -12.389   9.067  69.702  1.00  0.00     1.519 C  
HETATM   15  H   UNL     1     -10.339   8.404  66.340  1.00  0.00     0.000 HD 
HETATM   16  O   UNL     1     -11.553   7.306  68.157  1.00  0.00    -0.064 OA 
HETATM   17  C   UNL     1     -11.929   8.686  68.285  1.00  0.00     3.110 C  
HETATM   18  O   UNL     1     -12.829  10.417  69.670  1.00  0.00    -0.078 OA 
HETATM   19  O   UNL     1     -10.488   9.333  66.473  1.00  0.00    -0.227 OA 
HETATM   20  C   UNL     1     -11.797  11.360  69.364  1.00  0.00    -0.351 C  
HETATM   21  H   UNL     1     -11.268   7.071  67.281  1.00  0.00     0.000 HD 
HETATM   22  C   UNL     1     -10.744   9.551  67.876  1.00  0.00    -0.228 C  
HETATM   23  C   UNL     1     -10.985  11.053  68.093  1.00  0.00    -0.247 C  
BRANCH  20  24
HETATM   24  C   UNL     1     -12.453  12.759  69.314  1.00  0.00     0.322 C  
HETATM   25  O   UNL     1     -12.022  13.563  68.214  1.00  0.00    -0.356 OA 
HETATM   26  H   UNL     1     -12.426  14.422  68.184  1.00  0.00     0.000 HD 
ENDBRANCH  20  24
BRANCH  23  27
HETATM   27  O   UNL     1      -9.723  11.764  68.239  1.00  0.00    -0.189 OA 
BRANCH  27  28
HETATM   28  C   UNL     1      -9.473  12.210  69.578  1.00  0.00     1.325 C  
HETATM   29  O   UNL     1      -8.136  12.668  69.710  1.00  0.00     1.311 OA 
HETATM   30  C   UNL     1      -7.850  13.770  68.846  1.00  0.00     0.005 C  
HETATM   31  C   UNL     1      -8.704  14.992  69.268  1.00  0.00    -0.161 C  
HETATM   32  C   UNL     1      -6.340  13.977  68.924  1.00  0.00    -0.092 C  
HETATM   33  C   UNL     1     -10.207  14.605  69.210  1.00  0.00    -0.147 C  
HETATM   34  H   UNL     1     -11.937  15.389  69.780  1.00  0.00     0.000 HD 
HETATM   35  C   UNL     1     -10.472  13.307  69.976  1.00  0.00     1.397 C  
HETATM   36  O   UNL     1     -11.018  15.626  69.816  1.00  0.00    -0.252 OA 
HETATM   37  O   UNL     1     -11.834  12.887  69.778  1.00  0.00    -0.312 OA 
HETATM   38  H   UNL     1     -12.451  13.564  70.025  1.00  0.00     0.000 HD 
BRANCH  31  39
HETATM   39  N   UNL     1      -8.347  16.167  68.435  1.00  0.00    -0.171 NA 
HETATM   40  H   UNL     1      -8.692  16.277  67.481  1.00  0.00     0.000 HD 
BRANCH  39  41
HETATM   41  C   UNL     1      -7.453  17.177  69.074  1.00  0.00    -0.203 C  
HETATM   42  C   UNL     1      -6.460  19.037  67.673  1.00  0.00    -0.212 C  
HETATM   43  C   UNL     1      -6.526  17.760  68.051  1.00  0.00    -0.183 C  
HETATM   44  C   UNL     1      -7.286  20.098  68.348  1.00  0.00    -0.202 C  
HETATM   45  H   UNL     1     -10.288  18.727  69.739  1.00  0.00     0.000 HD 
HETATM   46  O   UNL     1      -9.729  18.094  69.303  1.00  0.00    -0.144 OA 
HETATM   47  C   UNL     1      -7.940  19.690  69.693  1.00  0.00     0.328 C  
HETATM   48  O   UNL     1      -8.274  20.535  67.419  1.00  0.00    -0.335 OA 
HETATM   49  H   UNL     1      -7.453  19.734  71.606  1.00  0.00     0.000 HD 
HETATM   50  O   UNL     1      -7.051  19.985  70.782  1.00  0.00     0.140 OA 
HETATM   51  C   UNL     1      -8.374  18.220  69.791  1.00  0.00     1.203 C  
HETATM   52  H   UNL     1      -8.796  21.205  67.845  1.00  0.00     0.000 HD 
BRANCH  42  53
HETATM   53  C   UNL     1      -5.580  19.522  66.542  1.00  0.00    -0.161 C  
HETATM   54  O   UNL     1      -6.025  20.765  66.007  1.00  0.00    -0.205 OA 
HETATM   55  H   UNL     1      -5.472  21.069  65.297  1.00  0.00     0.000 HD 
ENDBRANCH  42  53
ENDBRANCH  39  41
ENDBRANCH  31  39
ENDBRANCH  27  28
ENDBRANCH  23  27
ENDBRANCH  13  14
ENDBRANCH   4  13
ENDBRANCH   1   4
BRANCH   1  56
HETATM   56  C   UNL     1     -10.292   5.464  69.060  1.00  0.00    -0.212 C  
HETATM   57  O   UNL     1      -9.563   5.922  67.918  1.00  0.00    -0.113 OA 
HETATM   58  H   UNL     1      -8.988   5.226  67.620  1.00  0.00     0.000 HD 
ENDBRANCH   1  56
TORSDOF 12
ENDMDL
MODEL      305
REMARK 921   NORMALIZED FREE ENERGY PREDICTED BY IDOCK:   22.52 KCAL/MOL
REMARK 922        TOTAL FREE ENERGY PREDICTED BY IDOCK:   35.12 KCAL/MOL
REMARK 923 INTER-LIGAND FREE ENERGY PREDICTED BY IDOCK:   29.82 KCAL/MOL
REMARK 924 INTRA-LIGAND FREE ENERGY PREDICTED BY IDOCK:    5.30 KCAL/MOL
REMARK 927      BINDING AFFINITY PREDICTED BY RF-SCORE:    0.00 PKD
ROOT
HETATM    1  C   UNL     1     -11.935  12.491  63.296  1.00  0.00    -0.426 C  
HETATM    2  H   UNL     1     -11.691  14.383  63.639  1.00  0.00     0.000 HD 
HETATM    3  O   UNL     1     -12.433  13.790  63.644  1.00  0.00    -0.718 OA 
ENDROOT
BRANCH   1   4
HETATM    4  C   UNL     1     -10.765  12.028  64.213  1.00  0.00    -0.336 C  
BRANCH   4   5
HETATM    5  C   UNL     1     -10.850  10.511  64.576  1.00  0.00     0.478 C  
HETATM    6  O   UNL     1     -11.252  10.319  65.941  1.00  0.00     0.399 OA 
HETATM    7  H   UNL     1     -11.304   9.396  66.162  1.00  0.00     0.000 HD 
BRANCH   5   8
HETATM    8  C   UNL     1      -9.546   9.728  64.377  1.00  0.00    -0.090 C  
HETATM    9  C   UNL     1      -9.142   9.003  65.641  1.00  0.00    -0.223 C  
HETATM   10  O   UNL     1      -8.516  10.672  64.042  1.00  0.00    -0.276 OA 
HETATM   11  O   UNL     1      -9.499   7.854  65.892  1.00  0.00    -0.080 OA 
HETATM   12  H   UNL     1      -7.709  10.187  63.919  1.00  0.00     0.000 HD 
ENDBRANCH   5   8
ENDBRANCH   4   5
BRANCH   4  13
HETATM   13  O   UNL     1     -10.666  12.807  65.430  1.00  0.00    -0.274 OA 
BRANCH  13  14
HETATM   14  C   UNL     1     -10.123  14.127  65.260  1.00  0.00    -0.335 C  
HETATM   15  H   UNL     1      -7.026  13.833  67.765  1.00  0.00     0.000 HD 
HETATM   16  O   UNL     1      -7.784  13.315  65.498  1.00  0.00     2.734 OA 
HETATM   17  C   UNL     1      -8.769  14.243  65.979  1.00  0.00     0.678 C  
HETATM   18  O   UNL     1     -10.967  15.159  65.751  1.00  0.00    -0.336 OA 
HETATM   19  O   UNL     1      -7.722  14.360  68.139  1.00  0.00    -0.111 OA 
HETATM   20  C   UNL     1     -11.288  15.039  67.140  1.00  0.00    -0.320 C  
HETATM   21  H   UNL     1      -6.947  13.386  65.942  1.00  0.00     0.000 HD 
HETATM   22  C   UNL     1      -8.955  14.019  67.473  1.00  0.00    -0.195 C  
HETATM   23  C   UNL     1     -10.081  14.872  68.080  1.00  0.00    -0.221 C  
BRANCH  20  24
HETATM   24  C   UNL     1     -12.157  16.261  67.518  1.00  0.00     1.146 C  
HETATM   25  O   UNL     1     -11.555  17.518  67.207  1.00  0.00     0.628 OA 
HETATM   26  H   UNL     1     -12.089  18.269  67.439  1.00  0.00     0.000 HD 
ENDBRANCH  20  24
BRANCH  23  27
HETATM   27  O   UNL     1     -10.597  14.259  69.295  1.00  0.00    -0.223 OA 
BRANCH  27  28
HETATM   28  C   UNL     1     -10.713  15.175  70.390  1.00  0.00    -0.180 C  
HETATM   29  O   UNL     1     -11.982  15.810  70.380  1.00  0.00    -0.345 OA 
HETATM   30  C   UNL     1     -13.058  14.876  70.504  1.00  0.00    -0.254 C  
HETATM   31  C   UNL     1     -12.994  14.198  71.897  1.00  0.00    -0.360 C  
HETATM   32  C   UNL     1     -14.332  15.672  70.230  1.00  0.00     1.899 C  
HETATM   33  C   UNL     1     -11.618  13.497  72.056  1.00  0.00     2.323 C  
HETATM   34  H   UNL     1     -10.583  12.631  73.510  1.00  0.00     0.000 HD 
HETATM   35  C   UNL     1     -10.470  14.453  71.725  1.00  0.00     3.097 C  
HETATM   36  O   UNL     1     -11.425  13.060  73.413  1.00  0.00     5.236 OA 
HETATM   37  O   UNL     1      -9.219  13.742  71.727  1.00  0.00     7.314 OA 
HETATM   38  H   UNL     1      -9.069  13.297  72.552  1.00  0.00     0.000 HD 
BRANCH  31  39
HETATM   39  N   UNL     1     -14.159  13.296  72.070  1.00  0.00    -0.262 NA 
HETATM   40  H   UNL     1     -14.930  13.524  72.698  1.00  0.00     0.000 HD 
BRANCH  39  41
HETATM   41  C   UNL     1     -14.136  12.035  71.272  1.00  0.00     2.278 C  
HETATM   42  C   UNL     1     -12.330  11.686  69.533  1.00  0.00    -0.152 C  
HETATM   43  C   UNL     1     -13.448  12.272  69.962  1.00  0.00     2.248 C  
HETATM   44  C   UNL     1     -11.665  10.591  70.323  1.00  0.00    -0.332 C  
HETATM   45  H   UNL     1     -12.384  10.886  73.820  1.00  0.00     0.000 HD 
HETATM   46  O   UNL     1     -12.784  11.554  73.276  1.00  0.00     3.523 OA 
HETATM   47  C   UNL     1     -12.518   9.966  71.458  1.00  0.00    -0.411 C  
HETATM   48  O   UNL     1     -10.442  11.109  70.839  1.00  0.00     1.102 OA 
HETATM   49  H   UNL     1     -13.795   8.472  71.646  1.00  0.00     0.000 HD 
HETATM   50  O   UNL     1     -13.273   8.855  70.950  1.00  0.00    -0.031 OA 
HETATM   51  C   UNL     1     -13.475  10.935  72.167  1.00  0.00    -0.100 C  
HETATM   52  H   UNL     1     -10.023  10.417  71.338  1.00  0.00     0.000 HD 
BRANCH  42  53
HETATM   53  C   UNL     1     -11.631  12.073  68.248  1.00  0.00    -0.334 C  
HETATM   54  O   UNL     1     -10.232  11.814  68.296  1.00  0.00    -0.192 OA 
HETATM   55  H   UNL     1      -9.793  12.058  67.489  1.00  0.00     0.000 HD 
ENDBRANCH  42  53
ENDBRANCH  39  41
ENDBRANCH  31  39
ENDBRANCH  27  28
ENDBRANCH  23  27
ENDBRANCH  13  14
ENDBRANCH   4  13
ENDBRANCH   1   4
BRANCH   1  56
HETATM   56  C   UNL     1     -13.131  11.535  63.304  1.00  0.00     0.609 C  
HETATM   57  O   UNL     1     -13.685  11.498  64.621  1.00  0.00     1.251 OA 
HETATM   58  H   UNL     1     -14.428  10.905  64.626  1.00  0.00     0.000 HD 
ENDBRANCH   1  56
TORSDOF 12
ENDMDL
MODEL      306
REMARK 921   NORMALIZED FREE ENERGY PREDICTED BY IDOCK:   22.61 KCAL/MOL
REMARK 922        TOTAL FREE ENERGY PREDICTED BY IDOCK:   35.28 KCAL/MOL
REMARK 923 INTER-LIGAND FREE ENERGY PREDICTED BY IDOCK:    5.25 KCAL/MOL
REMARK 924 INTRA-LIGAND FREE ENERGY PREDICTED BY IDOCK:   30.03 KCAL/MOL
REMARK 927      BINDING AFFINITY PREDICTED BY RF-SCORE:    0.00 PKD
ROOT
HETATM    1  C   UNL     1      -9.241  15.091  69.669  1.00  0.00     0.006 C  
HETATM    2  H   UNL     1      -8.443  15.494  71.390  1.00  0.00     0.000 HD 
HETATM    3  O   UNL     1      -8.159  15.560  70.485  1.00  0.00     0.819 OA 
ENDROOT
BRANCH   1   4
HETATM    4  C   UNL     1     -10.579  15.835  69.955  1.00  0.00    -0.328 C  
BRANCH   4   5
HETATM    5  C   UNL     1     -11.778  14.858  70.162  1.00  0.00    -0.294 C  
HETATM    6  O   UNL     1     -12.970  15.560  70.545  1.00  0.00    -0.599 OA 
HETATM    7  H   UNL     1     -13.700  14.966  70.671  1.00  0.00     0.000 HD 
BRANCH   5   8
HETATM    8  C   UNL     1     -11.543  13.765  71.213  1.00  0.00     0.768 C  
HETATM    9  C   UNL     1     -11.502  12.393  70.578  1.00  0.00     0.584 C  
HETATM   10  O   UNL     1     -12.640  13.807  72.139  1.00  0.00    -0.225 OA 
HETATM   11  O   UNL     1     -10.461  11.877  70.175  1.00  0.00     0.965 OA 
HETATM   12  H   UNL     1     -12.494  13.130  72.790  1.00  0.00     0.000 HD 
ENDBRANCH   5   8
ENDBRANCH   4   5
BRANCH   4  13
HETATM   13  O   UNL     1     -10.915  16.796  68.924  1.00  0.00    -0.314 OA 
BRANCH  13  14
HETATM   14  C   UNL     1     -12.140  16.525  68.222  1.00  0.00     0.872 C  
HETATM   15  H   UNL     1     -12.292  12.573  68.771  1.00  0.00     0.000 HD 
HETATM   16  O   UNL     1     -12.786  14.728  69.816  1.00  0.00    -0.576 OA 
HETATM   17  C   UNL     1     -12.567  15.064  68.437  1.00  0.00     0.634 C  
HETATM   18  O   UNL     1     -12.059  16.755  66.823  1.00  0.00     1.794 OA 
HETATM   19  O   UNL     1     -12.037  12.786  67.881  1.00  0.00    -0.313 OA 
HETATM   20  C   UNL     1     -11.047  15.987  66.163  1.00  0.00     0.027 C  
HETATM   21  H   UNL     1     -13.049  13.824  69.949  1.00  0.00     0.000 HD 
HETATM   22  C   UNL     1     -11.506  14.127  67.874  1.00  0.00    -0.312 C  
HETATM   23  C   UNL     1     -11.094  14.472  66.434  1.00  0.00    -0.331 C  
BRANCH  20  24
HETATM   24  C   UNL     1     -11.135  16.313  64.655  1.00  0.00    -0.246 C  
HETATM   25  O   UNL     1     -10.755  17.651  64.328  1.00  0.00     0.653 OA 
HETATM   26  H   UNL     1     -10.808  17.851  63.401  1.00  0.00     0.000 HD 
ENDBRANCH  20  24
BRANCH  23  27
HETATM   27  O   UNL     1      -9.759  13.970  66.143  1.00  0.00    -0.293 OA 
BRANCH  27  28
HETATM   28  C   UNL     1      -9.361  12.887  66.993  1.00  0.00    -0.235 C  
HETATM   29  O   UNL     1     -10.261  11.797  66.868  1.00  0.00    -0.205 OA 
HETATM   30  C   UNL     1     -10.311  11.283  65.535  1.00  0.00    -0.266 C  
HETATM   31  C   UNL     1      -8.935  10.671  65.166  1.00  0.00    -0.198 C  
HETATM   32  C   UNL     1     -11.481  10.303  65.512  1.00  0.00     1.878 C  
HETATM   33  C   UNL     1      -7.841  11.764  65.308  1.00  0.00     1.401 C  
HETATM   34  H   UNL     1      -5.859  11.853  65.293  1.00  0.00     0.000 HD 
HETATM   35  C   UNL     1      -7.922  12.452  66.673  1.00  0.00     0.153 C  
HETATM   36  O   UNL     1      -6.528  11.184  65.206  1.00  0.00     0.200 OA 
HETATM   37  O   UNL     1      -7.006  13.560  66.722  1.00  0.00    -0.233 OA 
HETATM   38  H   UNL     1      -6.117  13.291  66.525  1.00  0.00     0.000 HD 
BRANCH  31  39
HETATM   39  N   UNL     1      -9.005  10.053  63.819  1.00  0.00    -0.228 NA 
HETATM   40  H   UNL     1      -9.046  10.615  62.968  1.00  0.00     0.000 HD 
BRANCH  39  41
HETATM   41  C   UNL     1      -9.012   8.561  63.782  1.00  0.00     0.579 C  
HETATM   42  C   UNL     1      -6.869   7.310  63.276  1.00  0.00    -0.054 C  
HETATM   43  C   UNL     1      -7.903   8.066  62.903  1.00  0.00    -0.144 C  
HETATM   44  C   UNL     1      -6.762   6.762  64.673  1.00  0.00    -0.042 C  
HETATM   45  H   UNL     1      -8.484   8.842  67.026  1.00  0.00     0.000 HD 
HETATM   46  O   UNL     1      -8.525   9.145  66.126  1.00  0.00    -0.122 OA 
HETATM   47  C   UNL     1      -8.053   6.839  65.528  1.00  0.00    -0.128 C  
HETATM   48  O   UNL     1      -5.687   7.435  65.322  1.00  0.00    -0.036 OA 
HETATM   49  H   UNL     1      -9.626   5.695  65.870  1.00  0.00     0.000 HD 
HETATM   50  O   UNL     1      -8.835   5.648  65.346  1.00  0.00    -0.154 OA 
HETATM   51  C   UNL     1      -8.943   8.062  65.264  1.00  0.00     0.137 C  
HETATM   52  H   UNL     1      -5.619   7.089  66.204  1.00  0.00     0.000 HD 
BRANCH  42  53
HETATM   53  C   UNL     1      -5.725   6.957  62.351  1.00  0.00    -0.036 C  
HETATM   54  O   UNL     1      -5.423   5.566  62.373  1.00  0.00    -0.013 OA 
HETATM   55  H   UNL     1      -4.704   5.344  61.793  1.00  0.00     0.000 HD 
ENDBRANCH  42  53
ENDBRANCH  39  41
ENDBRANCH  31  39
ENDBRANCH  27  28
ENDBRANCH  23  27
ENDBRANCH  13  14
ENDBRANCH   4  13
ENDBRANCH   1   4
BRANCH   1  56
HETATM   56  C   UNL     1      -8.783  15.198  68.212  1.00  0.00    -0.171 C  
HETATM   57  O   UNL     1      -7.543  15.908  68.167  1.00  0.00    -0.127 OA 
HETATM   58  H   UNL     1      -7.259  15.975  67.263  1.00  0.00     0.000 HD 
ENDBRANCH   1  56
TORSDOF 12
ENDMDL
MODEL      307
REMARK 921   NORMALIZED FREE ENERGY PREDICTED BY IDOCK:   24.13 KCAL/MOL
REMARK 922        TOTAL FREE ENERGY PREDICTED BY IDOCK:   37.86 KCAL/MOL
REMARK 923 INTER-LIGAND FREE ENERGY PREDICTED BY IDOCK:    8.57 KCAL/MOL
REMARK 924 INTRA-LIGAND FREE ENERGY PREDICTED BY IDOCK:   29.30 KCAL/MOL
REMARK 927      BINDING AFFINITY PREDICTED BY RF-SCORE:    0.00 PKD
ROOT
HETATM    1  C   UNL     1      -6.460   8.849  66.805  1.00  0.00    -0.064 C  
HETATM    2  H   UNL     1      -5.308   7.322  67.122  1.00  0.00     0.000 HD 
HETATM    3  O   UNL     1      -5.208   8.265  67.189  1.00  0.00    -0.031 OA 
ENDROOT
BRANCH   1   4
HETATM    4  C   UNL     1      -7.661   8.295  67.627  1.00  0.00    -0.099 C  
BRANCH   4   5
HETATM    5  C   UNL     1      -7.419   6.839  68.137  1.00  0.00    -0.099 C  
HETATM    6  O   UNL     1      -8.312   5.906  67.509  1.00  0.00    -0.106 OA 
HETATM    7  H   UNL     1      -8.165   5.020  67.820  1.00  0.00     0.000 HD 
BRANCH   5   8
HETATM    8  C   UNL     1      -7.571   6.655  69.653  1.00  0.00    -0.098 C  
HETATM    9  C   UNL     1      -6.596   5.626  70.181  1.00  0.00    -0.043 C  
HETATM   10  O   UNL     1      -8.906   6.191  69.905  1.00  0.00    -0.137 OA 
HETATM   11  O   UNL     1      -5.472   5.920  70.583  1.00  0.00    -0.012 OA 
HETATM   12  H   UNL     1      -9.000   6.078  70.844  1.00  0.00     0.000 HD 
ENDBRANCH   5   8
ENDBRANCH   4   5
BRANCH   4  13
HETATM   13  O   UNL     1      -8.910   8.345  66.894  1.00  0.00    -0.135 OA 
BRANCH  13  14
HETATM   14  C   UNL     1      -8.770   8.445  65.467  1.00  0.00    -0.162 C  
HETATM   15  H   UNL     1      -6.241  11.533  65.325  1.00  0.00     0.000 HD 
HETATM   16  O   UNL     1      -6.379   9.111  65.638  1.00  0.00    -0.065 OA 
HETATM   17  C   UNL     1      -7.669   9.458  65.109  1.00  0.00    -0.109 C  
HETATM   18  O   UNL     1      -9.961   8.844  64.804  1.00  0.00     0.838 OA 
HETATM   19  O   UNL     1      -7.120  11.797  65.079  1.00  0.00     1.671 OA 
HETATM   20  C   UNL     1     -10.479  10.105  65.241  1.00  0.00     0.057 C  
HETATM   21  H   UNL     1      -5.699   9.737  65.417  1.00  0.00     0.000 HD 
HETATM   22  C   UNL     1      -8.049  10.839  65.626  1.00  0.00    -0.112 C  
HETATM   23  C   UNL     1      -9.470  11.267  65.229  1.00  0.00    -0.221 C  
BRANCH  20  24
HETATM   24  C   UNL     1     -11.730  10.408  64.385  1.00  0.00     3.405 C  
HETATM   25  O   UNL     1     -12.239  11.732  64.552  1.00  0.00    -0.180 OA 
HETATM   26  H   UNL     1     -13.008  11.919  64.026  1.00  0.00     0.000 HD 
ENDBRANCH  20  24
BRANCH  23  27
HETATM   27  O   UNL     1      -9.990  12.261  66.156  1.00  0.00    -0.233 OA 
BRANCH  27  28
HETATM   28  C   UNL     1      -9.818  13.609  65.701  1.00  0.00    -0.175 C  
HETATM   29  O   UNL     1     -11.061  14.294  65.688  1.00  0.00    -0.303 OA 
HETATM   30  C   UNL     1     -11.656  14.367  66.986  1.00  0.00    -0.384 C  
HETATM   31  C   UNL     1     -10.766  15.232  67.914  1.00  0.00    -0.275 C  
HETATM   32  C   UNL     1     -13.069  14.899  66.765  1.00  0.00     2.239 C  
HETATM   33  C   UNL     1      -9.345  14.608  67.979  1.00  0.00    -0.198 C  
HETATM   34  H   UNL     1      -7.559  15.119  68.674  1.00  0.00     0.000 HD 
HETATM   35  C   UNL     1      -8.792  14.347  66.576  1.00  0.00    -0.089 C  
HETATM   36  O   UNL     1      -8.428  15.501  68.634  1.00  0.00    -0.155 OA 
HETATM   37  O   UNL     1      -7.549  13.628  66.661  1.00  0.00    -0.099 OA 
HETATM   38  H   UNL     1      -6.915  14.084  67.201  1.00  0.00     0.000 HD 
BRANCH  31  39
HETATM   39  N   UNL     1     -11.421  15.389  69.236  1.00  0.00    -0.309 NA 
HETATM   40  H   UNL     1     -11.279  16.217  69.814  1.00  0.00     0.000 HD 
BRANCH  39  41
HETATM   41  C   UNL     1     -12.300  14.263  69.669  1.00  0.00    -0.266 C  
HETATM   42  C   UNL     1     -12.013  11.975  68.624  1.00  0.00    -0.290 C  
HETATM   43  C   UNL     1     -12.409  13.248  68.572  1.00  0.00     0.099 C  
HETATM   44  C   UNL     1     -11.481  11.370  69.895  1.00  0.00    -0.273 C  
HETATM   45  H   UNL     1     -10.009  13.859  72.009  1.00  0.00     0.000 HD 
HETATM   46  O   UNL     1     -10.364  14.192  71.192  1.00  0.00     2.046 OA 
HETATM   47  C   UNL     1     -11.734  12.187  71.188  1.00  0.00     1.088 C  
HETATM   48  O   UNL     1     -10.088  11.133  69.713  1.00  0.00    -0.398 OA 
HETATM   49  H   UNL     1     -13.142  12.304  72.568  1.00  0.00     0.000 HD 
HETATM   50  O   UNL     1     -12.987  11.803  71.776  1.00  0.00    -0.423 OA 
HETATM   51  C   UNL     1     -11.716  13.713  71.013  1.00  0.00     0.324 C  
HETATM   52  H   UNL     1      -9.753  10.751  70.516  1.00  0.00     0.000 HD 
BRANCH  42  53
HETATM   53  C   UNL     1     -12.045  11.048  67.428  1.00  0.00     1.057 C  
HETATM   54  O   UNL     1     -12.719  11.627  66.315  1.00  0.00     1.458 OA 
HETATM   55  H   UNL     1     -12.739  11.044  65.565  1.00  0.00     0.000 HD 
ENDBRANCH  42  53
ENDBRANCH  39  41
ENDBRANCH  31  39
ENDBRANCH  27  28
ENDBRANCH  23  27
ENDBRANCH  13  14
ENDBRANCH   4  13
ENDBRANCH   1   4
BRANCH   1  56
HETATM   56  C   UNL     1      -6.298  10.368  66.912  1.00  0.00    -0.071 C  
HETATM   57  O   UNL     1      -7.575  10.952  67.184  1.00  0.00    -0.100 OA 
HETATM   58  H   UNL     1      -7.474  11.894  67.251  1.00  0.00     0.000 HD 
ENDBRANCH   1  56
TORSDOF 12
ENDMDL
MODEL      308
REMARK 921   NORMALIZED FREE ENERGY PREDICTED BY IDOCK:   24.63 KCAL/MOL
REMARK 922        TOTAL FREE ENERGY PREDICTED BY IDOCK:   38.72 KCAL/MOL
REMARK 923 INTER-LIGAND FREE ENERGY PREDICTED BY IDOCK:    4.01 KCAL/MOL
REMARK 924 INTRA-LIGAND FREE ENERGY PREDICTED BY IDOCK:   34.71 KCAL/MOL
REMARK 927      BINDING AFFINITY PREDICTED BY RF-SCORE:    0.00 PKD
ROOT
HETATM    1  C   UNL     1      -9.192   8.652  64.004  1.00  0.00     0.890 C  
HETATM    2  H   UNL     1      -8.327   8.453  62.280  1.00  0.00     0.000 HD 
HETATM    3  O   UNL     1      -8.321   9.114  62.963  1.00  0.00    -0.173 OA 
ENDROOT
BRANCH   1   4
HETATM    4  C   UNL     1      -8.818   7.229  64.516  1.00  0.00     0.672 C  
BRANCH   4   5
HETATM    5  C   UNL     1      -8.373   6.274  63.364  1.00  0.00     0.109 C  
HETATM    6  O   UNL     1      -8.357   4.904  63.793  1.00  0.00    -0.116 OA 
HETATM    7  H   UNL     1      -8.087   4.322  63.092  1.00  0.00     0.000 HD 
BRANCH   5   8
HETATM    8  C   UNL     1      -6.989   6.577  62.775  1.00  0.00    -0.043 C  
HETATM    9  C   UNL     1      -6.001   5.480  63.105  1.00  0.00    -0.018 C  
HETATM   10  O   UNL     1      -6.524   7.803  63.361  1.00  0.00    -0.061 OA 
HETATM   11  O   UNL     1      -5.820   4.507  62.376  1.00  0.00    -0.013 OA 
HETATM   12  H   UNL     1      -5.667   7.990  62.997  1.00  0.00     0.000 HD 
ENDBRANCH   5   8
ENDBRANCH   4   5
BRANCH   4  13
HETATM   13  O   UNL     1      -9.888   6.607  65.269  1.00  0.00     0.981 OA 
BRANCH  13  14
HETATM   14  C   UNL     1      -9.519   5.403  65.962  1.00  0.00    -0.146 C  
HETATM   15  H   UNL     1     -10.935   6.331  69.579  1.00  0.00     0.000 HD 
HETATM   16  O   UNL     1     -11.562   5.462  67.380  1.00  0.00     0.833 OA 
HETATM   17  C   UNL     1     -10.127   5.393  67.374  1.00  0.00    -0.185 C  
HETATM   18  O   UNL     1      -8.115   5.227  66.091  1.00  0.00    -0.107 OA 
HETATM   19  O   UNL     1      -9.987   6.396  69.554  1.00  0.00    -0.157 OA 
HETATM   20  C   UNL     1      -7.452   6.296  66.773  1.00  0.00    -0.087 C  
HETATM   21  H   UNL     1     -11.937   5.456  68.253  1.00  0.00     0.000 HD 
HETATM   22  C   UNL     1      -9.583   6.565  68.180  1.00  0.00    -0.123 C  
HETATM   23  C   UNL     1      -8.050   6.671  68.140  1.00  0.00    -0.111 C  
BRANCH  20  24
HETATM   24  C   UNL     1      -5.956   5.918  66.873  1.00  0.00    -0.018 C  
HETATM   25  O   UNL     1      -5.559   4.878  65.977  1.00  0.00    -0.016 OA 
HETATM   26  H   UNL     1      -4.640   4.646  66.040  1.00  0.00     0.000 HD 
ENDBRANCH  20  24
BRANCH  23  27
HETATM   27  O   UNL     1      -7.618   8.034  68.409  1.00  0.00    -0.103 OA 
BRANCH  27  28
HETATM   28  C   UNL     1      -8.422   8.704  69.387  1.00  0.00    -0.126 C  
HETATM   29  O   UNL     1      -8.429  10.105  69.155  1.00  0.00    -0.133 OA 
HETATM   30  C   UNL     1      -8.969  10.440  67.874  1.00  0.00    -0.128 C  
HETATM   31  C   UNL     1     -10.468  10.050  67.827  1.00  0.00    -0.234 C  
HETATM   32  C   UNL     1      -8.681  11.927  67.681  1.00  0.00    -0.162 C  
HETATM   33  C   UNL     1     -10.604   8.530  68.115  1.00  0.00    -0.124 C  
HETATM   34  H   UNL     1     -12.066   7.243  68.490  1.00  0.00     0.000 HD 
HETATM   35  C   UNL     1      -9.851   8.140  69.390  1.00  0.00    -0.182 C  
HETATM   36  O   UNL     1     -11.983   8.172  68.314  1.00  0.00     2.170 OA 
HETATM   37  O   UNL     1      -9.860   6.710  69.550  1.00  0.00    -0.152 OA 
HETATM   38  H   UNL     1     -10.743   6.361  69.552  1.00  0.00     0.000 HD 
BRANCH  31  39
HETATM   39  N   UNL     1     -11.058  10.478  66.536  1.00  0.00    -0.005 NA 
HETATM   40  H   UNL     1     -10.690  10.157  65.640  1.00  0.00     0.000 HD 
BRANCH  39  41
HETATM   41  C   UNL     1     -12.223  11.407  66.624  1.00  0.00     1.609 C  
HETATM   42  C   UNL     1     -12.489  12.895  68.655  1.00  0.00     0.450 C  
HETATM   43  C   UNL     1     -12.534  11.702  68.060  1.00  0.00     1.101 C  
HETATM   44  C   UNL     1     -12.203  14.150  67.876  1.00  0.00    -0.155 C  
HETATM   45  H   UNL     1     -10.248  13.457  64.957  1.00  0.00     0.000 HD 
HETATM   46  O   UNL     1     -10.458  12.694  65.482  1.00  0.00    -0.271 OA 
HETATM   47  C   UNL     1     -12.303  14.024  66.334  1.00  0.00    -0.431 C  
HETATM   48  O   UNL     1     -10.913  14.616  68.262  1.00  0.00    -0.240 OA 
HETATM   49  H   UNL     1     -13.703  14.233  64.957  1.00  0.00     0.000 HD 
HETATM   50  O   UNL     1     -13.643  14.311  65.903  1.00  0.00    -0.006 OA 
HETATM   51  C   UNL     1     -11.876  12.665  65.759  1.00  0.00    -0.444 C  
HETATM   52  H   UNL     1     -10.733  15.408  67.769  1.00  0.00     0.000 HD 
BRANCH  42  53
HETATM   53  C   UNL     1     -12.698  13.087  70.141  1.00  0.00     0.169 C  
HETATM   54  O   UNL     1     -11.549  12.723  70.899  1.00  0.00    -0.192 OA 
HETATM   55  H   UNL     1     -11.680  12.843  71.833  1.00  0.00     0.000 HD 
ENDBRANCH  42  53
ENDBRANCH  39  41
ENDBRANCH  31  39
ENDBRANCH  27  28
ENDBRANCH  23  27
ENDBRANCH  13  14
ENDBRANCH   4  13
ENDBRANCH   1   4
BRANCH   1  56
HETATM   56  C   UNL     1      -9.182   9.717  65.103  1.00  0.00    -0.246 C  
HETATM   57  O   UNL     1     -10.214   9.418  66.047  1.00  0.00    -0.269 OA 
HETATM   58  H   UNL     1     -10.208  10.079  66.730  1.00  0.00     0.000 HD 
ENDBRANCH   1  56
TORSDOF 12
ENDMDL
MODEL      309
REMARK 921   NORMALIZED FREE ENERGY PREDICTED BY IDOCK:   24.76 KCAL/MOL
REMARK 922        TOTAL FREE ENERGY PREDICTED BY IDOCK:   38.94 KCAL/MOL
REMARK 923 INTER-LIGAND FREE ENERGY PREDICTED BY IDOCK:    2.44 KCAL/MOL
REMARK 924 INTRA-LIGAND FREE ENERGY PREDICTED BY IDOCK:   36.50 KCAL/MOL
REMARK 927      BINDING AFFINITY PREDICTED BY RF-SCORE:    0.00 PKD
ROOT
HETATM    1  C   UNL     1     -10.350  12.609  67.911  1.00  0.00    -0.218 C  
HETATM    2  H   UNL     1      -9.504  12.081  69.573  1.00  0.00     0.000 HD 
HETATM    3  O   UNL     1     -10.293  12.557  69.342  1.00  0.00     0.208 OA 
ENDROOT
BRANCH   1   4
HETATM    4  C   UNL     1     -10.260  11.200  67.252  1.00  0.00    -0.193 C  
BRANCH   4   5
HETATM    5  C   UNL     1      -8.801  10.817  66.850  1.00  0.00    -0.140 C  
HETATM    6  O   UNL     1      -8.773   9.635  66.036  1.00  0.00    -0.132 OA 
HETATM    7  H   UNL     1      -7.885   9.401  65.791  1.00  0.00     0.000 HD 
BRANCH   5   8
HETATM    8  C   UNL     1      -7.852  10.572  68.031  1.00  0.00    -0.105 C  
HETATM    9  C   UNL     1      -6.535  11.289  67.833  1.00  0.00    -0.058 C  
HETATM   10  O   UNL     1      -7.598   9.160  68.102  1.00  0.00    -0.083 OA 
HETATM   11  O   UNL     1      -6.334  12.433  68.234  1.00  0.00    -0.051 OA 
HETATM   12  H   UNL     1      -7.010   9.009  68.833  1.00  0.00     0.000 HD 
ENDBRANCH   5   8
ENDBRANCH   4   5
BRANCH   4  13
HETATM   13  O   UNL     1     -11.126  11.066  66.099  1.00  0.00    -0.159 OA 
BRANCH  13  14
HETATM   14  C   UNL     1     -10.507  11.375  64.839  1.00  0.00    -0.305 C  
HETATM   15  H   UNL     1      -6.689  11.288  66.004  1.00  0.00     0.000 HD 
HETATM   16  O   UNL     1      -8.567   9.888  65.302  1.00  0.00    -0.140 OA 
HETATM   17  C   UNL     1      -8.981  11.216  64.941  1.00  0.00    -0.041 C  
HETATM   18  O   UNL     1     -10.778  12.691  64.377  1.00  0.00    -0.314 OA 
HETATM   19  O   UNL     1      -6.988  12.180  65.874  1.00  0.00     0.953 OA 
HETATM   20  C   UNL     1     -10.371  13.722  65.282  1.00  0.00    -0.361 C  
HETATM   21  H   UNL     1      -7.624   9.790  65.365  1.00  0.00     0.000 HD 
HETATM   22  C   UNL     1      -8.427  12.192  65.969  1.00  0.00     0.362 C  
HETATM   23  C   UNL     1      -8.910  13.636  65.759  1.00  0.00     0.976 C  
BRANCH  20  24
HETATM   24  C   UNL     1     -10.685  15.076  64.604  1.00  0.00    -0.217 C  
HETATM   25  O   UNL     1     -12.009  15.554  64.849  1.00  0.00    -0.099 OA 
HETATM   26  H   UNL     1     -12.201  16.386  64.433  1.00  0.00     0.000 HD 
ENDBRANCH  20  24
BRANCH  23  27
HETATM   27  O   UNL     1      -8.848  14.389  67.002  1.00  0.00    -0.219 OA 
BRANCH  27  28
HETATM   28  C   UNL     1      -9.127  15.784  66.838  1.00  0.00    -0.235 C  
HETATM   29  O   UNL     1     -10.473  16.069  67.189  1.00  0.00    -0.299 OA 
HETATM   30  C   UNL     1     -10.759  15.747  68.552  1.00  0.00    -0.274 C  
HETATM   31  C   UNL     1      -9.931  16.666  69.485  1.00  0.00    -0.091 C  
HETATM   32  C   UNL     1     -12.274  15.873  68.698  1.00  0.00     0.243 C  
HETATM   33  C   UNL     1      -8.422  16.482  69.167  1.00  0.00    -0.151 C  
HETATM   34  H   UNL     1      -6.713  17.368  69.645  1.00  0.00     0.000 HD 
HETATM   35  C   UNL     1      -8.151  16.632  67.669  1.00  0.00    -0.171 C  
HETATM   36  O   UNL     1      -7.636  17.481  69.840  1.00  0.00     0.665 OA 
HETATM   37  O   UNL     1      -6.781  16.304  67.379  1.00  0.00    -0.144 OA 
HETATM   38  H   UNL     1      -6.177  16.828  67.892  1.00  0.00     0.000 HD 
BRANCH  31  39
HETATM   39  N   UNL     1     -10.290  16.401  70.900  1.00  0.00     0.938 NA 
HETATM   40  H   UNL     1      -9.589  16.383  71.641  1.00  0.00     0.000 HD 
BRANCH  39  41
HETATM   41  C   UNL     1     -11.738  16.163  71.175  1.00  0.00    -0.407 C  
HETATM   42  C   UNL     1     -12.504  13.884  71.968  1.00  0.00    -0.198 C  
HETATM   43  C   UNL     1     -12.055  14.706  71.019  1.00  0.00    -0.393 C  
HETATM   44  C   UNL     1     -12.855  14.389  73.342  1.00  0.00    -0.174 C  
HETATM   45  H   UNL     1     -10.986  17.331  74.167  1.00  0.00     0.000 HD 
HETATM   46  O   UNL     1     -10.802  16.974  73.306  1.00  0.00     2.352 OA 
HETATM   47  C   UNL     1     -12.987  15.927  73.481  1.00  0.00    -0.594 C  
HETATM   48  O   UNL     1     -11.883  13.881  74.252  1.00  0.00     1.012 OA 
HETATM   49  H   UNL     1     -14.420  17.274  73.301  1.00  0.00     0.000 HD 
HETATM   50  O   UNL     1     -14.340  16.331  73.216  1.00  0.00    -0.147 OA 
HETATM   51  C   UNL     1     -12.040  16.749  72.594  1.00  0.00     0.079 C  
HETATM   52  H   UNL     1     -12.105  14.201  75.119  1.00  0.00     0.000 HD 
BRANCH  42  53
HETATM   53  C   UNL     1     -12.681  12.396  71.760  1.00  0.00    -0.144 C  
HETATM   54  O   UNL     1     -11.456  11.747  71.435  1.00  0.00     0.732 OA 
HETATM   55  H   UNL     1     -11.567  10.813  71.304  1.00  0.00     0.000 HD 
ENDBRANCH  42  53
ENDBRANCH  39  41
ENDBRANCH  31  39
ENDBRANCH  27  28
ENDBRANCH  23  27
ENDBRANCH  13  14
ENDBRANCH   4  13
ENDBRANCH   1   4
BRANCH   1  56
HETATM   56  C   UNL     1     -11.622  13.375  67.539  1.00  0.00    -0.344 C  
HETATM   57  O   UNL     1     -12.711  12.870  68.316  1.00  0.00     0.515 OA 
HETATM   58  H   UNL     1     -13.501  13.345  68.086  1.00  0.00     0.000 HD 
ENDBRANCH   1  56
TORSDOF 12
ENDMDL
MODEL      310
REMARK 921   NORMALIZED FREE ENERGY PREDICTED BY IDOCK:   26.25 KCAL/MOL
REMARK 922        TOTAL FREE ENERGY PREDICTED BY IDOCK:   41.46 KCAL/MOL
REMARK 923 INTER-LIGAND FREE ENERGY PREDICTED BY IDOCK:   -1.66 KCAL/MOL
REMARK 924 INTRA-LIGAND FREE ENERGY PREDICTED BY IDOCK:   43.13 KCAL/MOL
REMARK 927      BINDING AFFINITY PREDICTED BY RF-SCORE:    0.00 PKD
ROOT
HETATM    1  C   UNL     1      -8.270  14.497  69.621  1.00  0.00     0.327 C  
HETATM    2  H   UNL     1      -7.473  14.843  71.354  1.00  0.00     0.000 HD 
HETATM    3  O   UNL     1      -8.336  14.963  70.975  1.00  0.00     1.842 OA 
ENDROOT
BRANCH   1   4
HETATM    4  C   UNL     1      -7.741  13.035  69.512  1.00  0.00     0.828 C  
BRANCH   4   5
HETATM    5  C   UNL     1      -6.279  12.964  68.970  1.00  0.00    -0.095 C  
HETATM    6  O   UNL     1      -5.383  13.751  69.769  1.00  0.00    -0.085 OA 
HETATM    7  H   UNL     1      -4.493  13.708  69.440  1.00  0.00     0.000 HD 
BRANCH   5   8
HETATM    8  C   UNL     1      -6.108  13.426  67.517  1.00  0.00    -0.063 C  
HETATM    9  C   UNL     1      -6.544  14.864  67.343  1.00  0.00    -0.007 C  
HETATM   10  O   UNL     1      -6.940  12.593  66.693  1.00  0.00    -0.352 OA 
HETATM   11  O   UNL     1      -5.773  15.812  67.470  1.00  0.00    -0.206 OA 
HETATM   12  H   UNL     1      -6.834  12.879  65.793  1.00  0.00     0.000 HD 
ENDBRANCH   5   8
ENDBRANCH   4   5
BRANCH   4  13
HETATM   13  O   UNL     1      -8.595  12.192  68.701  1.00  0.00    -0.110 OA 
BRANCH  13  14
HETATM   14  C   UNL     1      -9.996  12.271  69.013  1.00  0.00     0.189 C  
HETATM   15  H   UNL     1     -11.177   8.830  67.365  1.00  0.00     0.000 HD 
HETATM   16  O   UNL     1     -10.169   9.814  69.364  1.00  0.00    -0.185 OA 
HETATM   17  C   UNL     1     -10.697  10.949  68.659  1.00  0.00    -0.203 C  
HETATM   18  O   UNL     1     -10.674  13.318  68.335  1.00  0.00    -0.242 OA 
HETATM   19  O   UNL     1     -11.436   9.573  66.832  1.00  0.00     0.578 OA 
HETATM   20  C   UNL     1     -10.590  13.241  66.908  1.00  0.00    -0.264 C  
HETATM   21  H   UNL     1     -10.602   8.997  69.145  1.00  0.00     0.000 HD 
HETATM   22  C   UNL     1     -10.580  10.686  67.164  1.00  0.00    -0.260 C  
HETATM   23  C   UNL     1     -10.999  11.887  66.301  1.00  0.00    -0.302 C  
BRANCH  20  24
HETATM   24  C   UNL     1     -11.420  14.412  66.335  1.00  0.00    -0.360 C  
HETATM   25  O   UNL     1     -12.807  14.112  66.168  1.00  0.00    -0.502 OA 
HETATM   26  H   UNL     1     -13.317  14.833  65.816  1.00  0.00     0.000 HD 
ENDBRANCH  20  24
BRANCH  23  27
HETATM   27  O   UNL     1     -10.369  11.827  64.990  1.00  0.00    -0.257 OA 
BRANCH  27  28
HETATM   28  C   UNL     1      -8.998  11.414  65.035  1.00  0.00     0.068 C  
HETATM   29  O   UNL     1      -8.538  11.352  66.377  1.00  0.00    -0.175 OA 
HETATM   30  C   UNL     1      -9.280  10.415  67.163  1.00  0.00    -0.143 C  
HETATM   31  C   UNL     1      -9.039   8.983  66.622  1.00  0.00    -0.160 C  
HETATM   32  C   UNL     1      -8.839  10.644  68.606  1.00  0.00    -0.151 C  
HETATM   33  C   UNL     1      -9.464   8.927  65.129  1.00  0.00     0.168 C  
HETATM   34  H   UNL     1      -9.300   7.658  63.613  1.00  0.00     0.000 HD 
HETATM   35  C   UNL     1      -8.818  10.061  64.329  1.00  0.00    -0.220 C  
HETATM   36  O   UNL     1      -9.040   7.692  64.526  1.00  0.00     0.652 OA 
HETATM   37  O   UNL     1      -9.346  10.084  62.991  1.00  0.00    -0.287 OA 
HETATM   38  H   UNL     1      -9.235   9.248  62.554  1.00  0.00     0.000 HD 
BRANCH  31  39
HETATM   39  N   UNL     1      -9.731   7.996  67.487  1.00  0.00    -0.152 NA 
HETATM   40  H   UNL     1     -10.352   8.283  68.244  1.00  0.00     0.000 HD 
BRANCH  39  41
HETATM   41  C   UNL     1      -9.464   6.559  67.185  1.00  0.00    -0.131 C  
HETATM   42  C   UNL     1      -7.161   5.595  67.607  1.00  0.00    -0.076 C  
HETATM   43  C   UNL     1      -8.005   6.356  66.909  1.00  0.00    -0.109 C  
HETATM   44  C   UNL     1      -7.640   4.735  68.745  1.00  0.00    -0.069 C  
HETATM   45  H   UNL     1     -10.599   6.083  70.245  1.00  0.00     0.000 HD 
HETATM   46  O   UNL     1     -10.259   6.590  69.518  1.00  0.00    -0.174 OA 
HETATM   47  C   UNL     1      -9.174   4.527  68.835  1.00  0.00    -0.134 C  
HETATM   48  O   UNL     1      -7.135   5.295  69.954  1.00  0.00    -0.058 OA 
HETATM   49  H   UNL     1     -10.499   3.244  68.130  1.00  0.00     0.000 HD 
HETATM   50  O   UNL     1      -9.559   3.371  68.074  1.00  0.00    -0.182 OA 
HETATM   51  C   UNL     1     -10.024   5.724  68.384  1.00  0.00    -0.153 C  
HETATM   52  H   UNL     1      -7.437   4.751  70.673  1.00  0.00     0.000 HD 
BRANCH  42  53
HETATM   53  C   UNL     1      -5.674   5.543  67.336  1.00  0.00    -0.013 C  
HETATM   54  O   UNL     1      -5.267   4.287  66.802  1.00  0.00    -0.011 OA 
HETATM   55  H   UNL     1      -4.332   4.255  66.632  1.00  0.00     0.000 HD 
ENDBRANCH  42  53
ENDBRANCH  39  41
ENDBRANCH  31  39
ENDBRANCH  27  28
ENDBRANCH  23  27
ENDBRANCH  13  14
ENDBRANCH   4  13
ENDBRANCH   1   4
BRANCH   1  56
HETATM   56  C   UNL     1      -9.660  14.689  69.012  1.00  0.00    -0.145 C  
HETATM   57  O   UNL     1     -10.447  15.491  69.896  1.00  0.00    -0.279 OA 
HETATM   58  H   UNL     1     -11.311  15.610  69.517  1.00  0.00     0.000 HD 
ENDBRANCH   1  56
TORSDOF 12
ENDMDL
MODEL      311
REMARK 921   NORMALIZED FREE ENERGY PREDICTED BY IDOCK:   26.46 KCAL/MOL
REMARK 922        TOTAL FREE ENERGY PREDICTED BY IDOCK:   41.83 KCAL/MOL
REMARK 923 INTER-LIGAND FREE ENERGY PREDICTED BY IDOCK:   16.74 KCAL/MOL
REMARK 924 INTRA-LIGAND FREE ENERGY PREDICTED BY IDOCK:   25.09 KCAL/MOL
REMARK 927      BINDING AFFINITY PREDICTED BY RF-SCORE:    0.00 PKD
ROOT
HETATM    1  C   UNL     1      -8.643  13.437  67.489  1.00  0.00    -0.200 C  
HETATM    2  H   UNL     1     -10.564  13.224  67.644  1.00  0.00     0.000 HD 
HETATM    3  O   UNL     1      -9.938  13.176  66.931  1.00  0.00    -0.235 OA 
ENDROOT
BRANCH   1   4
HETATM    4  C   UNL     1      -8.299  12.494  68.681  1.00  0.00     0.021 C  
BRANCH   4   5
HETATM    5  C   UNL     1      -9.570  11.990  69.434  1.00  0.00     0.867 C  
HETATM    6  O   UNL     1     -10.439  11.249  68.563  1.00  0.00    -0.181 OA 
HETATM    7  H   UNL     1     -11.212  10.942  69.021  1.00  0.00     0.000 HD 
BRANCH   5   8
HETATM    8  C   UNL     1     -10.417  13.095  70.079  1.00  0.00     1.479 C  
HETATM    9  C   UNL     1      -9.584  13.957  71.001  1.00  0.00     5.489 C  
HETATM   10  O   UNL     1     -11.447  12.460  70.853  1.00  0.00     0.088 OA 
HETATM   11  O   UNL     1      -9.004  14.971  70.620  1.00  0.00     0.950 OA 
HETATM   12  H   UNL     1     -11.971  13.144  71.252  1.00  0.00     0.000 HD 
ENDBRANCH   5   8
ENDBRANCH   4   5
BRANCH   4  13
HETATM   13  O   UNL     1      -7.389  13.103  69.629  1.00  0.00     0.324 OA 
BRANCH  13  14
HETATM   14  C   UNL     1      -6.298  12.264  70.043  1.00  0.00    -0.019 C  
HETATM   15  H   UNL     1      -5.530  10.501  66.543  1.00  0.00     0.000 HD 
HETATM   16  O   UNL     1      -5.129  12.520  67.862  1.00  0.00    -0.070 OA 
HETATM   17  C   UNL     1      -5.651  11.588  68.822  1.00  0.00    -0.042 C  
HETATM   18  O   UNL     1      -6.676  11.244  70.956  1.00  0.00     0.425 OA 
HETATM   19  O   UNL     1      -5.977   9.908  67.135  1.00  0.00    -0.051 OA 
HETATM   20  C   UNL     1      -7.688  10.361  70.459  1.00  0.00     0.761 C  
HETATM   21  H   UNL     1      -4.730  12.103  67.107  1.00  0.00     0.000 HD 
HETATM   22  C   UNL     1      -6.669  10.696  68.125  1.00  0.00    -0.064 C  
HETATM   23  C   UNL     1      -7.393   9.737  69.083  1.00  0.00    -0.079 C  
BRANCH  20  24
HETATM   24  C   UNL     1      -7.936   9.290  71.545  1.00  0.00     0.297 C  
HETATM   25  O   UNL     1      -6.878   8.339  71.675  1.00  0.00    -0.057 OA 
HETATM   26  H   UNL     1      -7.031   7.681  72.343  1.00  0.00     0.000 HD 
ENDBRANCH  20  24
BRANCH  23  27
HETATM   27  O   UNL     1      -8.682   9.336  68.539  1.00  0.00    -0.127 OA 
BRANCH  27  28
HETATM   28  C   UNL     1      -8.585   8.317  67.536  1.00  0.00    -0.129 C  
HETATM   29  O   UNL     1      -9.844   8.104  66.915  1.00  0.00    -0.200 OA 
HETATM   30  C   UNL     1     -10.334   9.280  66.266  1.00  0.00    -0.122 C  
HETATM   31  C   UNL     1      -9.398   9.648  65.087  1.00  0.00    -0.259 C  
HETATM   32  C   UNL     1     -11.775   8.965  65.872  1.00  0.00     6.511 C  
HETATM   33  C   UNL     1      -7.959   9.864  65.632  1.00  0.00    -0.130 C  
HETATM   34  H   UNL     1      -6.138  10.106  64.885  1.00  0.00     0.000 HD 
HETATM   35  C   UNL     1      -7.514   8.682  66.497  1.00  0.00    -0.088 C  
HETATM   36  O   UNL     1      -7.018   9.974  64.551  1.00  0.00    -0.130 OA 
HETATM   37  O   UNL     1      -6.248   8.973  67.116  1.00  0.00    -0.057 OA 
HETATM   38  H   UNL     1      -5.586   9.199  66.474  1.00  0.00     0.000 HD 
BRANCH  31  39
HETATM   39  N   UNL     1      -9.949  10.812  64.351  1.00  0.00    -0.312 NA 
HETATM   40  H   UNL     1      -9.663  11.033  63.397  1.00  0.00     0.000 HD 
BRANCH  39  41
HETATM   41  C   UNL     1     -10.947  11.641  65.089  1.00  0.00    -0.266 C  
HETATM   42  C   UNL     1     -10.932  14.158  64.817  1.00  0.00    -0.409 C  
HETATM   43  C   UNL     1     -10.411  13.025  65.292  1.00  0.00    -0.318 C  
HETATM   44  C   UNL     1     -12.240  14.168  64.073  1.00  0.00    -0.332 C  
HETATM   45  H   UNL     1     -12.852  11.026  62.467  1.00  0.00     0.000 HD 
HETATM   46  O   UNL     1     -12.037  11.069  62.954  1.00  0.00     0.678 OA 
HETATM   47  C   UNL     1     -13.090  12.877  64.187  1.00  0.00     0.295 C  
HETATM   48  O   UNL     1     -11.961  14.469  62.709  1.00  0.00     0.476 OA 
HETATM   49  H   UNL     1     -14.493  12.175  65.387  1.00  0.00     0.000 HD 
HETATM   50  O   UNL     1     -13.972  12.967  65.318  1.00  0.00     0.767 OA 
HETATM   51  C   UNL     1     -12.289  11.571  64.286  1.00  0.00     0.244 C  
HETATM   52  H   UNL     1     -12.787  14.476  62.239  1.00  0.00     0.000 HD 
BRANCH  42  53
HETATM   53  C   UNL     1     -10.259  15.505  64.964  1.00  0.00    -0.216 C  
HETATM   54  O   UNL     1      -9.885  15.777  66.311  1.00  0.00    -0.257 OA 
HETATM   55  H   UNL     1      -9.463  16.624  66.403  1.00  0.00     0.000 HD 
ENDBRANCH  42  53
ENDBRANCH  39  41
ENDBRANCH  31  39
ENDBRANCH  27  28
ENDBRANCH  23  27
ENDBRANCH  13  14
ENDBRANCH   4  13
ENDBRANCH   1   4
BRANCH   1  56
HETATM   56  C   UNL     1      -7.635  13.359  66.340  1.00  0.00     1.687 C  
HETATM   57  O   UNL     1      -6.334  13.674  66.843  1.00  0.00    -0.269 OA 
HETATM   58  H   UNL     1      -5.708  13.625  66.129  1.00  0.00     0.000 HD 
ENDBRANCH   1  56
TORSDOF 12
ENDMDL
MODEL      312
REMARK 921   NORMALIZED FREE ENERGY PREDICTED BY IDOCK:   27.21 KCAL/MOL
REMARK 922        TOTAL FREE ENERGY PREDICTED BY IDOCK:   43.10 KCAL/MOL
REMARK 923 INTER-LIGAND FREE ENERGY PREDICTED BY IDOCK:    0.16 KCAL/MOL
REMARK 924 INTRA-LIGAND FREE ENERGY PREDICTED BY IDOCK:   42.95 KCAL/MOL
REMARK 927      BINDING AFFINITY PREDICTED BY RF-SCORE:    0.00 PKD
ROOT
HETATM    1  C   UNL     1      -9.176   8.665  63.972  1.00  0.00     0.890 C  
HETATM    2  H   UNL     1      -8.314   8.084  62.336  1.00  0.00     0.000 HD 
HETATM    3  O   UNL     1      -8.225   8.834  62.913  1.00  0.00    -0.173 OA 
ENDROOT
BRANCH   1   4
HETATM    4  C   UNL     1      -9.027   7.298  64.705  1.00  0.00     0.812 C  
BRANCH   4   5
HETATM    5  C   UNL     1      -8.768   6.114  63.720  1.00  0.00     0.458 C  
HETATM    6  O   UNL     1      -8.954   4.845  64.365  1.00  0.00    -0.213 OA 
HETATM    7  H   UNL     1      -8.797   4.124  63.766  1.00  0.00     0.000 HD 
BRANCH   5   8
HETATM    8  C   UNL     1      -7.371   6.097  63.087  1.00  0.00    -0.062 C  
HETATM    9  C   UNL     1      -6.555   4.928  63.590  1.00  0.00    -0.037 C  
HETATM   10  O   UNL     1      -6.706   7.314  63.463  1.00  0.00    -0.051 OA 
HETATM   11  O   UNL     1      -6.546   3.833  63.031  1.00  0.00    -0.028 OA 
HETATM   12  H   UNL     1      -5.841   7.303  63.070  1.00  0.00     0.000 HD 
ENDBRANCH   5   8
ENDBRANCH   4   5
BRANCH   4  13
HETATM   13  O   UNL     1     -10.166   6.986  65.543  1.00  0.00     1.271 OA 
BRANCH  13  14
HETATM   14  C   UNL     1      -9.947   5.926  66.490  1.00  0.00    -0.153 C  
HETATM   15  H   UNL     1     -10.719   7.948  69.846  1.00  0.00     0.000 HD 
HETATM   16  O   UNL     1     -11.757   6.744  67.988  1.00  0.00    -0.358 OA 
HETATM   17  C   UNL     1     -10.372   6.374  67.898  1.00  0.00    -0.190 C  
HETATM   18  O   UNL     1      -8.597   5.493  66.559  1.00  0.00    -0.116 OA 
HETATM   19  O   UNL     1      -9.786   7.804  69.739  1.00  0.00    -0.174 OA 
HETATM   20  C   UNL     1      -7.668   6.527  66.900  1.00  0.00    -0.100 C  
HETATM   21  H   UNL     1     -12.019   7.021  68.859  1.00  0.00     0.000 HD 
HETATM   22  C   UNL     1      -9.525   7.560  68.341  1.00  0.00    -0.148 C  
HETATM   23  C   UNL     1      -8.016   7.327  68.168  1.00  0.00    -0.123 C  
BRANCH  20  24
HETATM   24  C   UNL     1      -6.268   5.876  66.987  1.00  0.00    -0.030 C  
HETATM   25  O   UNL     1      -5.191   6.813  66.965  1.00  0.00    -0.008 OA 
HETATM   26  H   UNL     1      -4.331   6.413  67.018  1.00  0.00     0.000 HD 
ENDBRANCH  20  24
BRANCH  23  27
HETATM   27  O   UNL     1      -7.308   8.593  68.052  1.00  0.00    -0.089 OA 
BRANCH  27  28
HETATM   28  C   UNL     1      -8.024   9.700  68.611  1.00  0.00    -0.089 C  
HETATM   29  O   UNL     1      -9.425   9.500  68.495  1.00  0.00    -0.140 OA 
HETATM   30  C   UNL     1      -9.865   8.328  69.186  1.00  0.00    -0.179 C  
HETATM   31  C   UNL     1      -9.643   8.513  70.709  1.00  0.00    -0.180 C  
HETATM   32  C   UNL     1     -11.318   8.120  68.765  1.00  0.00     0.684 C  
HETATM   33  C   UNL     1      -8.137   8.789  70.971  1.00  0.00    -0.156 C  
HETATM   34  H   UNL     1      -7.004   9.367  72.493  1.00  0.00     0.000 HD 
HETATM   35  C   UNL     1      -7.620   9.919  70.078  1.00  0.00    -0.172 C  
HETATM   36  O   UNL     1      -7.925   9.198  72.333  1.00  0.00    -0.231 OA 
HETATM   37  O   UNL     1      -6.195  10.051  70.224  1.00  0.00    -0.069 OA 
HETATM   38  H   UNL     1      -5.945  10.186  71.130  1.00  0.00     0.000 HD 
BRANCH  31  39
HETATM   39  N   UNL     1     -10.182   7.340  71.441  1.00  0.00    -0.189 NA 
HETATM   40  H   UNL     1      -9.805   6.401  71.309  1.00  0.00     0.000 HD 
BRANCH  39  41
HETATM   41  C   UNL     1     -11.306   7.616  72.383  1.00  0.00    -0.329 C  
HETATM   42  C   UNL     1     -12.842   9.583  71.959  1.00  0.00    -0.499 C  
HETATM   43  C   UNL     1     -11.670   9.069  72.334  1.00  0.00    -0.171 C  
HETATM   44  C   UNL     1     -14.016   8.702  71.628  1.00  0.00    -0.401 C  
HETATM   45  H   UNL     1     -12.946   5.485  70.472  1.00  0.00     0.000 HD 
HETATM   46  O   UNL     1     -12.239   6.079  70.697  1.00  0.00     0.275 OA 
HETATM   47  C   UNL     1     -13.890   7.219  72.066  1.00  0.00    -0.122 C  
HETATM   48  O   UNL     1     -14.247   8.795  70.225  1.00  0.00     0.439 OA 
HETATM   49  H   UNL     1     -14.331   6.145  73.663  1.00  0.00     0.000 HD 
HETATM   50  O   UNL     1     -14.408   7.054  73.396  1.00  0.00     1.814 OA 
HETATM   51  C   UNL     1     -12.470   6.638  72.011  1.00  0.00    -0.244 C  
HETATM   52  H   UNL     1     -14.988   8.238  70.017  1.00  0.00     0.000 HD 
BRANCH  42  53
HETATM   53  C   UNL     1     -13.088  11.070  71.818  1.00  0.00    -0.449 C  
HETATM   54  O   UNL     1     -12.531  11.597  70.619  1.00  0.00    -0.333 OA 
HETATM   55  H   UNL     1     -12.685  12.531  70.531  1.00  0.00     0.000 HD 
ENDBRANCH  42  53
ENDBRANCH  39  41
ENDBRANCH  31  39
ENDBRANCH  27  28
ENDBRANCH  23  27
ENDBRANCH  13  14
ENDBRANCH   4  13
ENDBRANCH   1   4
BRANCH   1  56
HETATM   56  C   UNL     1      -9.032   9.873  64.901  1.00  0.00    -0.207 C  
HETATM   57  O   UNL     1     -10.114   9.869  65.837  1.00  0.00    -0.271 OA 
HETATM   58  H   UNL     1     -10.024  10.618  66.415  1.00  0.00     0.000 HD 
ENDBRANCH   1  56
TORSDOF 12
ENDMDL
MODEL      313
REMARK 921   NORMALIZED FREE ENERGY PREDICTED BY IDOCK:   28.50 KCAL/MOL
REMARK 922        TOTAL FREE ENERGY PREDICTED BY IDOCK:   45.31 KCAL/MOL
REMARK 923 INTER-LIGAND FREE ENERGY PREDICTED BY IDOCK:   -5.53 KCAL/MOL
REMARK 924 INTRA-LIGAND FREE ENERGY PREDICTED BY IDOCK:   50.84 KCAL/MOL
REMARK 927      BINDING AFFINITY PREDICTED BY RF-SCORE:    0.00 PKD
ROOT
HETATM    1  C   UNL     1      -9.925   7.394  73.089  1.00  0.00    -0.268 C  
HETATM    2  H   UNL     1      -9.902   9.322  72.890  1.00  0.00     0.000 HD 
HETATM    3  O   UNL     1      -9.567   8.709  73.534  1.00  0.00     0.269 OA 
ENDROOT
BRANCH   1   4
HETATM    4  C   UNL     1      -9.440   7.096  71.638  1.00  0.00    -0.152 C  
BRANCH   4   5
HETATM    5  C   UNL     1      -9.338   5.567  71.341  1.00  0.00    -0.147 C  
HETATM    6  O   UNL     1      -9.346   5.304  69.929  1.00  0.00    -0.130 OA 
HETATM    7  H   UNL     1      -9.284   4.373  69.748  1.00  0.00     0.000 HD 
BRANCH   5   8
HETATM    8  C   UNL     1     -10.451   4.715  71.963  1.00  0.00    -0.128 C  
HETATM    9  C   UNL     1     -10.808   5.205  73.349  1.00  0.00    -0.302 C  
HETATM   10  O   UNL     1      -9.964   3.368  72.067  1.00  0.00    -0.163 OA 
HETATM   11  O   UNL     1     -11.682   6.045  73.552  1.00  0.00     0.447 OA 
HETATM   12  H   UNL     1     -10.654   2.840  72.452  1.00  0.00     0.000 HD 
ENDBRANCH   5   8
ENDBRANCH   4   5
BRANCH   4  13
HETATM   13  O   UNL     1      -8.175   7.731  71.330  1.00  0.00    -0.096 OA 
BRANCH  13  14
HETATM   14  C   UNL     1      -8.246   9.150  71.117  1.00  0.00    -0.087 C  
HETATM   15  H   UNL     1     -12.171   9.464  70.451  1.00  0.00     0.000 HD 
HETATM   16  O   UNL     1     -10.476   9.314  72.207  1.00  0.00    -0.019 OA 
HETATM   17  C   UNL     1      -9.713   9.603  71.025  1.00  0.00     0.019 C  
HETATM   18  O   UNL     1      -7.582   9.584  69.938  1.00  0.00    -0.090 OA 
HETATM   19  O   UNL     1     -11.679   9.546  69.643  1.00  0.00     0.034 OA 
HETATM   20  C   UNL     1      -8.069   8.977  68.737  1.00  0.00    -0.105 C  
HETATM   21  H   UNL     1     -11.383   9.593  72.150  1.00  0.00     0.000 HD 
HETATM   22  C   UNL     1     -10.388   8.931  69.837  1.00  0.00    -0.206 C  
HETATM   23  C   UNL     1      -9.591   9.064  68.530  1.00  0.00    -0.153 C  
BRANCH  20  24
HETATM   24  C   UNL     1      -7.283   9.598  67.559  1.00  0.00    -0.090 C  
HETATM   25  O   UNL     1      -6.090   8.889  67.220  1.00  0.00    -0.056 OA 
HETATM   26  H   UNL     1      -5.607   9.271  66.496  1.00  0.00     0.000 HD 
ENDBRANCH  20  24
BRANCH  23  27
HETATM   27  O   UNL     1      -9.933   7.994  67.604  1.00  0.00    -0.157 OA 
BRANCH  27  28
HETATM   28  C   UNL     1      -9.542   8.264  66.253  1.00  0.00    -0.196 C  
HETATM   29  O   UNL     1     -10.223   9.406  65.754  1.00  0.00    -0.231 OA 
HETATM   30  C   UNL     1      -9.937  10.584  66.512  1.00  0.00    -0.214 C  
HETATM   31  C   UNL     1      -8.439  10.948  66.354  1.00  0.00    -0.163 C  
HETATM   32  C   UNL     1     -10.916  11.645  66.015  1.00  0.00    -0.338 C  
HETATM   33  C   UNL     1      -7.574   9.749  66.828  1.00  0.00    -0.095 C  
HETATM   34  H   UNL     1      -5.664   9.216  66.772  1.00  0.00     0.000 HD 
HETATM   35  C   UNL     1      -8.020   8.447  66.158  1.00  0.00    -0.100 C  
HETATM   36  O   UNL     1      -6.192   9.950  66.482  1.00  0.00    -0.065 OA 
HETATM   37  O   UNL     1      -7.312   7.331  66.726  1.00  0.00    -0.084 OA 
HETATM   38  H   UNL     1      -6.371   7.444  66.668  1.00  0.00     0.000 HD 
BRANCH  31  39
HETATM   39  N   UNL     1      -8.154  12.220  67.062  1.00  0.00    -0.276 NA 
HETATM   40  H   UNL     1      -7.343  12.329  67.673  1.00  0.00     0.000 HD 
BRANCH  39  41
HETATM   41  C   UNL     1      -9.122  13.332  66.829  1.00  0.00    -0.210 C  
HETATM   42  C   UNL     1     -10.638  14.089  68.709  1.00  0.00    -0.260 C  
HETATM   43  C   UNL     1     -10.279  13.209  67.773  1.00  0.00    -0.231 C  
HETATM   44  C   UNL     1      -9.940  15.414  68.849  1.00  0.00    -0.219 C  
HETATM   45  H   UNL     1      -6.566  15.244  67.661  1.00  0.00     0.000 HD 
HETATM   46  O   UNL     1      -7.051  14.430  67.591  1.00  0.00    -0.160 OA 
HETATM   47  C   UNL     1      -9.035  15.829  67.660  1.00  0.00    -0.187 C  
HETATM   48  O   UNL     1      -9.196  15.387  70.064  1.00  0.00    -0.363 OA 
HETATM   49  H   UNL     1      -9.245  16.824  65.968  1.00  0.00     0.000 HD 
HETATM   50  O   UNL     1      -9.800  16.570  66.696  1.00  0.00    -0.244 OA 
HETATM   51  C   UNL     1      -8.322  14.672  66.945  1.00  0.00    -0.126 C  
HETATM   52  H   UNL     1      -8.755  16.224  70.152  1.00  0.00     0.000 HD 
BRANCH  42  53
HETATM   53  C   UNL     1     -11.747  13.831  69.706  1.00  0.00    -0.302 C  
HETATM   54  O   UNL     1     -12.732  12.938  69.199  1.00  0.00     0.418 OA 
HETATM   55  H   UNL     1     -13.428  12.776  69.825  1.00  0.00     0.000 HD 
ENDBRANCH  42  53
ENDBRANCH  39  41
ENDBRANCH  31  39
ENDBRANCH  27  28
ENDBRANCH  23  27
ENDBRANCH  13  14
ENDBRANCH   4  13
ENDBRANCH   1   4
BRANCH   1  56
HETATM   56  C   UNL     1      -9.385   6.406  74.126  1.00  0.00    -0.177 C  
HETATM   57  O   UNL     1      -8.052   6.786  74.478  1.00  0.00    -0.123 OA 
HETATM   58  H   UNL     1      -7.717   6.172  75.122  1.00  0.00     0.000 HD 
ENDBRANCH   1  56
TORSDOF 12
ENDMDL
MODEL      314
REMARK 921   NORMALIZED FREE ENERGY PREDICTED BY IDOCK:   31.97 KCAL/MOL
REMARK 922        TOTAL FREE ENERGY PREDICTED BY IDOCK:   51.20 KCAL/MOL
REMARK 923 INTER-LIGAND FREE ENERGY PREDICTED BY IDOCK:   23.47 KCAL/MOL
REMARK 924 INTRA-LIGAND FREE ENERGY PREDICTED BY IDOCK:   27.73 KCAL/MOL
REMARK 927      BINDING AFFINITY PREDICTED BY RF-SCORE:    0.00 PKD
ROOT
HETATM    1  C   UNL     1     -11.248   6.576  69.557  1.00  0.00    -0.372 C  
HETATM    2  H   UNL     1     -12.909   6.531  70.554  1.00  0.00     0.000 HD 
HETATM    3  O   UNL     1     -12.278   5.880  70.269  1.00  0.00     0.707 OA 
ENDROOT
BRANCH   1   4
HETATM    4  C   UNL     1     -10.615   7.732  70.388  1.00  0.00    -0.227 C  
BRANCH   4   5
HETATM    5  C   UNL     1      -9.922   7.225  71.692  1.00  0.00    -0.180 C  
HETATM    6  O   UNL     1     -10.248   5.853  71.961  1.00  0.00    -0.190 OA 
HETATM    7  H   UNL     1      -9.827   5.544  72.755  1.00  0.00     0.000 HD 
BRANCH   5   8
HETATM    8  C   UNL     1     -10.266   8.025  72.955  1.00  0.00    -0.286 C  
HETATM    9  C   UNL     1     -11.730   8.400  72.986  1.00  0.00     0.295 C  
HETATM   10  O   UNL     1      -9.486   9.231  72.934  1.00  0.00     0.610 OA 
HETATM   11  O   UNL     1     -12.588   7.690  73.507  1.00  0.00     1.278 OA 
HETATM   12  H   UNL     1      -9.698   9.726  73.717  1.00  0.00     0.000 HD 
ENDBRANCH   5   8
ENDBRANCH   4   5
BRANCH   4  13
HETATM   13  O   UNL     1     -11.570   8.767  70.723  1.00  0.00    -0.281 OA 
BRANCH  13  14
HETATM   14  C   UNL     1     -12.661   8.906  69.798  1.00  0.00     2.075 C  
HETATM   15  H   UNL     1     -10.639   8.364  66.397  1.00  0.00     0.000 HD 
HETATM   16  O   UNL     1     -11.716   7.197  68.257  1.00  0.00     0.039 OA 
HETATM   17  C   UNL     1     -12.203   8.543  68.375  1.00  0.00     4.264 C  
HETATM   18  O   UNL     1     -13.212  10.215  69.758  1.00  0.00     0.207 OA 
HETATM   19  O   UNL     1     -10.862   9.279  66.521  1.00  0.00    -0.023 OA 
HETATM   20  C   UNL     1     -12.269  11.235  69.415  1.00  0.00    -0.247 C  
HETATM   21  H   UNL     1     -11.433   6.973  67.378  1.00  0.00     0.000 HD 
HETATM   22  C   UNL     1     -11.104   9.497  67.927  1.00  0.00     0.011 C  
HETATM   23  C   UNL     1     -11.464  10.977  68.129  1.00  0.00    -0.302 C  
BRANCH  20  24
HETATM   24  C   UNL     1     -13.041  12.574  69.362  1.00  0.00     1.853 C  
HETATM   25  O   UNL     1     -13.532  12.909  68.063  1.00  0.00     3.062 OA 
HETATM   26  H   UNL     1     -14.007  13.731  68.031  1.00  0.00     0.000 HD 
ENDBRANCH  20  24
BRANCH  23  27
HETATM   27  O   UNL     1     -10.262  11.792  68.236  1.00  0.00    -0.192 OA 
BRANCH  27  28
HETATM   28  C   UNL     1     -10.035  12.300  69.556  1.00  0.00     0.999 C  
HETATM   29  O   UNL     1      -8.751  12.900  69.646  1.00  0.00     1.394 OA 
HETATM   30  C   UNL     1      -8.602  14.001  68.746  1.00  0.00    -0.032 C  
HETATM   31  C   UNL     1      -9.571  15.138  69.155  1.00  0.00    -0.232 C  
HETATM   32  C   UNL     1      -7.120  14.369  68.785  1.00  0.00    -0.114 C  
HETATM   33  C   UNL     1     -11.026  14.593  69.141  1.00  0.00    -0.262 C  
HETATM   34  H   UNL     1     -12.818  15.206  69.729  1.00  0.00     0.000 HD 
HETATM   35  C   UNL     1     -11.137  13.297  69.948  1.00  0.00     0.246 C  
HETATM   36  O   UNL     1     -11.929  15.540  69.737  1.00  0.00    -0.333 OA 
HETATM   37  O   UNL     1     -12.449  12.729  69.791  1.00  0.00    -0.076 OA 
HETATM   38  H   UNL     1     -13.131  13.345  70.033  1.00  0.00     0.000 HD 
BRANCH  31  39
HETATM   39  N   UNL     1      -9.358  16.319  68.283  1.00  0.00    -0.200 NA 
HETATM   40  H   UNL     1      -8.426  16.691  68.096  1.00  0.00     0.000 HD 
BRANCH  39  41
HETATM   41  C   UNL     1     -10.585  16.931  67.695  1.00  0.00    -0.325 C  
HETATM   42  C   UNL     1     -10.422  19.142  66.472  1.00  0.00    -0.534 C  
HETATM   43  C   UNL     1     -10.417  18.417  67.591  1.00  0.00    -0.445 C  
HETATM   44  C   UNL     1     -10.716  18.518  65.135  1.00  0.00     0.852 C  
HETATM   45  H   UNL     1      -9.838  15.046  65.094  1.00  0.00     0.000 HD 
HETATM   46  O   UNL     1      -9.674  15.485  65.920  1.00  0.00    -0.310 OA 
HETATM   47  C   UNL     1     -11.332  17.095  65.176  1.00  0.00     0.582 C  
HETATM   48  O   UNL     1      -9.508  18.522  64.378  1.00  0.00     4.649 OA 
HETATM   49  H   UNL     1     -13.143  16.310  65.241  1.00  0.00     0.000 HD 
HETATM   50  O   UNL     1     -12.766  17.182  65.216  1.00  0.00     4.503 OA 
HETATM   51  C   UNL     1     -10.856  16.208  66.334  1.00  0.00    -0.131 C  
HETATM   52  H   UNL     1      -9.694  18.128  63.534  1.00  0.00     0.000 HD 
BRANCH  42  53
HETATM   53  C   UNL     1     -10.120  20.624  66.444  1.00  0.00     0.089 C  
HETATM   54  O   UNL     1     -10.632  21.256  65.275  1.00  0.00     1.432 OA 
HETATM   55  H   UNL     1     -10.442  22.187  65.257  1.00  0.00     0.000 HD 
ENDBRANCH  42  53
ENDBRANCH  39  41
ENDBRANCH  31  39
ENDBRANCH  27  28
ENDBRANCH  23  27
ENDBRANCH  13  14
ENDBRANCH   4  13
ENDBRANCH   1   4
BRANCH   1  56
HETATM   56  C   UNL     1     -10.231   5.527  69.099  1.00  0.00    -0.239 C  
HETATM   57  O   UNL     1      -9.301   5.290  70.160  1.00  0.00    -0.142 OA 
HETATM   58  H   UNL     1      -8.670   4.639  69.876  1.00  0.00     0.000 HD 
ENDBRANCH   1  56
TORSDOF 12
ENDMDL
MODEL      315
REMARK 921   NORMALIZED FREE ENERGY PREDICTED BY IDOCK:   32.86 KCAL/MOL
REMARK 922        TOTAL FREE ENERGY PREDICTED BY IDOCK:   52.71 KCAL/MOL
REMARK 923 INTER-LIGAND FREE ENERGY PREDICTED BY IDOCK:   -4.79 KCAL/MOL
REMARK 924 INTRA-LIGAND FREE ENERGY PREDICTED BY IDOCK:   57.50 KCAL/MOL
REMARK 927      BINDING AFFINITY PREDICTED BY RF-SCORE:    0.00 PKD
ROOT
HETATM    1  C   UNL     1      -5.704   3.302  65.305  1.00  0.00    -0.018 C  
HETATM    2  H   UNL     1      -6.460   4.775  64.297  1.00  0.00     0.000 HD 
HETATM    3  O   UNL     1      -6.595   3.835  64.316  1.00  0.00    -0.040 OA 
ENDROOT
BRANCH   1   4
HETATM    4  C   UNL     1      -5.872   3.982  66.697  1.00  0.00    -0.023 C  
BRANCH   4   5
HETATM    5  C   UNL     1      -6.493   3.025  67.762  1.00  0.00    -0.036 C  
HETATM    6  O   UNL     1      -5.779   1.781  67.832  1.00  0.00    -0.018 OA 
HETATM    7  H   UNL     1      -6.156   1.198  68.480  1.00  0.00     0.000 HD 
BRANCH   5   8
HETATM    8  C   UNL     1      -7.971   2.682  67.536  1.00  0.00    -0.068 C  
HETATM    9  C   UNL     1      -8.407   1.527  68.409  1.00  0.00    -0.057 C  
HETATM   10  O   UNL     1      -8.124   2.297  66.160  1.00  0.00    -0.080 OA 
HETATM   11  O   UNL     1      -8.876   1.684  69.534  1.00  0.00    -0.059 OA 
HETATM   12  H   UNL     1      -9.040   2.085  66.020  1.00  0.00     0.000 HD 
ENDBRANCH   5   8
ENDBRANCH   4   5
BRANCH   4  13
HETATM   13  O   UNL     1      -6.654   5.200  66.633  1.00  0.00    -0.046 OA 
BRANCH  13  14
HETATM   14  C   UNL     1      -8.077   5.008  66.674  1.00  0.00    -0.108 C  
HETATM   15  H   UNL     1      -9.211   8.630  65.433  1.00  0.00     0.000 HD 
HETATM   16  O   UNL     1      -8.439   6.439  64.671  1.00  0.00    -0.317 OA 
HETATM   17  C   UNL     1      -8.797   6.212  66.044  1.00  0.00    -0.153 C  
HETATM   18  O   UNL     1      -8.592   4.830  67.986  1.00  0.00    -0.102 OA 
HETATM   19  O   UNL     1      -9.350   8.529  66.368  1.00  0.00    -0.181 OA 
HETATM   20  C   UNL     1      -8.314   5.917  68.874  1.00  0.00    -0.102 C  
HETATM   21  H   UNL     1      -8.883   7.183  64.282  1.00  0.00     0.000 HD 
HETATM   22  C   UNL     1      -8.487   7.473  66.839  1.00  0.00    -0.122 C  
HETATM   23  C   UNL     1      -8.711   7.309  68.350  1.00  0.00    -0.122 C  
BRANCH  20  24
HETATM   24  C   UNL     1      -8.988   5.588  70.226  1.00  0.00    -0.137 C  
HETATM   25  O   UNL     1      -8.923   4.207  70.586  1.00  0.00    -0.085 OA 
HETATM   26  H   UNL     1      -9.337   4.005  71.417  1.00  0.00     0.000 HD 
ENDBRANCH  20  24
BRANCH  23  27
HETATM   27  O   UNL     1      -7.908   8.265  69.099  1.00  0.00    -0.102 OA 
BRANCH  27  28
HETATM   28  C   UNL     1      -6.871   8.872  68.320  1.00  0.00    -0.065 C  
HETATM   29  O   UNL     1      -6.901   8.390  66.985  1.00  0.00    -0.068 OA 
HETATM   30  C   UNL     1      -8.138   8.682  66.330  1.00  0.00    -0.103 C  
HETATM   31  C   UNL     1      -8.289  10.216  66.172  1.00  0.00    -0.131 C  
HETATM   32  C   UNL     1      -8.108   7.897  65.020  1.00  0.00    -0.144 C  
HETATM   33  C   UNL     1      -8.225  10.878  67.576  1.00  0.00    -0.116 C  
HETATM   34  H   UNL     1      -8.085  12.712  68.318  1.00  0.00     0.000 HD 
HETATM   35  C   UNL     1      -6.996  10.403  68.354  1.00  0.00    -0.069 C  
HETATM   36  O   UNL     1      -8.125  12.308  67.460  1.00  0.00    -0.149 OA 
HETATM   37  O   UNL     1      -7.041  10.904  69.702  1.00  0.00    -0.140 OA 
HETATM   38  H   UNL     1      -7.118  11.850  69.724  1.00  0.00     0.000 HD 
BRANCH  31  39
HETATM   39  N   UNL     1      -9.525  10.524  65.411  1.00  0.00    -0.205 NA 
HETATM   40  H   UNL     1      -9.897   9.889  64.705  1.00  0.00     0.000 HD 
BRANCH  39  41
HETATM   41  C   UNL     1     -10.192  11.818  65.741  1.00  0.00    -0.239 C  
HETATM   42  C   UNL     1     -11.165  12.175  68.051  1.00  0.00    -0.319 C  
HETATM   43  C   UNL     1     -11.189  11.614  66.841  1.00  0.00    -0.376 C  
HETATM   44  C   UNL     1     -10.131  13.206  68.417  1.00  0.00    -0.231 C  
HETATM   45  H   UNL     1      -7.131  12.781  66.507  1.00  0.00     0.000 HD 
HETATM   46  O   UNL     1      -7.817  12.154  66.310  1.00  0.00     0.213 OA 
HETATM   47  C   UNL     1      -9.334  13.811  67.233  1.00  0.00    -0.239 C  
HETATM   48  O   UNL     1      -9.250  12.617  69.369  1.00  0.00     0.212 OA 
HETATM   49  H   UNL     1      -9.521  15.344  66.002  1.00  0.00     0.000 HD 
HETATM   50  O   UNL     1     -10.011  14.974  66.728  1.00  0.00    -0.239 OA 
HETATM   51  C   UNL     1      -9.061  12.850  66.067  1.00  0.00     0.167 C  
HETATM   52  H   UNL     1      -8.597  13.268  69.600  1.00  0.00     0.000 HD 
BRANCH  42  53
HETATM   53  C   UNL     1     -12.143  11.819  69.149  1.00  0.00    -0.228 C  
HETATM   54  O   UNL     1     -11.788  10.613  69.817  1.00  0.00    -0.278 OA 
HETATM   55  H   UNL     1     -12.402  10.390  70.507  1.00  0.00     0.000 HD 
ENDBRANCH  42  53
ENDBRANCH  39  41
ENDBRANCH  31  39
ENDBRANCH  27  28
ENDBRANCH  23  27
ENDBRANCH  13  14
ENDBRANCH   4  13
ENDBRANCH   1   4
BRANCH   1  56
HETATM   56  C   UNL     1      -5.922   1.788  65.337  1.00  0.00    -0.018 C  
HETATM   57  O   UNL     1      -7.159   1.484  64.687  1.00  0.00    -0.044 OA 
HETATM   58  H   UNL     1      -7.294   0.543  64.707  1.00  0.00     0.000 HD 
ENDBRANCH   1  56
TORSDOF 12
ENDMDL
MODEL      316
REMARK 921   NORMALIZED FREE ENERGY PREDICTED BY IDOCK:   37.61 KCAL/MOL
REMARK 922        TOTAL FREE ENERGY PREDICTED BY IDOCK:   60.81 KCAL/MOL
REMARK 923 INTER-LIGAND FREE ENERGY PREDICTED BY IDOCK:   43.24 KCAL/MOL
REMARK 924 INTRA-LIGAND FREE ENERGY PREDICTED BY IDOCK:   17.57 KCAL/MOL
REMARK 927      BINDING AFFINITY PREDICTED BY RF-SCORE:    0.00 PKD
ROOT
HETATM    1  C   UNL     1     -12.214  12.577  63.213  1.00  0.00    -0.413 C  
HETATM    2  H   UNL     1     -12.499  14.483  63.004  1.00  0.00     0.000 HD 
HETATM    3  O   UNL     1     -13.005  13.764  63.363  1.00  0.00    -0.304 OA 
ENDROOT
BRANCH   1   4
HETATM    4  C   UNL     1     -10.796  12.714  63.843  1.00  0.00    -0.429 C  
BRANCH   4   5
HETATM    5  C   UNL     1     -10.225  11.348  64.340  1.00  0.00    -0.308 C  
HETATM    6  O   UNL     1     -10.217  11.272  65.774  1.00  0.00    -0.234 OA 
HETATM    7  H   UNL     1      -9.871  10.440  66.076  1.00  0.00     0.000 HD 
BRANCH   5   8
HETATM    8  C   UNL     1      -8.800  11.035  63.865  1.00  0.00     0.021 C  
HETATM    9  C   UNL     1      -7.769  11.606  64.813  1.00  0.00     1.840 C  
HETATM   10  O   UNL     1      -8.625  11.646  62.577  1.00  0.00    -0.627 OA 
HETATM   11  O   UNL     1      -7.320  10.974  65.767  1.00  0.00    -0.056 OA 
HETATM   12  H   UNL     1      -7.743  11.451  62.283  1.00  0.00     0.000 HD 
ENDBRANCH   5   8
ENDBRANCH   4   5
BRANCH   4  13
HETATM   13  O   UNL     1     -10.756  13.673  64.927  1.00  0.00    -0.343 OA 
BRANCH  13  14
HETATM   14  C   UNL     1     -11.324  14.957  64.619  1.00  0.00    -0.357 C  
HETATM   15  H   UNL     1      -7.955  16.910  63.731  1.00  0.00     0.000 HD 
HETATM   16  O   UNL     1      -9.649  15.392  62.832  1.00  0.00     9.937 OA 
HETATM   17  C   UNL     1     -10.248  15.891  64.038  1.00  0.00     3.311 C  
HETATM   18  O   UNL     1     -11.905  15.608  65.740  1.00  0.00     0.263 OA 
HETATM   19  O   UNL     1      -8.286  17.166  64.584  1.00  0.00     3.875 OA 
HETATM   20  C   UNL     1     -10.998  15.826  66.825  1.00  0.00    -0.192 C  
HETATM   21  H   UNL     1      -8.984  15.969  62.473  1.00  0.00     0.000 HD 
HETATM   22  C   UNL     1      -9.149  16.116  65.067  1.00  0.00     2.056 C  
HETATM   23  C   UNL     1      -9.683  16.531  66.447  1.00  0.00    -0.285 C  
BRANCH  20  24
HETATM   24  C   UNL     1     -11.773  16.586  67.925  1.00  0.00     0.389 C  
HETATM   25  O   UNL     1     -11.783  18.004  67.754  1.00  0.00     0.794 OA 
HETATM   26  H   UNL     1     -12.260  18.471  68.430  1.00  0.00     0.000 HD 
ENDBRANCH  20  24
BRANCH  23  27
HETATM   27  O   UNL     1      -8.731  16.194  67.494  1.00  0.00    -0.181 OA 
BRANCH  27  28
HETATM   28  C   UNL     1      -8.550  17.239  68.458  1.00  0.00    -0.270 C  
HETATM   29  O   UNL     1      -9.705  17.372  69.274  1.00  0.00    -0.146 OA 
HETATM   30  C   UNL     1      -9.993  16.178  70.005  1.00  0.00     0.137 C  
HETATM   31  C   UNL     1      -8.853  15.905  71.019  1.00  0.00     3.575 C  
HETATM   32  C   UNL     1     -11.371  16.394  70.625  1.00  0.00    -0.208 C  
HETATM   33  C   UNL     1      -7.510  15.784  70.249  1.00  0.00     0.782 C  
HETATM   34  H   UNL     1      -5.578  15.692  70.692  1.00  0.00     0.000 HD 
HETATM   35  C   UNL     1      -7.301  16.976  69.312  1.00  0.00    -0.119 C  
HETATM   36  O   UNL     1      -6.400  15.766  71.163  1.00  0.00     0.654 OA 
HETATM   37  O   UNL     1      -6.133  16.765  68.498  1.00  0.00    -0.131 OA 
HETATM   38  H   UNL     1      -5.360  16.603  69.026  1.00  0.00     0.000 HD 
BRANCH  31  39
HETATM   39  N   UNL     1      -9.188  14.720  71.846  1.00  0.00     3.795 NA 
HETATM   40  H   UNL     1      -9.390  14.796  72.843  1.00  0.00     0.000 HD 
BRANCH  39  41
HETATM   41  C   UNL     1      -9.212  13.409  71.133  1.00  0.00     9.688 C  
HETATM   42  C   UNL     1     -10.698  13.113  69.104  1.00  0.00    -0.072 C  
HETATM   43  C   UNL     1     -10.520  13.239  70.419  1.00  0.00     2.421 C  
HETATM   44  C   UNL     1      -9.530  13.022  68.159  1.00  0.00    -0.218 C  
HETATM   45  H   UNL     1      -6.642  14.668  69.492  1.00  0.00     0.000 HD 
HETATM   46  O   UNL     1      -7.408  14.695  70.055  1.00  0.00    -0.056 OA 
HETATM   47  C   UNL     1      -8.153  12.744  68.815  1.00  0.00     0.090 C  
HETATM   48  O   UNL     1      -9.493  14.225  67.398  1.00  0.00    -0.202 OA 
HETATM   49  H   UNL     1      -7.082  11.159  69.303  1.00  0.00     0.000 HD 
HETATM   50  O   UNL     1      -7.926  11.328  68.901  1.00  0.00    -0.141 OA 
HETATM   51  C   UNL     1      -7.952  13.364  70.206  1.00  0.00     2.947 C  
HETATM   52  H   UNL     1      -8.755  14.168  66.802  1.00  0.00     0.000 HD 
BRANCH  42  53
HETATM   53  C   UNL     1     -12.063  13.071  68.453  1.00  0.00    -0.155 C  
HETATM   54  O   UNL     1     -11.983  13.078  67.031  1.00  0.00    -0.383 OA 
HETATM   55  H   UNL     1     -12.841  13.052  66.622  1.00  0.00     0.000 HD 
ENDBRANCH  42  53
ENDBRANCH  39  41
ENDBRANCH  31  39
ENDBRANCH  27  28
ENDBRANCH  23  27
ENDBRANCH  13  14
ENDBRANCH   4  13
ENDBRANCH   1   4
BRANCH   1  56
HETATM   56  C   UNL     1     -13.029  11.418  63.792  1.00  0.00     0.673 C  
HETATM   57  O   UNL     1     -14.299  11.371  63.137  1.00  0.00     1.819 OA 
HETATM   58  H   UNL     1     -14.805  10.652  63.496  1.00  0.00     0.000 HD 
ENDBRANCH   1  56
TORSDOF 12
ENDMDL
MODEL      317
REMARK 921   NORMALIZED FREE ENERGY PREDICTED BY IDOCK:   41.81 KCAL/MOL
REMARK 922        TOTAL FREE ENERGY PREDICTED BY IDOCK:   67.95 KCAL/MOL
REMARK 923 INTER-LIGAND FREE ENERGY PREDICTED BY IDOCK:   50.19 KCAL/MOL
REMARK 924 INTRA-LIGAND FREE ENERGY PREDICTED BY IDOCK:   17.76 KCAL/MOL
REMARK 927      BINDING AFFINITY PREDICTED BY RF-SCORE:    0.00 PKD
ROOT
HETATM    1  C   UNL     1     -11.047  12.197  63.303  1.00  0.00    -0.332 C  
HETATM    2  H   UNL     1     -10.196  13.909  62.980  1.00  0.00     0.000 HD 
HETATM    3  O   UNL     1     -11.042  13.631  63.312  1.00  0.00     0.568 OA 
ENDROOT
BRANCH   1   4
HETATM    4  C   UNL     1      -9.844  11.585  64.081  1.00  0.00    -0.255 C  
BRANCH   4   5
HETATM    5  C   UNL     1     -10.166  10.175  64.671  1.00  0.00     0.007 C  
HETATM    6  O   UNL     1     -10.317  10.225  66.098  1.00  0.00    -0.235 OA 
HETATM    7  H   UNL     1     -10.513   9.367  66.457  1.00  0.00     0.000 HD 
BRANCH   5   8
HETATM    8  C   UNL     1      -9.118   9.097  64.368  1.00  0.00     0.034 C  
HETATM    9  C   UNL     1      -7.770   9.461  64.951  1.00  0.00    -0.111 C  
HETATM   10  O   UNL     1      -8.987   9.003  62.940  1.00  0.00    -0.422 OA 
HETATM   11  O   UNL     1      -7.422   9.125  66.081  1.00  0.00    -0.093 OA 
HETATM   12  H   UNL     1      -8.339   8.335  62.752  1.00  0.00     0.000 HD 
ENDBRANCH   5   8
ENDBRANCH   4   5
BRANCH   4  13
HETATM   13  O   UNL     1      -9.364  12.450  65.139  1.00  0.00     0.072 OA 
BRANCH  13  14
HETATM   14  C   UNL     1      -9.513  13.856  64.884  1.00  0.00     0.802 C  
HETATM   15  H   UNL     1      -5.714  14.971  65.407  1.00  0.00     0.000 HD 
HETATM   16  O   UNL     1      -7.282  14.008  63.795  1.00  0.00    15.862 OA 
HETATM   17  C   UNL     1      -8.136  14.536  64.822  1.00  0.00     8.911 C  
HETATM   18  O   UNL     1     -10.290  14.534  65.861  1.00  0.00    -0.291 OA 
HETATM   19  O   UNL     1      -6.253  15.229  66.146  1.00  0.00     2.408 OA 
HETATM   20  C   UNL     1      -9.779  14.424  67.193  1.00  0.00    -0.248 C  
HETATM   21  H   UNL     1      -6.430  14.429  63.757  1.00  0.00     0.000 HD 
HETATM   22  C   UNL     1      -7.427  14.391  66.162  1.00  0.00     3.183 C  
HETATM   23  C   UNL     1      -8.297  14.808  67.358  1.00  0.00    -0.200 C  
BRANCH  20  24
HETATM   24  C   UNL     1     -10.704  15.258  68.109  1.00  0.00    -0.257 C  
HETATM   25  O   UNL     1     -12.091  14.950  67.967  1.00  0.00    -0.547 OA 
HETATM   26  H   UNL     1     -12.659  15.462  68.531  1.00  0.00     0.000 HD 
ENDBRANCH  20  24
BRANCH  23  27
HETATM   27  O   UNL     1      -7.847  14.155  68.579  1.00  0.00    -0.130 OA 
BRANCH  27  28
HETATM   28  C   UNL     1      -6.455  13.816  68.562  1.00  0.00    -0.093 C  
HETATM   29  O   UNL     1      -5.675  14.921  68.129  1.00  0.00    -0.117 OA 
HETATM   30  C   UNL     1      -5.816  16.054  68.989  1.00  0.00    -0.120 C  
HETATM   31  C   UNL     1      -5.236  15.718  70.386  1.00  0.00    -0.155 C  
HETATM   32  C   UNL     1      -5.129  17.210  68.265  1.00  0.00    -0.123 C  
HETATM   33  C   UNL     1      -5.982  14.481  70.959  1.00  0.00    -0.122 C  
HETATM   34  H   UNL     1      -5.779  13.237  72.490  1.00  0.00     0.000 HD 
HETATM   35  C   UNL     1      -6.001  13.332  69.948  1.00  0.00    -0.136 C  
HETATM   36  O   UNL     1      -5.323  13.993  72.140  1.00  0.00    -0.189 OA 
HETATM   37  O   UNL     1      -6.827  12.260  70.436  1.00  0.00    -0.228 OA 
HETATM   38  H   UNL     1      -6.547  11.961  71.292  1.00  0.00     0.000 HD 
BRANCH  31  39
HETATM   39  N   UNL     1      -5.294  16.918  71.257  1.00  0.00    -0.093 NA 
HETATM   40  H   UNL     1      -4.450  17.401  71.567  1.00  0.00     0.000 HD 
BRANCH  39  41
HETATM   41  C   UNL     1      -6.658  17.377  71.651  1.00  0.00     4.086 C  
HETATM   42  C   UNL     1      -7.873  19.073  70.218  1.00  0.00     1.510 C  
HETATM   43  C   UNL     1      -6.921  18.741  71.090  1.00  0.00     2.605 C  
HETATM   44  C   UNL     1      -8.902  18.074  69.762  1.00  0.00     1.292 C  
HETATM   45  H   UNL     1      -7.643  14.726  69.952  1.00  0.00     0.000 HD 
HETATM   46  O   UNL     1      -7.030  15.396  70.233  1.00  0.00    -0.009 OA 
HETATM   47  C   UNL     1      -8.996  16.773  70.600  1.00  0.00     3.811 C  
HETATM   48  O   UNL     1      -8.640  17.774  68.394  1.00  0.00    -0.278 OA 
HETATM   49  H   UNL     1      -9.998  16.146  72.183  1.00  0.00     0.000 HD 
HETATM   50  O   UNL     1      -9.941  16.944  71.669  1.00  0.00     4.001 OA 
HETATM   51  C   UNL     1      -7.668  16.274  71.188  1.00  0.00     4.760 C  
HETATM   52  H   UNL     1      -9.289  17.143  68.107  1.00  0.00     0.000 HD 
BRANCH  42  53
HETATM   53  C   UNL     1      -7.993  20.451  69.605  1.00  0.00     0.997 C  
HETATM   54  O   UNL     1      -9.253  20.654  68.974  1.00  0.00     0.715 OA 
HETATM   55  H   UNL     1      -9.327  21.519  68.588  1.00  0.00     0.000 HD 
ENDBRANCH  42  53
ENDBRANCH  39  41
ENDBRANCH  31  39
ENDBRANCH  27  28
ENDBRANCH  23  27
ENDBRANCH  13  14
ENDBRANCH   4  13
ENDBRANCH   1   4
BRANCH   1  56
HETATM   56  C   UNL     1     -12.410  11.750  63.838  1.00  0.00    -0.288 C  
HETATM   57  O   UNL     1     -13.409  12.034  62.855  1.00  0.00    -0.361 OA 
HETATM   58  H   UNL     1     -14.255  11.756  63.187  1.00  0.00     0.000 HD 
ENDBRANCH   1  56
TORSDOF 12
ENDMDL
MODEL      318
REMARK 921   NORMALIZED FREE ENERGY PREDICTED BY IDOCK:   42.29 KCAL/MOL
REMARK 922        TOTAL FREE ENERGY PREDICTED BY IDOCK:   68.77 KCAL/MOL
REMARK 923 INTER-LIGAND FREE ENERGY PREDICTED BY IDOCK:   33.32 KCAL/MOL
REMARK 924 INTRA-LIGAND FREE ENERGY PREDICTED BY IDOCK:   35.45 KCAL/MOL
REMARK 927      BINDING AFFINITY PREDICTED BY RF-SCORE:    0.00 PKD
ROOT
HETATM    1  C   UNL     1     -13.378   8.732  70.843  1.00  0.00     0.239 C  
HETATM    2  H   UNL     1     -14.673  10.131  71.194  1.00  0.00     0.000 HD 
HETATM    3  O   UNL     1     -14.286   9.429  71.705  1.00  0.00    -0.107 OA 
ENDROOT
BRANCH   1   4
HETATM    4  C   UNL     1     -12.324   9.675  70.188  1.00  0.00     0.262 C  
BRANCH   4   5
HETATM    5  C   UNL     1     -11.279   8.900  69.325  1.00  0.00     0.216 C  
HETATM    6  O   UNL     1     -10.787   9.707  68.244  1.00  0.00    -0.339 OA 
HETATM    7  H   UNL     1     -10.151   9.236  67.719  1.00  0.00     0.000 HD 
BRANCH   5   8
HETATM    8  C   UNL     1     -11.795   7.593  68.710  1.00  0.00     1.712 C  
HETATM    9  C   UNL     1     -12.524   7.848  67.409  1.00  0.00     7.943 C  
HETATM   10  O   UNL     1     -12.717   7.005  69.642  1.00  0.00     0.485 OA 
HETATM   11  O   UNL     1     -11.957   7.843  66.318  1.00  0.00     4.644 OA 
HETATM   12  H   UNL     1     -13.037   6.196  69.261  1.00  0.00     0.000 HD 
ENDBRANCH   5   8
ENDBRANCH   4   5
BRANCH   4  13
HETATM   13  O   UNL     1     -11.631  10.497  71.157  1.00  0.00    -0.307 OA 
BRANCH  13  14
HETATM   14  C   UNL     1     -10.500  11.218  70.640  1.00  0.00     2.153 C  
HETATM   15  H   UNL     1     -12.145  14.851  70.428  1.00  0.00     0.000 HD 
HETATM   16  O   UNL     1     -11.066  13.261  71.941  1.00  0.00     3.015 OA 
HETATM   17  C   UNL     1     -10.786  12.729  70.637  1.00  0.00     2.638 C  
HETATM   18  O   UNL     1     -10.138  10.841  69.319  1.00  0.00    -0.218 OA 
HETATM   19  O   UNL     1     -12.065  14.460  69.566  1.00  0.00    -0.313 OA 
HETATM   20  C   UNL     1     -11.186  11.004  68.358  1.00  0.00    -0.274 C  
HETATM   21  H   UNL     1     -11.244  14.195  71.939  1.00  0.00     0.000 HD 
HETATM   22  C   UNL     1     -11.970  13.029  69.727  1.00  0.00    -0.308 C  
HETATM   23  C   UNL     1     -11.840  12.397  68.333  1.00  0.00    -0.309 C  
BRANCH  20  24
HETATM   24  C   UNL     1     -10.609  10.605  66.980  1.00  0.00    -0.262 C  
HETATM   25  O   UNL     1     -10.341  11.714  66.120  1.00  0.00    -0.226 OA 
HETATM   26  H   UNL     1      -9.986  11.469  65.273  1.00  0.00     0.000 HD 
ENDBRANCH  20  24
BRANCH  23  27
HETATM   27  O   UNL     1     -13.149  12.215  67.723  1.00  0.00     2.439 OA 
BRANCH  27  28
HETATM   28  C   UNL     1     -13.534  13.297  66.867  1.00  0.00     4.710 C  
HETATM   29  O   UNL     1     -12.996  14.524  67.338  1.00  0.00     0.899 OA 
HETATM   30  C   UNL     1     -11.567  14.511  67.376  1.00  0.00    -0.385 C  
HETATM   31  C   UNL     1     -11.013  14.395  65.933  1.00  0.00    -0.312 C  
HETATM   32  C   UNL     1     -11.161  15.779  68.123  1.00  0.00    -0.344 C  
HETATM   33  C   UNL     1     -11.570  13.100  65.280  1.00  0.00    -0.321 C  
HETATM   34  H   UNL     1     -11.616  12.282  63.474  1.00  0.00     0.000 HD 
HETATM   35  C   UNL     1     -13.092  13.023  65.420  1.00  0.00     0.330 C  
HETATM   36  O   UNL     1     -11.275  13.074  63.873  1.00  0.00    -0.394 OA 
HETATM   37  O   UNL     1     -13.567  11.749  64.950  1.00  0.00     1.014 OA 
HETATM   38  H   UNL     1     -13.295  11.579  64.057  1.00  0.00     0.000 HD 
BRANCH  31  39
HETATM   39  N   UNL     1      -9.532  14.474  65.955  1.00  0.00    -0.480 NA 
HETATM   40  H   UNL     1      -8.944  13.668  65.742  1.00  0.00     0.000 HD 
BRANCH  39  41
HETATM   41  C   UNL     1      -8.952  15.803  66.307  1.00  0.00    -0.345 C  
HETATM   42  C   UNL     1      -9.042  16.615  68.704  1.00  0.00    -0.245 C  
HETATM   43  C   UNL     1      -9.622  16.345  67.534  1.00  0.00    -0.227 C  
HETATM   44  C   UNL     1      -7.554  16.492  68.888  1.00  0.00    -0.238 C  
HETATM   45  H   UNL     1      -6.153  14.088  66.634  1.00  0.00     0.000 HD 
HETATM   46  O   UNL     1      -7.093  14.204  66.554  1.00  0.00     0.945 OA 
HETATM   47  C   UNL     1      -6.721  16.370  67.586  1.00  0.00    -0.138 C  
HETATM   48  O   UNL     1      -7.313  15.381  69.747  1.00  0.00    -0.197 OA 
HETATM   49  H   UNL     1      -5.834  17.601  66.322  1.00  0.00     0.000 HD 
HETATM   50  O   UNL     1      -6.345  17.676  67.120  1.00  0.00    -0.141 OA 
HETATM   51  C   UNL     1      -7.404  15.611  66.440  1.00  0.00     0.819 C  
HETATM   52  H   UNL     1      -6.373  15.303  69.863  1.00  0.00     0.000 HD 
BRANCH  42  53
HETATM   53  C   UNL     1      -9.815  17.042  69.933  1.00  0.00     0.590 C  
HETATM   54  O   UNL     1      -8.957  17.420  71.005  1.00  0.00     5.363 OA 
HETATM   55  H   UNL     1      -9.442  17.688  71.777  1.00  0.00     0.000 HD 
ENDBRANCH  42  53
ENDBRANCH  39  41
ENDBRANCH  31  39
ENDBRANCH  27  28
ENDBRANCH  23  27
ENDBRANCH  13  14
ENDBRANCH   4  13
ENDBRANCH   1   4
BRANCH   1  56
HETATM   56  C   UNL     1     -12.755   7.602  71.666  1.00  0.00    -0.343 C  
HETATM   57  O   UNL     1     -13.734   6.579  71.864  1.00  0.00    -0.324 OA 
HETATM   58  H   UNL     1     -13.347   5.877  72.374  1.00  0.00     0.000 HD 
ENDBRANCH   1  56
TORSDOF 12
ENDMDL
MODEL      319
REMARK 921   NORMALIZED FREE ENERGY PREDICTED BY IDOCK:   54.66 KCAL/MOL
REMARK 922        TOTAL FREE ENERGY PREDICTED BY IDOCK:   89.81 KCAL/MOL
REMARK 923 INTER-LIGAND FREE ENERGY PREDICTED BY IDOCK:   22.35 KCAL/MOL
REMARK 924 INTRA-LIGAND FREE ENERGY PREDICTED BY IDOCK:   67.46 KCAL/MOL
REMARK 927      BINDING AFFINITY PREDICTED BY RF-SCORE:    0.00 PKD
ROOT
HETATM    1  C   UNL     1     -11.017  10.444  68.430  1.00  0.00    -0.264 C  
HETATM    2  H   UNL     1     -10.572   8.718  69.193  1.00  0.00     0.000 HD 
HETATM    3  O   UNL     1     -11.209   9.396  69.389  1.00  0.00    -0.137 OA 
ENDROOT
BRANCH   1   4
HETATM    4  C   UNL     1     -11.087   9.935  66.959  1.00  0.00     0.112 C  
BRANCH   4   5
HETATM    5  C   UNL     1      -9.800   9.163  66.529  1.00  0.00    -0.264 C  
HETATM    6  O   UNL     1      -9.440   9.455  65.170  1.00  0.00    -0.363 OA 
HETATM    7  H   UNL     1      -8.657   8.986  64.908  1.00  0.00     0.000 HD 
BRANCH   5   8
HETATM    8  C   UNL     1      -9.894   7.637  66.650  1.00  0.00    -0.213 C  
HETATM    9  C   UNL     1     -10.072   7.211  68.091  1.00  0.00    -0.169 C  
HETATM   10  O   UNL     1      -8.664   7.082  66.159  1.00  0.00    -0.137 OA 
HETATM   11  O   UNL     1     -11.177   7.069  68.611  1.00  0.00    -0.070 OA 
HETATM   12  H   UNL     1      -8.723   6.137  66.234  1.00  0.00     0.000 HD 
ENDBRANCH   5   8
ENDBRANCH   4   5
BRANCH   4  13
HETATM   13  O   UNL     1     -11.347  10.999  66.011  1.00  0.00    -0.043 OA 
BRANCH  13  14
HETATM   14  C   UNL     1     -10.184  11.505  65.336  1.00  0.00    -0.264 C  
HETATM   15  H   UNL     1      -8.997  14.153  68.080  1.00  0.00     0.000 HD 
HETATM   16  O   UNL     1      -8.933  11.786  67.468  1.00  0.00    -0.160 OA 
HETATM   17  C   UNL     1      -9.387  12.433  66.268  1.00  0.00    -0.189 C  
HETATM   18  O   UNL     1     -10.482  12.230  64.151  1.00  0.00    -0.320 OA 
HETATM   19  O   UNL     1      -9.399  14.587  67.336  1.00  0.00    -0.188 OA 
HETATM   20  C   UNL     1     -11.342  13.355  64.356  1.00  0.00    -0.391 C  
HETATM   21  H   UNL     1      -8.441  12.360  68.044  1.00  0.00     0.000 HD 
HETATM   22  C   UNL     1     -10.242  13.631  66.659  1.00  0.00    -0.276 C  
HETATM   23  C   UNL     1     -10.892  14.332  65.456  1.00  0.00    -0.322 C  
BRANCH  20  24
HETATM   24  C   UNL     1     -11.515  14.055  62.988  1.00  0.00     1.929 C  
HETATM   25  O   UNL     1     -12.588  14.997  62.950  1.00  0.00     0.348 OA 
HETATM   26  H   UNL     1     -12.694  15.427  62.109  1.00  0.00     0.000 HD 
ENDBRANCH  20  24
BRANCH  23  27
HETATM   27  O   UNL     1     -12.085  15.059  65.863  1.00  0.00    -0.068 OA 
BRANCH  27  28
HETATM   28  C   UNL     1     -13.094  14.219  66.439  1.00  0.00     0.943 C  
HETATM   29  O   UNL     1     -12.562  12.941  66.751  1.00  0.00    -0.205 OA 
HETATM   30  C   UNL     1     -11.492  13.013  67.697  1.00  0.00    -0.324 C  
HETATM   31  C   UNL     1     -12.036  13.529  69.053  1.00  0.00    -0.335 C  
HETATM   32  C   UNL     1     -10.878  11.616  67.735  1.00  0.00    -0.264 C  
HETATM   33  C   UNL     1     -12.694  14.919  68.839  1.00  0.00     0.518 C  
HETATM   34  H   UNL     1     -13.818  16.177  69.883  1.00  0.00     0.000 HD 
HETATM   35  C   UNL     1     -13.700  14.882  67.686  1.00  0.00     7.096 C  
HETATM   36  O   UNL     1     -13.415  15.326  70.015  1.00  0.00     0.201 OA 
HETATM   37  O   UNL     1     -14.178  16.210  67.405  1.00  0.00     6.985 OA 
HETATM   38  H   UNL     1     -14.552  16.619  68.175  1.00  0.00     0.000 HD 
BRANCH  31  39
HETATM   39  N   UNL     1     -10.952  13.520  70.066  1.00  0.00    -0.298 NA 
HETATM   40  H   UNL     1     -10.273  12.760  70.124  1.00  0.00     0.000 HD 
BRANCH  39  41
HETATM   41  C   UNL     1     -10.912  14.688  70.994  1.00  0.00     0.297 C  
HETATM   42  C   UNL     1     -10.557  17.016  70.064  1.00  0.00     0.176 C  
HETATM   43  C   UNL     1     -10.113  15.799  70.383  1.00  0.00     0.184 C  
HETATM   44  C   UNL     1     -11.957  17.452  70.399  1.00  0.00     4.031 C  
HETATM   45  H   UNL     1     -14.185  14.655  70.590  1.00  0.00     0.000 HD 
HETATM   46  O   UNL     1     -13.286  14.430  70.384  1.00  0.00    -0.200 OA 
HETATM   47  C   UNL     1     -12.719  16.557  71.410  1.00  0.00     1.484 C  
HETATM   48  O   UNL     1     -12.681  17.562  69.177  1.00  0.00     3.802 OA 
HETATM   49  H   UNL     1     -12.947  16.467  73.369  1.00  0.00     0.000 HD 
HETATM   50  O   UNL     1     -12.480  17.016  72.750  1.00  0.00     0.505 OA 
HETATM   51  C   UNL     1     -12.394  15.058  71.333  1.00  0.00    -0.332 C  
HETATM   52  H   UNL     1     -13.566  17.837  69.388  1.00  0.00     0.000 HD 
BRANCH  42  53
HETATM   53  C   UNL     1      -9.715  18.040  69.335  1.00  0.00     0.160 C  
HETATM   54  O   UNL     1      -9.359  17.611  68.025  1.00  0.00    -0.261 OA 
HETATM   55  H   UNL     1      -8.830  18.255  67.567  1.00  0.00     0.000 HD 
ENDBRANCH  42  53
ENDBRANCH  39  41
ENDBRANCH  31  39
ENDBRANCH  27  28
ENDBRANCH  23  27
ENDBRANCH  13  14
ENDBRANCH   4  13
ENDBRANCH   1   4
BRANCH   1  56
HETATM   56  C   UNL     1     -12.043  11.535  68.746  1.00  0.00    -0.170 C  
HETATM   57  O   UNL     1     -13.091  10.970  69.539  1.00  0.00    -0.197 OA 
HETATM   58  H   UNL     1     -13.728  11.648  69.735  1.00  0.00     0.000 HD 
ENDBRANCH   1  56
TORSDOF 12
ENDMDL
MODEL      320
REMARK 921   NORMALIZED FREE ENERGY PREDICTED BY IDOCK:   55.47 KCAL/MOL
REMARK 922        TOTAL FREE ENERGY PREDICTED BY IDOCK:   91.19 KCAL/MOL
REMARK 923 INTER-LIGAND FREE ENERGY PREDICTED BY IDOCK:   -0.62 KCAL/MOL
REMARK 924 INTRA-LIGAND FREE ENERGY PREDICTED BY IDOCK:   91.81 KCAL/MOL
REMARK 927      BINDING AFFINITY PREDICTED BY RF-SCORE:    0.00 PKD
ROOT
HETATM    1  C   UNL     1     -10.132  10.803  68.875  1.00  0.00    -0.205 C  
HETATM    2  H   UNL     1      -8.577  10.867  67.719  1.00  0.00     0.000 HD 
HETATM    3  O   UNL     1      -8.951  11.444  68.375  1.00  0.00    -0.162 OA 
ENDROOT
BRANCH   1   4
HETATM    4  C   UNL     1      -9.859   9.362  69.401  1.00  0.00    -0.178 C  
BRANCH   4   5
HETATM    5  C   UNL     1      -8.647   9.300  70.383  1.00  0.00    -0.219 C  
HETATM    6  O   UNL     1      -7.406   9.144  69.679  1.00  0.00    -0.060 OA 
HETATM    7  H   UNL     1      -6.669   9.106  70.277  1.00  0.00     0.000 HD 
BRANCH   5   8
HETATM    8  C   UNL     1      -8.719   8.173  71.422  1.00  0.00    -0.145 C  
HETATM    9  C   UNL     1     -10.113   7.594  71.509  1.00  0.00    -0.178 C  
HETATM   10  O   UNL     1      -8.377   8.734  72.700  1.00  0.00    -0.407 OA 
HETATM   11  O   UNL     1     -10.482   6.643  70.823  1.00  0.00    -0.209 OA 
HETATM   12  H   UNL     1      -8.421   8.037  73.343  1.00  0.00     0.000 HD 
ENDBRANCH   5   8
ENDBRANCH   4   5
BRANCH   4  13
HETATM   13  O   UNL     1      -9.659   8.406  68.331  1.00  0.00    -0.145 OA 
BRANCH  13  14
HETATM   14  C   UNL     1     -10.485   8.612  67.173  1.00  0.00    -0.289 C  
HETATM   15  H   UNL     1      -7.968   7.254  64.386  1.00  0.00     0.000 HD 
HETATM   16  O   UNL     1      -9.619   6.566  66.054  1.00  0.00    -0.377 OA 
HETATM   17  C   UNL     1      -9.831   7.981  65.932  1.00  0.00     0.320 C  
HETATM   18  O   UNL     1     -10.734   9.980  66.886  1.00  0.00    -0.212 OA 
HETATM   19  O   UNL     1      -8.018   8.202  64.370  1.00  0.00    -0.136 OA 
HETATM   20  C   UNL     1      -9.552  10.757  66.672  1.00  0.00    -0.178 C  
HETATM   21  H   UNL     1      -9.214   6.176  65.287  1.00  0.00     0.000 HD 
HETATM   22  C   UNL     1      -8.491   8.650  65.657  1.00  0.00    -0.156 C  
HETATM   23  C   UNL     1      -8.572  10.184  65.632  1.00  0.00    -0.155 C  
BRANCH  20  24
HETATM   24  C   UNL     1     -10.003  12.193  66.320  1.00  0.00    -0.229 C  
HETATM   25  O   UNL     1      -9.880  12.516  64.934  1.00  0.00    -0.443 OA 
HETATM   26  H   UNL     1     -10.158  13.399  64.718  1.00  0.00     0.000 HD 
ENDBRANCH  20  24
BRANCH  23  27
HETATM   27  O   UNL     1      -7.276  10.776  65.932  1.00  0.00    -0.144 OA 
BRANCH  27  28
HETATM   28  C   UNL     1      -6.712  10.316  67.166  1.00  0.00    -0.078 C  
HETATM   29  O   UNL     1      -5.785  11.263  67.676  1.00  0.00    -0.043 OA 
HETATM   30  C   UNL     1      -6.393  12.529  67.943  1.00  0.00    -0.103 C  
HETATM   31  C   UNL     1      -7.429  12.374  69.086  1.00  0.00     0.166 C  
HETATM   32  C   UNL     1      -5.242  13.487  68.240  1.00  0.00    -0.097 C  
HETATM   33  C   UNL     1      -8.488  11.317  68.668  1.00  0.00    -0.143 C  
HETATM   34  H   UNL     1      -9.975  10.325  69.528  1.00  0.00     0.000 HD 
HETATM   35  C   UNL     1      -7.820  10.025  68.191  1.00  0.00    -0.089 C  
HETATM   36  O   UNL     1      -9.327  10.971  69.784  1.00  0.00     0.340 OA 
HETATM   37  O   UNL     1      -8.810   9.124  67.664  1.00  0.00    -0.120 OA 
HETATM   38  H   UNL     1      -9.495   8.944  68.297  1.00  0.00     0.000 HD 
BRANCH  31  39
HETATM   39  N   UNL     1      -7.998  13.699  69.432  1.00  0.00    -0.153 NA 
HETATM   40  H   UNL     1      -8.124  13.997  70.400  1.00  0.00     0.000 HD 
BRANCH  39  41
HETATM   41  C   UNL     1      -8.375  14.572  68.281  1.00  0.00    -0.152 C  
HETATM   42  C   UNL     1      -7.741  17.023  68.306  1.00  0.00    -0.209 C  
HETATM   43  C   UNL     1      -8.479  15.997  68.733  1.00  0.00    -0.228 C  
HETATM   44  C   UNL     1      -6.743  16.860  67.191  1.00  0.00    -0.186 C  
HETATM   45  H   UNL     1      -5.530  13.496  67.005  1.00  0.00     0.000 HD 
HETATM   46  O   UNL     1      -6.167  13.649  67.693  1.00  0.00    -0.188 OA 
HETATM   47  C   UNL     1      -6.865  15.556  66.362  1.00  0.00     1.740 C  
HETATM   48  O   UNL     1      -5.440  16.980  67.754  1.00  0.00    -0.108 OA 
HETATM   49  H   UNL     1      -7.830  14.960  64.745  1.00  0.00     0.000 HD 
HETATM   50  O   UNL     1      -7.756  15.759  65.253  1.00  0.00     2.983 OA 
HETATM   51  C   UNL     1      -7.326  14.320  67.148  1.00  0.00     0.151 C  
HETATM   52  H   UNL     1      -4.810  16.877  67.050  1.00  0.00     0.000 HD 
BRANCH  42  53
HETATM   53  C   UNL     1      -7.825  18.410  68.904  1.00  0.00    -0.204 C  
HETATM   54  O   UNL     1      -6.936  19.325  68.271  1.00  0.00    -0.254 OA 
HETATM   55  H   UNL     1      -6.988  20.196  68.647  1.00  0.00     0.000 HD 
ENDBRANCH  42  53
ENDBRANCH  39  41
ENDBRANCH  31  39
ENDBRANCH  27  28
ENDBRANCH  23  27
ENDBRANCH  13  14
ENDBRANCH   4  13
ENDBRANCH   1   4
BRANCH   1  56
HETATM   56  C   UNL     1     -10.734  11.732  69.932  1.00  0.00     0.550 C  
HETATM   57  O   UNL     1     -12.134  11.874  69.680  1.00  0.00    -0.286 OA 
HETATM   58  H   UNL     1     -12.509  12.451  70.337  1.00  0.00     0.000 HD 
ENDBRANCH   1  56
TORSDOF 12
ENDMDL
MODEL      321
REMARK 921   NORMALIZED FREE ENERGY PREDICTED BY IDOCK:   59.66 KCAL/MOL
REMARK 922        TOTAL FREE ENERGY PREDICTED BY IDOCK:   98.32 KCAL/MOL
REMARK 923 INTER-LIGAND FREE ENERGY PREDICTED BY IDOCK:   42.29 KCAL/MOL
REMARK 924 INTRA-LIGAND FREE ENERGY PREDICTED BY IDOCK:   56.03 KCAL/MOL
REMARK 927      BINDING AFFINITY PREDICTED BY RF-SCORE:    0.00 PKD
ROOT
HETATM    1  C   UNL     1      -8.885  10.629  66.493  1.00  0.00    -0.151 C  
HETATM    2  H   UNL     1      -9.940   9.272  65.597  1.00  0.00     0.000 HD 
HETATM    3  O   UNL     1     -10.091   9.874  66.317  1.00  0.00    -0.237 OA 
ENDROOT
BRANCH   1   4
HETATM    4  C   UNL     1      -8.419  11.333  65.183  1.00  0.00     0.237 C  
BRANCH   4   5
HETATM    5  C   UNL     1      -7.502  12.566  65.458  1.00  0.00     3.509 C  
HETATM    6  O   UNL     1      -7.861  13.684  64.631  1.00  0.00     6.834 OA 
HETATM    7  H   UNL     1      -7.303  14.434  64.799  1.00  0.00     0.000 HD 
BRANCH   5   8
HETATM    8  C   UNL     1      -6.003  12.314  65.246  1.00  0.00     4.558 C  
HETATM    9  C   UNL     1      -5.768  11.078  64.407  1.00  0.00     0.457 C  
HETATM   10  O   UNL     1      -5.407  12.109  66.537  1.00  0.00    -0.425 OA 
HETATM   11  O   UNL     1      -5.679  11.113  63.181  1.00  0.00     0.070 OA 
HETATM   12  H   UNL     1      -4.480  11.953  66.406  1.00  0.00     0.000 HD 
ENDBRANCH   5   8
ENDBRANCH   4   5
BRANCH   4  13
HETATM   13  O   UNL     1      -9.525  11.737  64.341  1.00  0.00    -0.111 OA 
BRANCH  13  14
HETATM   14  C   UNL     1      -9.335  12.982  63.648  1.00  0.00     2.390 C  
HETATM   15  H   UNL     1      -7.459  15.000  66.539  1.00  0.00     0.000 HD 
HETATM   16  O   UNL     1      -7.134  13.379  64.737  1.00  0.00     9.758 OA 
HETATM   17  C   UNL     1      -8.438  13.920  64.473  1.00  0.00     6.912 C  
HETATM   18  O   UNL     1     -10.546  13.670  63.370  1.00  0.00     0.666 OA 
HETATM   19  O   UNL     1      -8.359  15.290  66.446  1.00  0.00    -0.185 OA 
HETATM   20  C   UNL     1     -11.323  13.978  64.532  1.00  0.00    -0.358 C  
HETATM   21  H   UNL     1      -6.580  13.958  65.247  1.00  0.00     0.000 HD 
HETATM   22  C   UNL     1      -9.108  14.238  65.803  1.00  0.00     0.427 C  
HETATM   23  C   UNL     1     -10.563  14.708  65.654  1.00  0.00    -0.332 C  
BRANCH  20  24
HETATM   24  C   UNL     1     -12.565  14.768  64.058  1.00  0.00     0.199 C  
HETATM   25  O   UNL     1     -13.671  14.706  64.959  1.00  0.00     0.382 OA 
HETATM   26  H   UNL     1     -14.433  15.192  64.667  1.00  0.00     0.000 HD 
ENDBRANCH  20  24
BRANCH  23  27
HETATM   27  O   UNL     1     -11.315  14.461  66.876  1.00  0.00    -0.323 OA 
BRANCH  27  28
HETATM   28  C   UNL     1     -12.367  15.407  67.098  1.00  0.00     0.986 C  
HETATM   29  O   UNL     1     -12.822  15.343  68.441  1.00  0.00     0.877 OA 
HETATM   30  C   UNL     1     -11.786  15.646  69.380  1.00  0.00    -0.375 C  
HETATM   31  C   UNL     1     -11.348  17.123  69.207  1.00  0.00     0.650 C  
HETATM   32  C   UNL     1     -12.357  15.297  70.752  1.00  0.00    -0.433 C  
HETATM   33  C   UNL     1     -10.866  17.339  67.747  1.00  0.00    -0.261 C  
HETATM   34  H   UNL     1     -10.379  18.872  66.585  1.00  0.00     0.000 HD 
HETATM   35  C   UNL     1     -11.900  16.827  66.742  1.00  0.00     1.734 C  
HETATM   36  O   UNL     1     -10.674  18.739  67.478  1.00  0.00    -0.438 OA 
HETATM   37  O   UNL     1     -11.368  16.894  65.407  1.00  0.00     0.148 OA 
HETATM   38  H   UNL     1     -11.079  17.772  65.187  1.00  0.00     0.000 HD 
BRANCH  31  39
HETATM   39  N   UNL     1     -10.340  17.472  70.238  1.00  0.00     0.470 NA 
HETATM   40  H   UNL     1     -10.206  18.430  70.560  1.00  0.00     0.000 HD 
BRANCH  39  41
HETATM   41  C   UNL     1      -9.532  16.337  70.775  1.00  0.00     2.542 C  
HETATM   42  C   UNL     1      -9.545  14.109  69.572  1.00  0.00     0.538 C  
HETATM   43  C   UNL     1     -10.128  15.033  70.337  1.00  0.00     0.247 C  
HETATM   44  C   UNL     1      -8.113  14.246  69.131  1.00  0.00     0.074 C  
HETATM   45  H   UNL     1      -7.117  17.682  68.975  1.00  0.00     0.000 HD 
HETATM   46  O   UNL     1      -8.015  17.543  69.252  1.00  0.00    -0.059 OA 
HETATM   47  C   UNL     1      -7.276  15.316  69.878  1.00  0.00    -0.080 C  
HETATM   48  O   UNL     1      -8.112  14.494  67.728  1.00  0.00    -0.134 OA 
HETATM   49  H   UNL     1      -6.134  15.389  71.488  1.00  0.00     0.000 HD 
HETATM   50  O   UNL     1      -6.647  14.733  71.031  1.00  0.00     0.131 OA 
HETATM   51  C   UNL     1      -8.053  16.566  70.317  1.00  0.00     2.142 C  
HETATM   52  H   UNL     1      -7.208  14.581  67.450  1.00  0.00     0.000 HD 
BRANCH  42  53
HETATM   53  C   UNL     1     -10.262  12.874  69.073  1.00  0.00     0.123 C  
HETATM   54  O   UNL     1     -11.337  12.493  69.926  1.00  0.00    -0.496 OA 
HETATM   55  H   UNL     1     -11.787  11.717  69.612  1.00  0.00     0.000 HD 
ENDBRANCH  42  53
ENDBRANCH  39  41
ENDBRANCH  31  39
ENDBRANCH  27  28
ENDBRANCH  23  27
ENDBRANCH  13  14
ENDBRANCH   4  13
ENDBRANCH   1   4
BRANCH   1  56
HETATM   56  C   UNL     1      -9.128  11.599  67.652  1.00  0.00    -0.174 C  
HETATM   57  O   UNL     1      -9.155  12.934  67.141  1.00  0.00    -0.204 OA 
HETATM   58  H   UNL     1      -9.305  13.537  67.861  1.00  0.00     0.000 HD 
ENDBRANCH   1  56
TORSDOF 12
ENDMDL
MODEL      322
REMARK 921   NORMALIZED FREE ENERGY PREDICTED BY IDOCK:   61.37 KCAL/MOL
REMARK 922        TOTAL FREE ENERGY PREDICTED BY IDOCK:  101.23 KCAL/MOL
REMARK 923 INTER-LIGAND FREE ENERGY PREDICTED BY IDOCK:   -6.72 KCAL/MOL
REMARK 924 INTRA-LIGAND FREE ENERGY PREDICTED BY IDOCK:  107.95 KCAL/MOL
REMARK 927      BINDING AFFINITY PREDICTED BY RF-SCORE:    0.00 PKD
ROOT
HETATM    1  C   UNL     1     -10.123  10.797  68.874  1.00  0.00    -0.205 C  
HETATM    2  H   UNL     1      -8.567  10.697  67.722  1.00  0.00     0.000 HD 
HETATM    3  O   UNL     1      -8.907  11.336  68.338  1.00  0.00    -0.149 OA 
ENDROOT
BRANCH   1   4
HETATM    4  C   UNL     1      -9.934   9.379  69.491  1.00  0.00    -0.191 C  
BRANCH   4   5
HETATM    5  C   UNL     1      -8.721   9.308  70.472  1.00  0.00    -0.236 C  
HETATM    6  O   UNL     1      -7.495   9.043  69.773  1.00  0.00    -0.057 OA 
HETATM    7  H   UNL     1      -6.757   8.999  70.370  1.00  0.00     0.000 HD 
BRANCH   5   8
HETATM    8  C   UNL     1      -8.847   8.249  71.575  1.00  0.00    -0.168 C  
HETATM    9  C   UNL     1     -10.271   7.753  71.699  1.00  0.00    -0.186 C  
HETATM   10  O   UNL     1      -8.469   8.865  72.816  1.00  0.00    -0.380 OA 
HETATM   11  O   UNL     1     -10.694   6.785  71.070  1.00  0.00    -0.223 OA 
HETATM   12  H   UNL     1      -8.547   8.209  73.499  1.00  0.00     0.000 HD 
ENDBRANCH   5   8
ENDBRANCH   4   5
BRANCH   4  13
HETATM   13  O   UNL     1      -9.800   8.345  68.486  1.00  0.00    -0.164 OA 
BRANCH  13  14
HETATM   14  C   UNL     1     -10.619   8.527  67.319  1.00  0.00    -0.245 C  
HETATM   15  H   UNL     1      -8.085   7.109  64.577  1.00  0.00     0.000 HD 
HETATM   16  O   UNL     1      -9.747   6.457  66.249  1.00  0.00    -0.323 OA 
HETATM   17  C   UNL     1      -9.958   7.870  66.096  1.00  0.00     0.135 C  
HETATM   18  O   UNL     1     -10.865   9.889  67.002  1.00  0.00    -0.213 OA 
HETATM   19  O   UNL     1      -8.134   8.057  64.541  1.00  0.00    -0.147 OA 
HETATM   20  C   UNL     1      -9.681  10.661  66.778  1.00  0.00    -0.185 C  
HETATM   21  H   UNL     1      -9.338   6.052  65.493  1.00  0.00     0.000 HD 
HETATM   22  C   UNL     1      -8.616   8.532  65.815  1.00  0.00    -0.168 C  
HETATM   23  C   UNL     1      -8.695  10.066  65.757  1.00  0.00    -0.145 C  
BRANCH  20  24
HETATM   24  C   UNL     1     -10.130  12.089  66.393  1.00  0.00    -0.218 C  
HETATM   25  O   UNL     1     -10.000  12.382  65.001  1.00  0.00    -0.359 OA 
HETATM   26  H   UNL     1     -10.276  13.260  64.764  1.00  0.00     0.000 HD 
ENDBRANCH  20  24
BRANCH  23  27
HETATM   27  O   UNL     1      -7.401  10.663  66.053  1.00  0.00    -0.133 OA 
BRANCH  27  28
HETATM   28  C   UNL     1      -6.895  10.314  67.347  1.00  0.00    -0.077 C  
HETATM   29  O   UNL     1      -6.067  11.349  67.856  1.00  0.00    -0.049 OA 
HETATM   30  C   UNL     1      -6.771  12.585  68.004  1.00  0.00    -0.090 C  
HETATM   31  C   UNL     1      -7.871  12.426  69.085  1.00  0.00     0.351 C  
HETATM   32  C   UNL     1      -5.706  13.633  68.315  1.00  0.00    -0.103 C  
HETATM   33  C   UNL     1      -8.830  11.278  68.666  1.00  0.00    -0.141 C  
HETATM   34  H   UNL     1     -10.306  10.239  69.487  1.00  0.00     0.000 HD 
HETATM   35  C   UNL     1      -8.050  10.009  68.314  1.00  0.00    -0.104 C  
HETATM   36  O   UNL     1      -9.720  10.941  69.744  1.00  0.00     0.098 OA 
HETATM   37  O   UNL     1      -8.943   9.014  67.781  1.00  0.00    -0.128 OA 
HETATM   38  H   UNL     1      -9.656   8.825  68.378  1.00  0.00     0.000 HD 
BRANCH  31  39
HETATM   39  N   UNL     1      -8.545  13.728  69.310  1.00  0.00    -0.153 NA 
HETATM   40  H   UNL     1      -8.779  14.060  70.246  1.00  0.00     0.000 HD 
BRANCH  39  41
HETATM   41  C   UNL     1      -8.860  14.524  68.088  1.00  0.00    -0.177 C  
HETATM   42  C   UNL     1     -10.805  13.844  66.617  1.00  0.00    -0.289 C  
HETATM   43  C   UNL     1      -9.570  13.664  67.087  1.00  0.00    -0.241 C  
HETATM   44  C   UNL     1     -11.617  15.055  66.989  1.00  0.00    -0.240 C  
HETATM   45  H   UNL     1     -10.638  16.352  70.180  1.00  0.00     0.000 HD 
HETATM   46  O   UNL     1     -10.151  15.586  69.898  1.00  0.00    -0.286 OA 
HETATM   47  C   UNL     1     -10.831  16.215  67.653  1.00  0.00    -0.297 C  
HETATM   48  O   UNL     1     -12.683  14.622  67.829  1.00  0.00    -0.215 OA 
HETATM   49  H   UNL     1      -9.856  17.824  67.056  1.00  0.00     0.000 HD 
HETATM   50  O   UNL     1     -10.337  17.114  66.648  1.00  0.00    -0.320 OA 
HETATM   51  C   UNL     1      -9.663  15.785  68.552  1.00  0.00    -0.206 C  
HETATM   52  H   UNL     1     -13.195  15.387  68.063  1.00  0.00     0.000 HD 
BRANCH  42  53
HETATM   53  C   UNL     1     -11.495  12.857  65.700  1.00  0.00    -0.332 C  
HETATM   54  O   UNL     1     -12.745  12.419  66.222  1.00  0.00    -0.026 OA 
HETATM   55  H   UNL     1     -13.178  11.799  65.647  1.00  0.00     0.000 HD 
ENDBRANCH  42  53
ENDBRANCH  39  41
ENDBRANCH  31  39
ENDBRANCH  27  28
ENDBRANCH  23  27
ENDBRANCH  13  14
ENDBRANCH   4  13
ENDBRANCH   1   4
BRANCH   1  56
HETATM   56  C   UNL     1     -10.670  11.826  69.866  1.00  0.00     0.550 C  
HETATM   57  O   UNL     1     -12.060  12.032  69.601  1.00  0.00    -0.285 OA 
HETATM   58  H   UNL     1     -12.400  12.670  70.217  1.00  0.00     0.000 HD 
ENDBRANCH   1  56
TORSDOF 12
ENDMDL
