MODEL        1
REMARK 921   NORMALIZED FREE ENERGY PREDICTED BY IDOCK:   -6.10 KCAL/MOL
REMARK 922        TOTAL FREE ENERGY PREDICTED BY IDOCK:  -10.70 KCAL/MOL
REMARK 923 INTER-LIGAND FREE ENERGY PREDICTED BY IDOCK:   -9.67 KCAL/MOL
REMARK 924 INTRA-LIGAND FREE ENERGY PREDICTED BY IDOCK:   -1.03 KCAL/MOL
REMARK 927      BINDING AFFINITY PREDICTED BY RF-SCORE:    0.00 PKD
ROOT
HETATM    1  C   UNL     1     -11.473   5.850  72.404  1.00  0.00    -0.358 C  
HETATM    2  C   UNL     1     -12.159   6.807  71.444  1.00  0.00    -0.415 C  
ENDROOT
BRANCH   2   3
HETATM    3  C   UNL     1     -12.534   8.110  72.137  1.00  0.00    -0.364 C  
BRANCH   3   4
HETATM    4  C   UNL     1     -11.841   9.282  71.481  1.00  0.00    -0.374 C  
HETATM    5  O   UNL     1     -10.621   9.399  71.560  1.00  0.00    -0.341 OA 
HETATM    6  N   UNL     1     -12.705  10.112  70.779  1.00  0.00    -0.450 N  
HETATM    7  H   UNL     1     -13.693   9.856  70.771  1.00  0.00     0.000 HD 
BRANCH   6   8
HETATM    8  C   UNL     1     -12.337  11.279  70.075  1.00  0.00    -0.257 A  
HETATM    9  C   UNL     1     -11.867  11.257  68.766  1.00  0.00    -0.396 A  
HETATM   10  C   UNL     1     -11.601  12.442  68.079  1.00  0.00    -0.403 A  
HETATM   11  C   UNL     1     -11.786  13.689  68.685  1.00  0.00    -0.374 A  
HETATM   12  C   UNL     1     -12.183  13.724  70.032  1.00  0.00    -0.407 A  
HETATM   13  C   UNL     1     -12.458  12.515  70.714  1.00  0.00    -0.357 A  
BRANCH  11  14
HETATM   14  O   UNL     1     -11.641  14.874  68.009  1.00  0.00    -0.324 OA 
BRANCH  14  15
HETATM   15  C   UNL     1     -10.527  14.980  67.107  1.00  0.00    -0.277 C  
BRANCH  15  16
HETATM   16  C   UNL     1     -10.984  15.658  65.808  1.00  0.00    -0.248 C  
HETATM   17  H   UNL     1     -10.284  17.040  64.602  1.00  0.00     0.000 HD 
HETATM   18  O   UNL     1     -10.001  16.620  65.406  1.00  0.00    -0.565 OA 
BRANCH  16  19
HETATM   19  C   UNL     1     -11.198  14.654  64.657  1.00  0.00    -0.346 C  
BRANCH  19  20
HETATM   20  N   UNL     1     -10.183  13.596  64.649  1.00  0.00    -0.604 NA 
HETATM   21  H   UNL     1      -9.968  13.296  65.600  1.00  0.00     0.000 HD 
BRANCH  20  22
HETATM   22  C   UNL     1     -10.539  12.443  63.810  1.00  0.00    -0.452 C  
HETATM   23  C   UNL     1     -10.288  11.101  64.511  1.00  0.00    -0.400 C  
HETATM   24  C   UNL     1     -12.023  12.556  63.460  1.00  0.00    -0.629 C  
ENDBRANCH  20  22
ENDBRANCH  19  20
ENDBRANCH  16  19
ENDBRANCH  15  16
ENDBRANCH  14  15
ENDBRANCH  11  14
BRANCH  12  25
HETATM   25  C   UNL     1     -12.400  14.978  70.814  1.00  0.00    -0.343 C  
HETATM   26  C   UNL     1     -11.417  15.430  71.860  1.00  0.00    -0.513 C  
HETATM   27  O   UNL     1     -13.433  15.619  70.618  1.00  0.00    -0.476 OA 
ENDBRANCH  12  25
ENDBRANCH   6   8
ENDBRANCH   3   4
ENDBRANCH   2   3
TORSDOF 10
ENDMDL
MODEL        2
REMARK 921   NORMALIZED FREE ENERGY PREDICTED BY IDOCK:   -6.10 KCAL/MOL
REMARK 922        TOTAL FREE ENERGY PREDICTED BY IDOCK:  -10.70 KCAL/MOL
REMARK 923 INTER-LIGAND FREE ENERGY PREDICTED BY IDOCK:   -9.80 KCAL/MOL
REMARK 924 INTRA-LIGAND FREE ENERGY PREDICTED BY IDOCK:   -0.89 KCAL/MOL
REMARK 927      BINDING AFFINITY PREDICTED BY RF-SCORE:    0.00 PKD
ROOT
HETATM    1  C   UNL     1     -10.080   7.985  72.784  1.00  0.00    -0.378 C  
HETATM    2  C   UNL     1     -10.503   8.967  71.705  1.00  0.00    -0.431 C  
ENDROOT
BRANCH   2   3
HETATM    3  C   UNL     1     -11.999   9.245  71.767  1.00  0.00    -0.455 C  
BRANCH   3   4
HETATM    4  C   UNL     1     -12.331  10.540  71.062  1.00  0.00    -0.399 C  
HETATM    5  O   UNL     1     -13.146  11.317  71.552  1.00  0.00    -0.417 OA 
HETATM    6  N   UNL     1     -11.596  10.739  69.901  1.00  0.00    -0.301 N  
HETATM    7  H   UNL     1     -10.922  10.017  69.646  1.00  0.00     0.000 HD 
BRANCH   6   8
HETATM    8  C   UNL     1     -11.700  11.854  69.041  1.00  0.00    -0.331 A  
HETATM    9  C   UNL     1     -11.664  13.168  69.498  1.00  0.00    -0.382 A  
HETATM   10  C   UNL     1     -11.679  14.239  68.603  1.00  0.00    -0.380 A  
HETATM   11  C   UNL     1     -11.742  14.029  67.221  1.00  0.00    -0.389 A  
HETATM   12  C   UNL     1     -11.860  12.711  66.752  1.00  0.00    -0.440 A  
HETATM   13  C   UNL     1     -11.835  11.634  67.668  1.00  0.00    -0.216 A  
BRANCH  11  14
HETATM   14  O   UNL     1     -11.649  15.049  66.309  1.00  0.00    -0.286 OA 
BRANCH  14  15
HETATM   15  C   UNL     1     -10.331  15.401  65.855  1.00  0.00    -0.341 C  
BRANCH  15  16
HETATM   16  C   UNL     1     -10.360  16.811  65.248  1.00  0.00    -0.052 C  
HETATM   17  H   UNL     1     -11.426  17.756  63.896  1.00  0.00     0.000 HD 
HETATM   18  O   UNL     1     -11.407  16.883  64.271  1.00  0.00    -1.202 OA 
BRANCH  16  19
HETATM   19  C   UNL     1     -10.589  17.910  66.306  1.00  0.00    -0.240 C  
BRANCH  19  20
HETATM   20  N   UNL     1     -10.271  17.448  67.661  1.00  0.00    -0.328 NA 
HETATM   21  H   UNL     1      -9.656  16.636  67.629  1.00  0.00     0.000 HD 
BRANCH  20  22
HETATM   22  C   UNL     1      -9.705  18.495  68.523  1.00  0.00    -0.367 C  
HETATM   23  C   UNL     1      -8.172  18.551  68.456  1.00  0.00    -0.360 C  
HETATM   24  C   UNL     1     -10.275  19.839  68.068  1.00  0.00    -0.581 C  
ENDBRANCH  20  22
ENDBRANCH  19  20
ENDBRANCH  16  19
ENDBRANCH  15  16
ENDBRANCH  14  15
ENDBRANCH  11  14
BRANCH  12  25
HETATM   25  C   UNL     1     -11.956  12.337  65.308  1.00  0.00    -0.331 C  
HETATM   26  C   UNL     1     -10.764  11.812  64.553  1.00  0.00    -0.369 C  
HETATM   27  O   UNL     1     -13.029  12.509  64.728  1.00  0.00    -0.827 OA 
ENDBRANCH  12  25
ENDBRANCH   6   8
ENDBRANCH   3   4
ENDBRANCH   2   3
TORSDOF 10
ENDMDL
MODEL        3
REMARK 921   NORMALIZED FREE ENERGY PREDICTED BY IDOCK:   -6.04 KCAL/MOL
REMARK 922        TOTAL FREE ENERGY PREDICTED BY IDOCK:  -10.61 KCAL/MOL
REMARK 923 INTER-LIGAND FREE ENERGY PREDICTED BY IDOCK:  -10.09 KCAL/MOL
REMARK 924 INTRA-LIGAND FREE ENERGY PREDICTED BY IDOCK:   -0.52 KCAL/MOL
REMARK 927      BINDING AFFINITY PREDICTED BY RF-SCORE:    0.00 PKD
ROOT
HETATM    1  C   UNL     1     -10.780   7.748  72.857  1.00  0.00    -0.446 C  
HETATM    2  C   UNL     1     -11.755   8.212  71.790  1.00  0.00    -0.343 C  
ENDROOT
BRANCH   2   3
HETATM    3  C   UNL     1     -12.788   9.173  72.365  1.00  0.00    -0.438 C  
BRANCH   3   4
HETATM    4  C   UNL     1     -12.788  10.476  71.600  1.00  0.00    -0.475 C  
HETATM    5  O   UNL     1     -13.331  11.469  72.076  1.00  0.00    -0.476 OA 
HETATM    6  N   UNL     1     -12.091  10.413  70.401  1.00  0.00    -0.304 N  
HETATM    7  H   UNL     1     -11.656   9.521  70.162  1.00  0.00     0.000 HD 
BRANCH   6   8
HETATM    8  C   UNL     1     -11.931  11.473  69.484  1.00  0.00    -0.335 A  
HETATM    9  C   UNL     1     -11.797  11.275  68.113  1.00  0.00    -0.276 A  
HETATM   10  C   UNL     1     -11.732  12.358  67.235  1.00  0.00    -0.419 A  
HETATM   11  C   UNL     1     -11.789  13.675  67.702  1.00  0.00    -0.369 A  
HETATM   12  C   UNL     1     -11.843  13.890  69.088  1.00  0.00    -0.401 A  
HETATM   13  C   UNL     1     -11.916  12.784  69.967  1.00  0.00    -0.371 A  
BRANCH  11  14
HETATM   14  O   UNL     1     -11.838  14.760  66.864  1.00  0.00    -0.354 OA 
BRANCH  14  15
HETATM   15  C   UNL     1     -11.653  14.512  65.460  1.00  0.00    -0.350 C  
BRANCH  15  16
HETATM   16  C   UNL     1     -10.830  15.651  64.844  1.00  0.00    -0.418 C  
HETATM   17  H   UNL     1     -11.131  17.068  63.519  1.00  0.00     0.000 HD 
HETATM   18  O   UNL     1     -11.640  16.363  63.900  1.00  0.00    -1.100 OA 
BRANCH  16  19
HETATM   19  C   UNL     1     -10.306  16.646  65.901  1.00  0.00    -0.340 C  
BRANCH  19  20
HETATM   20  N   UNL     1     -10.478  18.040  65.482  1.00  0.00    -0.608 NA 
HETATM   21  H   UNL     1     -11.468  18.283  65.438  1.00  0.00     0.000 HD 
BRANCH  20  22
HETATM   22  C   UNL     1      -9.744  19.002  66.316  1.00  0.00    -0.354 C  
HETATM   23  C   UNL     1     -10.636  19.672  67.371  1.00  0.00    -0.589 C  
HETATM   24  C   UNL     1      -8.617  18.247  67.021  1.00  0.00    -0.259 C  
ENDBRANCH  20  22
ENDBRANCH  19  20
ENDBRANCH  16  19
ENDBRANCH  15  16
ENDBRANCH  14  15
ENDBRANCH  11  14
BRANCH  12  25
HETATM   25  C   UNL     1     -11.887  15.238  69.732  1.00  0.00    -0.332 C  
HETATM   26  C   UNL     1     -10.704  16.168  69.685  1.00  0.00    -0.325 C  
HETATM   27  O   UNL     1     -12.904  15.561  70.347  1.00  0.00    -0.410 OA 
ENDBRANCH  12  25
ENDBRANCH   6   8
ENDBRANCH   3   4
ENDBRANCH   2   3
TORSDOF 10
ENDMDL
MODEL        4
REMARK 921   NORMALIZED FREE ENERGY PREDICTED BY IDOCK:   -6.04 KCAL/MOL
REMARK 922        TOTAL FREE ENERGY PREDICTED BY IDOCK:  -10.60 KCAL/MOL
REMARK 923 INTER-LIGAND FREE ENERGY PREDICTED BY IDOCK:   -9.82 KCAL/MOL
REMARK 924 INTRA-LIGAND FREE ENERGY PREDICTED BY IDOCK:   -0.78 KCAL/MOL
REMARK 927      BINDING AFFINITY PREDICTED BY RF-SCORE:    0.00 PKD
ROOT
HETATM    1  C   UNL     1     -10.779   6.391  73.037  1.00  0.00    -0.286 C  
HETATM    2  C   UNL     1     -10.891   7.890  72.819  1.00  0.00    -0.451 C  
ENDROOT
BRANCH   2   3
HETATM    3  C   UNL     1     -11.749   8.208  71.602  1.00  0.00    -0.330 C  
BRANCH   3   4
HETATM    4  C   UNL     1     -11.192   9.396  70.852  1.00  0.00    -0.325 C  
HETATM    5  O   UNL     1      -9.980   9.591  70.823  1.00  0.00    -0.278 OA 
HETATM    6  N   UNL     1     -12.164  10.143  70.201  1.00  0.00    -0.484 N  
HETATM    7  H   UNL     1     -13.130   9.826  70.286  1.00  0.00     0.000 HD 
BRANCH   6   8
HETATM    8  C   UNL     1     -11.933  11.304  69.432  1.00  0.00    -0.341 A  
HETATM    9  C   UNL     1     -11.721  11.271  68.057  1.00  0.00    -0.305 A  
HETATM   10  C   UNL     1     -11.587  12.451  67.324  1.00  0.00    -0.435 A  
HETATM   11  C   UNL     1     -11.650  13.703  67.945  1.00  0.00    -0.341 A  
HETATM   12  C   UNL     1     -11.782  13.748  69.342  1.00  0.00    -0.379 A  
HETATM   13  C   UNL     1     -11.926  12.545  70.073  1.00  0.00    -0.372 A  
BRANCH  11  14
HETATM   14  O   UNL     1     -11.632  14.882  67.246  1.00  0.00    -0.360 OA 
BRANCH  14  15
HETATM   15  C   UNL     1     -11.547  14.792  65.814  1.00  0.00    -0.290 C  
BRANCH  15  16
HETATM   16  C   UNL     1     -10.618  15.895  65.287  1.00  0.00    -0.419 C  
HETATM   17  H   UNL     1     -10.725  17.325  63.946  1.00  0.00     0.000 HD 
HETATM   18  O   UNL     1     -11.300  16.642  64.271  1.00  0.00    -1.116 OA 
BRANCH  16  19
HETATM   19  C   UNL     1     -10.159  16.866  66.395  1.00  0.00    -0.322 C  
BRANCH  19  20
HETATM   20  N   UNL     1      -9.095  17.766  65.937  1.00  0.00    -0.512 NA 
HETATM   21  H   UNL     1      -9.093  17.831  64.920  1.00  0.00     0.000 HD 
BRANCH  20  22
HETATM   22  C   UNL     1      -9.153  19.103  66.544  1.00  0.00    -0.341 C  
HETATM   23  C   UNL     1     -10.484  19.819  66.273  1.00  0.00    -0.614 C  
HETATM   24  C   UNL     1      -8.969  18.943  68.053  1.00  0.00    -0.338 C  
ENDBRANCH  20  22
ENDBRANCH  19  20
ENDBRANCH  16  19
ENDBRANCH  15  16
ENDBRANCH  14  15
ENDBRANCH  11  14
BRANCH  12  25
HETATM   25  C   UNL     1     -11.843  15.008  70.143  1.00  0.00    -0.314 C  
HETATM   26  C   UNL     1     -13.058  15.360  70.958  1.00  0.00    -0.565 C  
HETATM   27  O   UNL     1     -10.889  15.785  70.087  1.00  0.00    -0.299 OA 
ENDBRANCH  12  25
ENDBRANCH   6   8
ENDBRANCH   3   4
ENDBRANCH   2   3
TORSDOF 10
ENDMDL
MODEL        5
REMARK 921   NORMALIZED FREE ENERGY PREDICTED BY IDOCK:   -5.92 KCAL/MOL
REMARK 922        TOTAL FREE ENERGY PREDICTED BY IDOCK:  -10.40 KCAL/MOL
REMARK 923 INTER-LIGAND FREE ENERGY PREDICTED BY IDOCK:   -9.45 KCAL/MOL
REMARK 924 INTRA-LIGAND FREE ENERGY PREDICTED BY IDOCK:   -0.96 KCAL/MOL
REMARK 927      BINDING AFFINITY PREDICTED BY RF-SCORE:    0.00 PKD
ROOT
HETATM    1  C   UNL     1     -13.302   7.989  71.765  1.00  0.00    -0.370 C  
HETATM    2  C   UNL     1     -12.571   9.317  71.859  1.00  0.00    -0.468 C  
ENDROOT
BRANCH   2   3
HETATM    3  C   UNL     1     -11.136   9.194  71.366  1.00  0.00    -0.415 C  
BRANCH   3   4
HETATM    4  C   UNL     1     -10.844  10.234  70.309  1.00  0.00    -0.286 C  
HETATM    5  O   UNL     1      -9.790  10.194  69.680  1.00  0.00    -0.224 OA 
HETATM    6  N   UNL     1     -11.882  11.137  70.121  1.00  0.00    -0.336 N  
HETATM    7  H   UNL     1     -12.716  11.013  70.695  1.00  0.00     0.000 HD 
BRANCH   6   8
HETATM    8  C   UNL     1     -11.884  12.212  69.207  1.00  0.00    -0.313 A  
HETATM    9  C   UNL     1     -11.805  13.543  69.603  1.00  0.00    -0.398 A  
HETATM   10  C   UNL     1     -11.718  14.569  68.660  1.00  0.00    -0.364 A  
HETATM   11  C   UNL     1     -11.719  14.295  67.289  1.00  0.00    -0.395 A  
HETATM   12  C   UNL     1     -11.879  12.963  66.875  1.00  0.00    -0.444 A  
HETATM   13  C   UNL     1     -11.957  11.932  67.840  1.00  0.00    -0.189 A  
BRANCH  11  14
HETATM   14  O   UNL     1     -11.525  15.263  66.337  1.00  0.00    -0.238 OA 
BRANCH  14  15
HETATM   15  C   UNL     1     -10.210  15.837  66.245  1.00  0.00    -0.303 C  
BRANCH  15  16
HETATM   16  C   UNL     1     -10.315  17.272  65.710  1.00  0.00    -0.234 C  
HETATM   17  H   UNL     1     -11.225  18.172  64.221  1.00  0.00     0.000 HD 
HETATM   18  O   UNL     1     -11.159  17.284  64.552  1.00  0.00    -1.082 OA 
BRANCH  16  19
HETATM   19  C   UNL     1     -10.886  18.255  66.753  1.00  0.00    -0.074 C  
BRANCH  19  20
HETATM   20  N   UNL     1     -10.221  18.131  68.054  1.00  0.00    -0.362 NA 
HETATM   21  H   UNL     1      -9.622  17.306  68.074  1.00  0.00     0.000 HD 
BRANCH  20  22
HETATM   22  C   UNL     1      -9.466  19.329  68.447  1.00  0.00    -0.376 C  
HETATM   23  C   UNL     1      -7.952  19.086  68.493  1.00  0.00    -0.381 C  
HETATM   24  C   UNL     1      -9.766  20.429  67.428  1.00  0.00    -0.597 C  
ENDBRANCH  20  22
ENDBRANCH  19  20
ENDBRANCH  16  19
ENDBRANCH  15  16
ENDBRANCH  14  15
ENDBRANCH  11  14
BRANCH  12  25
HETATM   25  C   UNL     1     -11.918  12.524  65.447  1.00  0.00    -0.437 C  
HETATM   26  C   UNL     1     -10.662  12.146  64.708  1.00  0.00    -0.342 C  
HETATM   27  O   UNL     1     -13.004  12.520  64.865  1.00  0.00    -0.821 OA 
ENDBRANCH  12  25
ENDBRANCH   6   8
ENDBRANCH   3   4
ENDBRANCH   2   3
TORSDOF 10
ENDMDL
MODEL        6
REMARK 921   NORMALIZED FREE ENERGY PREDICTED BY IDOCK:   -5.90 KCAL/MOL
REMARK 922        TOTAL FREE ENERGY PREDICTED BY IDOCK:  -10.38 KCAL/MOL
REMARK 923 INTER-LIGAND FREE ENERGY PREDICTED BY IDOCK:   -9.53 KCAL/MOL
REMARK 924 INTRA-LIGAND FREE ENERGY PREDICTED BY IDOCK:   -0.85 KCAL/MOL
REMARK 927      BINDING AFFINITY PREDICTED BY RF-SCORE:    0.00 PKD
ROOT
HETATM    1  C   UNL     1     -14.389   7.616  71.667  1.00  0.00    -0.613 C  
HETATM    2  C   UNL     1     -13.567   8.825  72.078  1.00  0.00    -0.469 C  
ENDROOT
BRANCH   2   3
HETATM    3  C   UNL     1     -12.074   8.538  71.977  1.00  0.00    -0.428 C  
BRANCH   3   4
HETATM    4  C   UNL     1     -11.391   9.568  71.107  1.00  0.00    -0.370 C  
HETATM    5  O   UNL     1     -10.170   9.690  71.141  1.00  0.00    -0.272 OA 
HETATM    6  N   UNL     1     -12.267  10.262  70.283  1.00  0.00    -0.433 N  
HETATM    7  H   UNL     1     -13.255  10.015  70.340  1.00  0.00     0.000 HD 
BRANCH   6   8
HETATM    8  C   UNL     1     -11.909  11.280  69.373  1.00  0.00    -0.355 A  
HETATM    9  C   UNL     1     -11.986  12.634  69.683  1.00  0.00    -0.352 A  
HETATM   10  C   UNL     1     -11.536  13.603  68.784  1.00  0.00    -0.359 A  
HETATM   11  C   UNL     1     -11.005  13.247  67.540  1.00  0.00    -0.263 A  
HETATM   12  C   UNL     1     -10.996  11.889  67.182  1.00  0.00    -0.319 A  
HETATM   13  C   UNL     1     -11.446  10.917  68.106  1.00  0.00    -0.368 A  
BRANCH  11  14
HETATM   14  O   UNL     1     -10.453  14.160  66.678  1.00  0.00    -0.274 OA 
BRANCH  14  15
HETATM   15  C   UNL     1     -11.361  14.997  65.944  1.00  0.00    -0.273 C  
BRANCH  15  16
HETATM   16  C   UNL     1     -10.597  16.196  65.365  1.00  0.00    -0.380 C  
HETATM   17  H   UNL     1     -10.869  17.492  63.915  1.00  0.00     0.000 HD 
HETATM   18  O   UNL     1     -11.343  16.750  64.273  1.00  0.00    -1.170 OA 
BRANCH  16  19
HETATM   19  C   UNL     1     -10.347  17.303  66.410  1.00  0.00    -0.316 C  
BRANCH  19  20
HETATM   20  N   UNL     1     -10.314  18.638  65.805  1.00  0.00    -0.592 NA 
HETATM   21  H   UNL     1     -11.230  19.082  65.862  1.00  0.00     0.000 HD 
BRANCH  20  22
HETATM   22  C   UNL     1      -9.277  19.515  66.366  1.00  0.00    -0.371 C  
HETATM   23  C   UNL     1      -9.793  20.373  67.529  1.00  0.00    -0.564 C  
HETATM   24  C   UNL     1      -8.134  18.631  66.866  1.00  0.00    -0.256 C  
ENDBRANCH  20  22
ENDBRANCH  19  20
ENDBRANCH  16  19
ENDBRANCH  15  16
ENDBRANCH  14  15
ENDBRANCH  11  14
BRANCH  12  25
HETATM   25  C   UNL     1     -10.479  11.364  65.883  1.00  0.00    -0.258 C  
HETATM   26  C   UNL     1      -9.117  10.731  65.779  1.00  0.00    -0.208 C  
HETATM   27  O   UNL     1     -11.176  11.500  64.877  1.00  0.00    -0.263 OA 
ENDBRANCH  12  25
ENDBRANCH   6   8
ENDBRANCH   3   4
ENDBRANCH   2   3
TORSDOF 10
ENDMDL
MODEL        7
REMARK 921   NORMALIZED FREE ENERGY PREDICTED BY IDOCK:   -5.88 KCAL/MOL
REMARK 922        TOTAL FREE ENERGY PREDICTED BY IDOCK:  -10.35 KCAL/MOL
REMARK 923 INTER-LIGAND FREE ENERGY PREDICTED BY IDOCK:   -9.69 KCAL/MOL
REMARK 924 INTRA-LIGAND FREE ENERGY PREDICTED BY IDOCK:   -0.66 KCAL/MOL
REMARK 927      BINDING AFFINITY PREDICTED BY RF-SCORE:    0.00 PKD
ROOT
HETATM    1  C   UNL     1     -10.509   7.203  72.742  1.00  0.00    -0.278 C  
HETATM    2  C   UNL     1     -10.782   8.591  72.188  1.00  0.00    -0.426 C  
ENDROOT
BRANCH   2   3
HETATM    3  C   UNL     1     -12.266   8.796  71.919  1.00  0.00    -0.429 C  
BRANCH   3   4
HETATM    4  C   UNL     1     -12.518  10.169  71.339  1.00  0.00    -0.423 C  
HETATM    5  O   UNL     1     -13.226  10.971  71.940  1.00  0.00    -0.473 OA 
HETATM    6  N   UNL     1     -11.839  10.399  70.150  1.00  0.00    -0.302 N  
HETATM    7  H   UNL     1     -11.251   9.643  69.795  1.00  0.00     0.000 HD 
BRANCH   6   8
HETATM    8  C   UNL     1     -11.891  11.586  69.387  1.00  0.00    -0.350 A  
HETATM    9  C   UNL     1     -11.924  12.853  69.961  1.00  0.00    -0.380 A  
HETATM   10  C   UNL     1     -11.883  14.001  69.167  1.00  0.00    -0.391 A  
HETATM   11  C   UNL     1     -11.818  13.916  67.773  1.00  0.00    -0.380 A  
HETATM   12  C   UNL     1     -11.865  12.645  67.178  1.00  0.00    -0.399 A  
HETATM   13  C   UNL     1     -11.897  11.490  67.993  1.00  0.00    -0.287 A  
BRANCH  11  14
HETATM   14  O   UNL     1     -11.666  15.016  66.967  1.00  0.00    -0.309 OA 
BRANCH  14  15
HETATM   15  C   UNL     1     -10.654  15.966  67.341  1.00  0.00    -0.315 C  
BRANCH  15  16
HETATM   16  C   UNL     1      -9.723  16.218  66.147  1.00  0.00    -0.329 C  
HETATM   17  H   UNL     1      -9.910  16.914  64.320  1.00  0.00     0.000 HD 
HETATM   18  O   UNL     1     -10.486  16.757  65.059  1.00  0.00    -0.675 OA 
BRANCH  16  19
HETATM   19  C   UNL     1      -8.576  17.194  66.482  1.00  0.00    -0.271 C  
BRANCH  19  20
HETATM   20  N   UNL     1      -8.844  18.551  65.997  1.00  0.00    -0.489 NA 
HETATM   21  H   UNL     1      -9.551  18.537  65.262  1.00  0.00     0.000 HD 
BRANCH  20  22
HETATM   22  C   UNL     1      -9.217  19.494  67.060  1.00  0.00    -0.332 C  
HETATM   23  C   UNL     1     -10.737  19.612  67.239  1.00  0.00    -0.583 C  
HETATM   24  C   UNL     1      -8.596  19.000  68.366  1.00  0.00    -0.383 C  
ENDBRANCH  20  22
ENDBRANCH  19  20
ENDBRANCH  16  19
ENDBRANCH  15  16
ENDBRANCH  14  15
ENDBRANCH  11  14
BRANCH  12  25
HETATM   25  C   UNL     1     -11.824  12.402  65.704  1.00  0.00    -0.409 C  
HETATM   26  C   UNL     1     -10.541  12.044  65.004  1.00  0.00    -0.332 C  
HETATM   27  O   UNL     1     -12.863  12.546  65.058  1.00  0.00    -0.742 OA 
ENDBRANCH  12  25
ENDBRANCH   6   8
ENDBRANCH   3   4
ENDBRANCH   2   3
TORSDOF 10
ENDMDL
MODEL        8
REMARK 921   NORMALIZED FREE ENERGY PREDICTED BY IDOCK:   -5.80 KCAL/MOL
REMARK 922        TOTAL FREE ENERGY PREDICTED BY IDOCK:  -10.22 KCAL/MOL
REMARK 923 INTER-LIGAND FREE ENERGY PREDICTED BY IDOCK:   -9.05 KCAL/MOL
REMARK 924 INTRA-LIGAND FREE ENERGY PREDICTED BY IDOCK:   -1.17 KCAL/MOL
REMARK 927      BINDING AFFINITY PREDICTED BY RF-SCORE:    0.00 PKD
ROOT
HETATM    1  C   UNL     1     -10.079  19.911  66.109  1.00  0.00    -0.611 C  
HETATM    2  C   UNL     1     -10.782  19.494  67.389  1.00  0.00    -0.589 C  
ENDROOT
BRANCH   2   3
HETATM    3  C   UNL     1      -9.788  18.982  68.423  1.00  0.00    -0.454 C  
BRANCH   3   4
HETATM    4  C   UNL     1      -9.687  17.475  68.366  1.00  0.00    -0.316 C  
HETATM    5  O   UNL     1      -8.598  16.925  68.503  1.00  0.00    -0.233 OA 
HETATM    6  N   UNL     1     -10.914  16.846  68.207  1.00  0.00    -0.349 N  
HETATM    7  H   UNL     1     -11.740  17.442  68.149  1.00  0.00     0.000 HD 
BRANCH   6   8
HETATM    8  C   UNL     1     -11.119  15.452  68.117  1.00  0.00    -0.309 A  
HETATM    9  C   UNL     1     -11.083  14.608  69.222  1.00  0.00    -0.290 A  
HETATM   10  C   UNL     1     -11.382  13.250  69.099  1.00  0.00    -0.336 A  
HETATM   11  C   UNL     1     -11.716  12.691  67.861  1.00  0.00    -0.358 A  
HETATM   12  C   UNL     1     -11.678  13.514  66.725  1.00  0.00    -0.430 A  
HETATM   13  C   UNL     1     -11.383  14.890  66.865  1.00  0.00    -0.338 A  
BRANCH  11  14
HETATM   14  O   UNL     1     -12.121  11.388  67.719  1.00  0.00    -0.637 OA 
BRANCH  14  15
HETATM   15  C   UNL     1     -11.168  10.366  68.056  1.00  0.00    -0.272 C  
BRANCH  15  16
HETATM   16  C   UNL     1     -10.454   9.894  66.781  1.00  0.00    -0.191 C  
HETATM   17  H   UNL     1      -8.723  10.224  65.915  1.00  0.00     0.000 HD 
HETATM   18  O   UNL     1      -9.165  10.517  66.704  1.00  0.00    -0.154 OA 
BRANCH  16  19
HETATM   19  C   UNL     1     -10.272   8.363  66.734  1.00  0.00    -0.306 C  
BRANCH  19  20
HETATM   20  N   UNL     1     -11.023   7.683  67.794  1.00  0.00    -0.501 NA 
HETATM   21  H   UNL     1     -11.845   7.217  67.410  1.00  0.00     0.000 HD 
BRANCH  20  22
HETATM   22  C   UNL     1     -10.213   6.743  68.581  1.00  0.00    -0.175 C  
HETATM   23  C   UNL     1      -9.020   7.423  69.269  1.00  0.00    -0.136 C  
HETATM   24  C   UNL     1     -11.116   6.121  69.647  1.00  0.00    -0.489 C  
ENDBRANCH  20  22
ENDBRANCH  19  20
ENDBRANCH  16  19
ENDBRANCH  15  16
ENDBRANCH  14  15
ENDBRANCH  11  14
BRANCH  12  25
HETATM   25  C   UNL     1     -11.990  13.052  65.339  1.00  0.00    -0.414 C  
HETATM   26  C   UNL     1     -10.898  12.754  64.347  1.00  0.00    -0.395 C  
HETATM   27  O   UNL     1     -13.172  12.962  65.003  1.00  0.00    -0.765 OA 
ENDBRANCH  12  25
ENDBRANCH   6   8
ENDBRANCH   3   4
ENDBRANCH   2   3
TORSDOF 10
ENDMDL
MODEL        9
REMARK 921   NORMALIZED FREE ENERGY PREDICTED BY IDOCK:   -5.76 KCAL/MOL
REMARK 922        TOTAL FREE ENERGY PREDICTED BY IDOCK:  -10.16 KCAL/MOL
REMARK 923 INTER-LIGAND FREE ENERGY PREDICTED BY IDOCK:   -9.56 KCAL/MOL
REMARK 924 INTRA-LIGAND FREE ENERGY PREDICTED BY IDOCK:   -0.60 KCAL/MOL
REMARK 927      BINDING AFFINITY PREDICTED BY RF-SCORE:    0.00 PKD
ROOT
HETATM    1  C   UNL     1     -12.302  16.472  74.170  1.00  0.00    -0.488 C  
HETATM    2  C   UNL     1     -12.775  15.144  73.604  1.00  0.00    -0.683 C  
ENDROOT
BRANCH   2   3
HETATM    3  C   UNL     1     -13.581  15.343  72.328  1.00  0.00    -0.606 C  
BRANCH   3   4
HETATM    4  C   UNL     1     -12.975  14.558  71.187  1.00  0.00    -0.346 C  
HETATM    5  O   UNL     1     -12.913  13.333  71.247  1.00  0.00    -0.328 OA 
HETATM    6  N   UNL     1     -12.584  15.352  70.118  1.00  0.00    -0.589 N  
HETATM    7  H   UNL     1     -12.741  16.356  70.201  1.00  0.00     0.000 HD 
BRANCH   6   8
HETATM    8  C   UNL     1     -11.986  14.891  68.925  1.00  0.00    -0.260 A  
HETATM    9  C   UNL     1     -12.103  13.579  68.477  1.00  0.00    -0.303 A  
HETATM   10  C   UNL     1     -11.572  13.191  67.246  1.00  0.00    -0.404 A  
HETATM   11  C   UNL     1     -10.896  14.102  66.428  1.00  0.00    -0.304 A  
HETATM   12  C   UNL     1     -10.701  15.408  66.904  1.00  0.00    -0.314 A  
HETATM   13  C   UNL     1     -11.252  15.792  68.149  1.00  0.00    -0.344 A  
BRANCH  11  14
HETATM   14  O   UNL     1     -10.457  13.786  65.167  1.00  0.00    -0.340 OA 
BRANCH  14  15
HETATM   15  C   UNL     1     -11.458  13.619  64.149  1.00  0.00    -0.329 C  
BRANCH  15  16
HETATM   16  C   UNL     1     -11.767  12.125  63.977  1.00  0.00    -0.430 C  
HETATM   17  H   UNL     1     -13.184  11.052  63.143  1.00  0.00     0.000 HD 
HETATM   18  O   UNL     1     -12.994  11.977  63.250  1.00  0.00    -0.736 OA 
BRANCH  16  19
HETATM   19  C   UNL     1     -10.649  11.370  63.228  1.00  0.00    -0.305 C  
BRANCH  19  20
HETATM   20  N   UNL     1      -9.407  11.307  64.005  1.00  0.00    -0.372 NA 
HETATM   21  H   UNL     1      -9.444  11.950  64.795  1.00  0.00     0.000 HD 
BRANCH  20  22
HETATM   22  C   UNL     1      -9.061   9.951  64.455  1.00  0.00    -0.254 C  
HETATM   23  C   UNL     1      -7.555   9.773  64.691  1.00  0.00    -0.134 C  
HETATM   24  C   UNL     1      -9.808   9.685  65.763  1.00  0.00    -0.373 C  
ENDBRANCH  20  22
ENDBRANCH  19  20
ENDBRANCH  16  19
ENDBRANCH  15  16
ENDBRANCH  14  15
ENDBRANCH  11  14
BRANCH  12  25
HETATM   25  C   UNL     1      -9.983  16.481  66.151  1.00  0.00    -0.343 C  
HETATM   26  C   UNL     1      -8.552  16.831  66.459  1.00  0.00    -0.312 C  
HETATM   27  O   UNL     1     -10.604  17.112  65.295  1.00  0.00    -0.662 OA 
ENDBRANCH  12  25
ENDBRANCH   6   8
ENDBRANCH   3   4
ENDBRANCH   2   3
TORSDOF 10
ENDMDL
MODEL       10
REMARK 921   NORMALIZED FREE ENERGY PREDICTED BY IDOCK:   -5.63 KCAL/MOL
REMARK 922        TOTAL FREE ENERGY PREDICTED BY IDOCK:   -9.95 KCAL/MOL
REMARK 923 INTER-LIGAND FREE ENERGY PREDICTED BY IDOCK:   -9.30 KCAL/MOL
REMARK 924 INTRA-LIGAND FREE ENERGY PREDICTED BY IDOCK:   -0.65 KCAL/MOL
REMARK 927      BINDING AFFINITY PREDICTED BY RF-SCORE:    0.00 PKD
ROOT
HETATM    1  C   UNL     1     -10.338  19.102  65.956  1.00  0.00    -0.538 C  
HETATM    2  C   UNL     1     -10.910  19.572  67.282  1.00  0.00    -0.557 C  
ENDROOT
BRANCH   2   3
HETATM    3  C   UNL     1     -10.029  19.144  68.447  1.00  0.00    -0.493 C  
BRANCH   3   4
HETATM    4  C   UNL     1      -9.913  17.638  68.503  1.00  0.00    -0.368 C  
HETATM    5  O   UNL     1      -8.808  17.108  68.572  1.00  0.00    -0.251 OA 
HETATM    6  N   UNL     1     -11.141  16.990  68.522  1.00  0.00    -0.246 N  
HETATM    7  H   UNL     1     -11.976  17.575  68.502  1.00  0.00     0.000 HD 
BRANCH   6   8
HETATM    8  C   UNL     1     -11.334  15.593  68.567  1.00  0.00    -0.360 A  
HETATM    9  C   UNL     1     -11.390  14.874  69.757  1.00  0.00    -0.314 A  
HETATM   10  C   UNL     1     -11.673  13.507  69.757  1.00  0.00    -0.363 A  
HETATM   11  C   UNL     1     -11.900  12.813  68.564  1.00  0.00    -0.306 A  
HETATM   12  C   UNL     1     -11.768  13.509  67.352  1.00  0.00    -0.419 A  
HETATM   13  C   UNL     1     -11.489  14.896  67.366  1.00  0.00    -0.354 A  
BRANCH  11  14
HETATM   14  O   UNL     1     -12.289  11.498  68.531  1.00  0.00    -0.459 OA 
BRANCH  14  15
HETATM   15  C   UNL     1     -11.361  10.529  69.047  1.00  0.00    -0.257 C  
BRANCH  15  16
HETATM   16  C   UNL     1     -11.658  10.279  70.533  1.00  0.00    -0.338 C  
HETATM   17  H   UNL     1     -13.235  10.347  71.700  1.00  0.00     0.000 HD 
HETATM   18  O   UNL     1     -13.052  10.503  70.780  1.00  0.00    -0.364 OA 
BRANCH  16  19
HETATM   19  C   UNL     1     -11.296   8.847  70.978  1.00  0.00    -0.291 C  
BRANCH  19  20
HETATM   20  N   UNL     1     -11.344   7.892  69.866  1.00  0.00    -0.457 NA 
HETATM   21  H   UNL     1     -10.454   7.876  69.368  1.00  0.00     0.000 HD 
BRANCH  20  22
HETATM   22  C   UNL     1     -11.738   6.535  70.270  1.00  0.00    -0.366 C  
HETATM   23  C   UNL     1     -10.706   5.474  69.865  1.00  0.00    -0.358 C  
HETATM   24  C   UNL     1     -11.896   6.525  71.791  1.00  0.00    -0.384 C  
ENDBRANCH  20  22
ENDBRANCH  19  20
ENDBRANCH  16  19
ENDBRANCH  15  16
ENDBRANCH  14  15
ENDBRANCH  11  14
BRANCH  12  25
HETATM   25  C   UNL     1     -11.960  12.896  66.003  1.00  0.00    -0.446 C  
HETATM   26  C   UNL     1     -10.986  11.889  65.454  1.00  0.00    -0.352 C  
HETATM   27  O   UNL     1     -12.917  13.268  65.322  1.00  0.00    -0.659 OA 
ENDBRANCH  12  25
ENDBRANCH   6   8
ENDBRANCH   3   4
ENDBRANCH   2   3
TORSDOF 10
ENDMDL
MODEL       11
REMARK 921   NORMALIZED FREE ENERGY PREDICTED BY IDOCK:   -5.61 KCAL/MOL
REMARK 922        TOTAL FREE ENERGY PREDICTED BY IDOCK:   -9.92 KCAL/MOL
REMARK 923 INTER-LIGAND FREE ENERGY PREDICTED BY IDOCK:   -9.10 KCAL/MOL
REMARK 924 INTRA-LIGAND FREE ENERGY PREDICTED BY IDOCK:   -0.82 KCAL/MOL
REMARK 927      BINDING AFFINITY PREDICTED BY RF-SCORE:    0.00 PKD
ROOT
HETATM    1  C   UNL     1     -11.237   6.200  72.646  1.00  0.00    -0.312 C  
HETATM    2  C   UNL     1     -12.034   6.761  71.481  1.00  0.00    -0.396 C  
ENDROOT
BRANCH   2   3
HETATM    3  C   UNL     1     -12.791   8.019  71.884  1.00  0.00    -0.343 C  
BRANCH   3   4
HETATM    4  C   UNL     1     -12.074   9.254  71.390  1.00  0.00    -0.348 C  
HETATM    5  O   UNL     1     -10.880   9.409  71.628  1.00  0.00    -0.368 OA 
HETATM    6  N   UNL     1     -12.881  10.097  70.638  1.00  0.00    -0.518 N  
HETATM    7  H   UNL     1     -13.849   9.808  70.492  1.00  0.00     0.000 HD 
BRANCH   6   8
HETATM    8  C   UNL     1     -12.480  11.319  70.056  1.00  0.00    -0.182 A  
HETATM    9  C   UNL     1     -11.939  11.407  68.778  1.00  0.00    -0.353 A  
HETATM   10  C   UNL     1     -11.641  12.647  68.209  1.00  0.00    -0.377 A  
HETATM   11  C   UNL     1     -11.865  13.838  68.907  1.00  0.00    -0.360 A  
HETATM   12  C   UNL     1     -12.335  13.759  70.228  1.00  0.00    -0.407 A  
HETATM   13  C   UNL     1     -12.642  12.497  70.789  1.00  0.00    -0.299 A  
BRANCH  11  14
HETATM   14  O   UNL     1     -11.689  15.075  68.342  1.00  0.00    -0.324 OA 
BRANCH  14  15
HETATM   15  C   UNL     1     -11.333  15.114  66.950  1.00  0.00    -0.264 C  
BRANCH  15  16
HETATM   16  C   UNL     1     -10.110  16.023  66.761  1.00  0.00    -0.268 C  
HETATM   17  H   UNL     1      -9.203  16.891  65.251  1.00  0.00     0.000 HD 
HETATM   18  O   UNL     1      -9.959  16.328  65.368  1.00  0.00    -0.514 OA 
BRANCH  16  19
HETATM   19  C   UNL     1     -10.223  17.344  67.551  1.00  0.00    -0.332 C  
BRANCH  19  20
HETATM   20  N   UNL     1      -9.069  18.222  67.329  1.00  0.00    -0.254 NA 
HETATM   21  H   UNL     1      -8.518  17.898  66.535  1.00  0.00     0.000 HD 
BRANCH  20  22
HETATM   22  C   UNL     1      -9.428  19.638  67.169  1.00  0.00    -0.340 C  
HETATM   23  C   UNL     1     -10.353  19.882  65.969  1.00  0.00    -0.591 C  
HETATM   24  C   UNL     1     -10.136  20.091  68.446  1.00  0.00    -0.513 C  
ENDBRANCH  20  22
ENDBRANCH  19  20
ENDBRANCH  16  19
ENDBRANCH  15  16
ENDBRANCH  14  15
ENDBRANCH  11  14
BRANCH  12  25
HETATM   25  C   UNL     1     -12.601  14.943  71.100  1.00  0.00    -0.335 C  
HETATM   26  C   UNL     1     -11.627  15.364  72.167  1.00  0.00    -0.554 C  
HETATM   27  O   UNL     1     -13.665  15.547  70.959  1.00  0.00    -0.546 OA 
ENDBRANCH  12  25
ENDBRANCH   6   8
ENDBRANCH   3   4
ENDBRANCH   2   3
TORSDOF 10
ENDMDL
MODEL       12
REMARK 921   NORMALIZED FREE ENERGY PREDICTED BY IDOCK:   -5.58 KCAL/MOL
REMARK 922        TOTAL FREE ENERGY PREDICTED BY IDOCK:   -9.87 KCAL/MOL
REMARK 923 INTER-LIGAND FREE ENERGY PREDICTED BY IDOCK:   -9.02 KCAL/MOL
REMARK 924 INTRA-LIGAND FREE ENERGY PREDICTED BY IDOCK:   -0.85 KCAL/MOL
REMARK 927      BINDING AFFINITY PREDICTED BY RF-SCORE:    0.00 PKD
ROOT
HETATM    1  C   UNL     1     -13.243   9.963  71.961  1.00  0.00    -0.555 C  
HETATM    2  C   UNL     1     -13.016  11.347  71.379  1.00  0.00    -0.468 C  
ENDROOT
BRANCH   2   3
HETATM    3  C   UNL     1     -12.032  11.303  70.217  1.00  0.00    -0.466 C  
BRANCH   3   4
HETATM    4  C   UNL     1     -11.770  12.694  69.688  1.00  0.00    -0.303 C  
HETATM    5  O   UNL     1     -12.448  13.640  70.081  1.00  0.00    -0.308 OA 
HETATM    6  N   UNL     1     -10.699  12.757  68.807  1.00  0.00    -0.320 N  
HETATM    7  H   UNL     1     -10.205  11.886  68.612  1.00  0.00     0.000 HD 
BRANCH   6   8
HETATM    8  C   UNL     1     -10.233  13.921  68.158  1.00  0.00    -0.249 A  
HETATM    9  C   UNL     1      -9.164  14.675  68.632  1.00  0.00    -0.194 A  
HETATM   10  C   UNL     1      -8.680  15.766  67.909  1.00  0.00    -0.170 A  
HETATM   11  C   UNL     1      -9.258  16.144  66.693  1.00  0.00    -0.246 A  
HETATM   12  C   UNL     1     -10.386  15.441  66.243  1.00  0.00    -0.304 A  
HETATM   13  C   UNL     1     -10.862  14.332  66.981  1.00  0.00    -0.297 A  
BRANCH  11  14
HETATM   14  O   UNL     1      -8.742  17.139  65.902  1.00  0.00    -0.526 OA 
BRANCH  14  15
HETATM   15  C   UNL     1      -7.324  17.364  65.974  1.00  0.00    -0.229 C  
BRANCH  15  16
HETATM   16  C   UNL     1      -7.041  18.871  65.911  1.00  0.00    -0.260 C  
HETATM   17  H   UNL     1      -6.060  20.086  64.721  1.00  0.00     0.000 HD 
HETATM   18  O   UNL     1      -6.235  19.153  64.760  1.00  0.00    -0.342 OA 
BRANCH  16  19
HETATM   19  C   UNL     1      -8.331  19.715  65.835  1.00  0.00    -0.174 C  
BRANCH  19  20
HETATM   20  N   UNL     1      -8.538  20.521  67.043  1.00  0.00    -0.526 NA 
HETATM   21  H   UNL     1      -8.463  21.515  66.829  1.00  0.00     0.000 HD 
BRANCH  20  22
HETATM   22  C   UNL     1      -9.801  20.232  67.735  1.00  0.00    -0.393 C  
HETATM   23  C   UNL     1     -10.850  19.598  66.811  1.00  0.00    -0.489 C  
HETATM   24  C   UNL     1      -9.499  19.269  68.883  1.00  0.00    -0.437 C  
ENDBRANCH  20  22
ENDBRANCH  19  20
ENDBRANCH  16  19
ENDBRANCH  15  16
ENDBRANCH  14  15
ENDBRANCH  11  14
BRANCH  12  25
HETATM   25  C   UNL     1     -11.119  15.743  64.976  1.00  0.00    -0.370 C  
HETATM   26  C   UNL     1     -11.951  14.698  64.283  1.00  0.00    -0.406 C  
HETATM   27  O   UNL     1     -10.991  16.863  64.478  1.00  0.00    -0.989 OA 
ENDBRANCH  12  25
ENDBRANCH   6   8
ENDBRANCH   3   4
ENDBRANCH   2   3
TORSDOF 10
ENDMDL
MODEL       13
REMARK 921   NORMALIZED FREE ENERGY PREDICTED BY IDOCK:   -5.58 KCAL/MOL
REMARK 922        TOTAL FREE ENERGY PREDICTED BY IDOCK:   -9.87 KCAL/MOL
REMARK 923 INTER-LIGAND FREE ENERGY PREDICTED BY IDOCK:   -8.84 KCAL/MOL
REMARK 924 INTRA-LIGAND FREE ENERGY PREDICTED BY IDOCK:   -1.03 KCAL/MOL
REMARK 927      BINDING AFFINITY PREDICTED BY RF-SCORE:    0.00 PKD
ROOT
HETATM    1  C   UNL     1     -12.770  15.357  73.771  1.00  0.00    -0.723 C  
HETATM    2  C   UNL     1     -12.479  15.967  72.411  1.00  0.00    -0.549 C  
ENDROOT
BRANCH   2   3
HETATM    3  C   UNL     1     -13.395  15.390  71.340  1.00  0.00    -0.601 C  
BRANCH   3   4
HETATM    4  C   UNL     1     -12.630  14.452  70.434  1.00  0.00    -0.345 C  
HETATM    5  O   UNL     1     -12.437  13.289  70.777  1.00  0.00    -0.353 OA 
HETATM    6  N   UNL     1     -12.258  15.029  69.228  1.00  0.00    -0.551 N  
HETATM    7  H   UNL     1     -12.531  16.000  69.073  1.00  0.00     0.000 HD 
BRANCH   6   8
HETATM    8  C   UNL     1     -11.535  14.391  68.198  1.00  0.00    -0.310 A  
HETATM    9  C   UNL     1     -10.257  13.872  68.379  1.00  0.00    -0.243 A  
HETATM   10  C   UNL     1      -9.616  13.170  67.358  1.00  0.00    -0.219 A  
HETATM   11  C   UNL     1     -10.230  12.973  66.117  1.00  0.00    -0.284 A  
HETATM   12  C   UNL     1     -11.486  13.561  65.893  1.00  0.00    -0.338 A  
HETATM   13  C   UNL     1     -12.128  14.263  66.939  1.00  0.00    -0.440 A  
BRANCH  11  14
HETATM   14  O   UNL     1      -9.680  12.197  65.129  1.00  0.00    -0.216 OA 
BRANCH  14  15
HETATM   15  C   UNL     1      -8.888  11.072  65.546  1.00  0.00    -0.169 C  
BRANCH  15  16
HETATM   16  C   UNL     1      -9.636   9.772  65.221  1.00  0.00    -0.300 C  
HETATM   17  H   UNL     1      -9.295   8.165  64.145  1.00  0.00     0.000 HD 
HETATM   18  O   UNL     1      -8.832   8.970  64.346  1.00  0.00    -0.170 OA 
BRANCH  16  19
HETATM   19  C   UNL     1      -9.973   8.949  66.482  1.00  0.00    -0.288 C  
BRANCH  19  20
HETATM   20  N   UNL     1     -10.835   9.687  67.410  1.00  0.00    -0.348 NA 
HETATM   21  H   UNL     1     -11.783   9.310  67.397  1.00  0.00     0.000 HD 
BRANCH  20  22
HETATM   22  C   UNL     1     -10.316   9.737  68.784  1.00  0.00    -0.208 C  
HETATM   23  C   UNL     1     -11.376  10.181  69.802  1.00  0.00    -0.312 C  
HETATM   24  C   UNL     1      -9.824   8.337  69.152  1.00  0.00    -0.179 C  
ENDBRANCH  20  22
ENDBRANCH  19  20
ENDBRANCH  16  19
ENDBRANCH  15  16
ENDBRANCH  14  15
ENDBRANCH  11  14
BRANCH  12  25
HETATM   25  C   UNL     1     -12.251  13.453  64.614  1.00  0.00    -0.407 C  
HETATM   26  C   UNL     1     -12.650  12.116  64.050  1.00  0.00    -0.507 C  
HETATM   27  O   UNL     1     -12.512  14.488  63.999  1.00  0.00    -0.778 OA 
ENDBRANCH  12  25
ENDBRANCH   6   8
ENDBRANCH   3   4
ENDBRANCH   2   3
TORSDOF 10
ENDMDL
MODEL       14
REMARK 921   NORMALIZED FREE ENERGY PREDICTED BY IDOCK:   -5.55 KCAL/MOL
REMARK 922        TOTAL FREE ENERGY PREDICTED BY IDOCK:   -9.83 KCAL/MOL
REMARK 923 INTER-LIGAND FREE ENERGY PREDICTED BY IDOCK:   -8.91 KCAL/MOL
REMARK 924 INTRA-LIGAND FREE ENERGY PREDICTED BY IDOCK:   -0.92 KCAL/MOL
REMARK 927      BINDING AFFINITY PREDICTED BY RF-SCORE:    0.00 PKD
ROOT
HETATM    1  C   UNL     1     -12.229  15.254  74.107  1.00  0.00    -0.742 C  
HETATM    2  C   UNL     1     -12.210  15.906  72.736  1.00  0.00    -0.604 C  
ENDROOT
BRANCH   2   3
HETATM    3  C   UNL     1     -13.376  15.428  71.880  1.00  0.00    -0.554 C  
BRANCH   3   4
HETATM    4  C   UNL     1     -12.963  14.253  71.024  1.00  0.00    -0.342 C  
HETATM    5  O   UNL     1     -13.203  13.107  71.395  1.00  0.00    -0.305 OA 
HETATM    6  N   UNL     1     -12.374  14.624  69.824  1.00  0.00    -0.484 N  
HETATM    7  H   UNL     1     -12.282  15.624  69.640  1.00  0.00     0.000 HD 
BRANCH   6   8
HETATM    8  C   UNL     1     -11.889  13.741  68.836  1.00  0.00    -0.360 A  
HETATM    9  C   UNL     1     -11.076  12.650  69.128  1.00  0.00    -0.252 A  
HETATM   10  C   UNL     1     -10.695  11.751  68.131  1.00  0.00    -0.247 A  
HETATM   11  C   UNL     1     -11.107  11.922  66.805  1.00  0.00    -0.308 A  
HETATM   12  C   UNL     1     -11.860  13.062  66.482  1.00  0.00    -0.464 A  
HETATM   13  C   UNL     1     -12.247  13.960  67.503  1.00  0.00    -0.266 A  
BRANCH  11  14
HETATM   14  O   UNL     1     -10.845  11.003  65.821  1.00  0.00    -0.201 OA 
BRANCH  14  15
HETATM   15  C   UNL     1      -9.609  11.149  65.101  1.00  0.00    -0.234 C  
BRANCH  15  16
HETATM   16  C   UNL     1      -9.126   9.770  64.631  1.00  0.00    -0.245 C  
HETATM   17  H   UNL     1      -7.592   9.067  63.628  1.00  0.00     0.000 HD 
HETATM   18  O   UNL     1      -7.891   9.920  63.919  1.00  0.00    -0.137 OA 
BRANCH  16  19
HETATM   19  C   UNL     1      -8.913   8.784  65.798  1.00  0.00    -0.206 C  
BRANCH  19  20
HETATM   20  N   UNL     1     -10.137   8.051  66.134  1.00  0.00    -0.442 NA 
HETATM   21  H   UNL     1     -10.396   7.417  65.379  1.00  0.00     0.000 HD 
BRANCH  20  22
HETATM   22  C   UNL     1     -10.062   7.332  67.413  1.00  0.00    -0.204 C  
HETATM   23  C   UNL     1     -10.467   8.206  68.608  1.00  0.00    -0.195 C  
HETATM   24  C   UNL     1     -11.001   6.128  67.332  1.00  0.00    -0.409 C  
ENDBRANCH  20  22
ENDBRANCH  19  20
ENDBRANCH  16  19
ENDBRANCH  15  16
ENDBRANCH  14  15
ENDBRANCH  11  14
BRANCH  12  25
HETATM   25  C   UNL     1     -12.352  13.385  65.108  1.00  0.00    -0.456 C  
HETATM   26  C   UNL     1     -11.844  14.587  64.357  1.00  0.00    -0.419 C  
HETATM   27  O   UNL     1     -13.224  12.670  64.614  1.00  0.00    -0.828 OA 
ENDBRANCH  12  25
ENDBRANCH   6   8
ENDBRANCH   3   4
ENDBRANCH   2   3
TORSDOF 10
ENDMDL
MODEL       15
REMARK 921   NORMALIZED FREE ENERGY PREDICTED BY IDOCK:   -5.55 KCAL/MOL
REMARK 922        TOTAL FREE ENERGY PREDICTED BY IDOCK:   -9.82 KCAL/MOL
REMARK 923 INTER-LIGAND FREE ENERGY PREDICTED BY IDOCK:   -8.89 KCAL/MOL
REMARK 924 INTRA-LIGAND FREE ENERGY PREDICTED BY IDOCK:   -0.93 KCAL/MOL
REMARK 927      BINDING AFFINITY PREDICTED BY RF-SCORE:    0.00 PKD
ROOT
HETATM    1  C   UNL     1      -7.943  20.123  67.578  1.00  0.00    -0.352 C  
HETATM    2  C   UNL     1      -8.603  20.187  66.212  1.00  0.00    -0.272 C  
ENDROOT
BRANCH   2   3
HETATM    3  C   UNL     1     -10.091  19.874  66.301  1.00  0.00    -0.613 C  
BRANCH   3   4
HETATM    4  C   UNL     1     -10.309  18.443  66.734  1.00  0.00    -0.394 C  
HETATM    5  O   UNL     1     -10.885  18.200  67.791  1.00  0.00    -0.385 OA 
HETATM    6  N   UNL     1      -9.854  17.511  65.810  1.00  0.00    -0.065 N  
HETATM    7  H   UNL     1      -9.433  17.872  64.954  1.00  0.00     0.000 HD 
BRANCH   6   8
HETATM    8  C   UNL     1      -9.923  16.109  65.952  1.00  0.00    -0.356 A  
HETATM    9  C   UNL     1      -9.025  15.381  66.726  1.00  0.00    -0.288 A  
HETATM   10  C   UNL     1      -9.186  14.007  66.910  1.00  0.00    -0.271 A  
HETATM   11  C   UNL     1     -10.246  13.315  66.316  1.00  0.00    -0.296 A  
HETATM   12  C   UNL     1     -11.113  14.022  65.468  1.00  0.00    -0.309 A  
HETATM   13  C   UNL     1     -10.945  15.416  65.297  1.00  0.00    -0.397 A  
BRANCH  11  14
HETATM   14  O   UNL     1     -10.500  11.989  66.562  1.00  0.00    -0.214 OA 
BRANCH  14  15
HETATM   15  C   UNL     1      -9.929  11.424  67.754  1.00  0.00    -0.178 C  
BRANCH  15  16
HETATM   16  C   UNL     1     -10.975  11.440  68.878  1.00  0.00    -0.226 C  
HETATM   17  H   UNL     1     -12.922  11.226  69.012  1.00  0.00     0.000 HD 
HETATM   18  O   UNL     1     -12.275  11.217  68.316  1.00  0.00    -0.613 OA 
BRANCH  16  19
HETATM   19  C   UNL     1     -10.707  10.368  69.955  1.00  0.00    -0.279 C  
BRANCH  19  20
HETATM   20  N   UNL     1     -11.731   9.317  69.957  1.00  0.00    -0.456 NA 
HETATM   21  H   UNL     1     -11.445   8.536  69.368  1.00  0.00     0.000 HD 
BRANCH  20  22
HETATM   22  C   UNL     1     -12.093   8.849  71.302  1.00  0.00    -0.306 C  
HETATM   23  C   UNL     1     -10.878   8.729  72.233  1.00  0.00    -0.328 C  
HETATM   24  C   UNL     1     -13.082   9.851  71.898  1.00  0.00    -0.559 C  
ENDBRANCH  20  22
ENDBRANCH  19  20
ENDBRANCH  16  19
ENDBRANCH  15  16
ENDBRANCH  14  15
ENDBRANCH  11  14
BRANCH  12  25
HETATM   25  C   UNL     1     -12.274  13.413  64.751  1.00  0.00    -0.409 C  
HETATM   26  C   UNL     1     -12.076  12.533  63.546  1.00  0.00    -0.653 C  
HETATM   27  O   UNL     1     -13.411  13.683  65.141  1.00  0.00    -0.677 OA 
ENDBRANCH  12  25
ENDBRANCH   6   8
ENDBRANCH   3   4
ENDBRANCH   2   3
TORSDOF 10
ENDMDL
MODEL       16
REMARK 921   NORMALIZED FREE ENERGY PREDICTED BY IDOCK:   -5.53 KCAL/MOL
REMARK 922        TOTAL FREE ENERGY PREDICTED BY IDOCK:   -9.80 KCAL/MOL
REMARK 923 INTER-LIGAND FREE ENERGY PREDICTED BY IDOCK:   -8.81 KCAL/MOL
REMARK 924 INTRA-LIGAND FREE ENERGY PREDICTED BY IDOCK:   -0.99 KCAL/MOL
REMARK 927      BINDING AFFINITY PREDICTED BY RF-SCORE:    0.00 PKD
ROOT
HETATM    1  C   UNL     1     -10.457  17.257  65.993  1.00  0.00    -0.285 C  
HETATM    2  C   UNL     1     -10.116  15.863  65.496  1.00  0.00    -0.353 C  
ENDROOT
BRANCH   2   3
HETATM    3  C   UNL     1     -11.326  15.193  64.859  1.00  0.00    -0.402 C  
BRANCH   3   4
HETATM    4  C   UNL     1     -12.001  14.265  65.843  1.00  0.00    -0.391 C  
HETATM    5  O   UNL     1     -13.093  13.772  65.574  1.00  0.00    -0.671 OA 
HETATM    6  N   UNL     1     -11.244  14.020  66.980  1.00  0.00    -0.304 N  
HETATM    7  H   UNL     1     -10.331  14.473  67.038  1.00  0.00     0.000 HD 
BRANCH   6   8
HETATM    8  C   UNL     1     -11.625  13.199  68.063  1.00  0.00    -0.334 A  
HETATM    9  C   UNL     1     -11.618  11.809  67.998  1.00  0.00    -0.386 A  
HETATM   10  C   UNL     1     -11.916  11.037  69.123  1.00  0.00    -0.394 A  
HETATM   11  C   UNL     1     -12.241  11.633  70.346  1.00  0.00    -0.347 A  
HETATM   12  C   UNL     1     -12.330  13.033  70.403  1.00  0.00    -0.351 A  
HETATM   13  C   UNL     1     -12.017  13.804  69.259  1.00  0.00    -0.399 A  
BRANCH  11  14
HETATM   14  O   UNL     1     -12.432  10.912  71.497  1.00  0.00    -0.358 OA 
BRANCH  14  15
HETATM   15  C   UNL     1     -13.453   9.900  71.473  1.00  0.00    -0.312 C  
BRANCH  15  16
HETATM   16  C   UNL     1     -12.989   8.687  72.293  1.00  0.00    -0.381 C  
HETATM   17  H   UNL     1     -13.367   6.761  72.320  1.00  0.00     0.000 HD 
HETATM   18  O   UNL     1     -13.655   7.512  71.814  1.00  0.00    -0.353 OA 
BRANCH  16  19
HETATM   19  C   UNL     1     -11.465   8.464  72.214  1.00  0.00    -0.384 C  
BRANCH  19  20
HETATM   20  N   UNL     1     -11.122   7.054  72.005  1.00  0.00    -0.236 NA 
HETATM   21  H   UNL     1     -11.962   6.475  72.008  1.00  0.00     0.000 HD 
BRANCH  20  22
HETATM   22  C   UNL     1     -10.330   6.814  70.790  1.00  0.00    -0.204 C  
HETATM   23  C   UNL     1     -11.171   6.244  69.639  1.00  0.00    -0.506 C  
HETATM   24  C   UNL     1      -9.723   8.147  70.354  1.00  0.00    -0.179 C  
ENDBRANCH  20  22
ENDBRANCH  19  20
ENDBRANCH  16  19
ENDBRANCH  15  16
ENDBRANCH  14  15
ENDBRANCH  11  14
BRANCH  12  25
HETATM   25  C   UNL     1     -12.686  13.805  71.632  1.00  0.00    -0.321 C  
HETATM   26  C   UNL     1     -13.961  13.535  72.386  1.00  0.00    -0.638 C  
HETATM   27  O   UNL     1     -11.931  14.707  71.996  1.00  0.00    -0.322 OA 
ENDBRANCH  12  25
ENDBRANCH   6   8
ENDBRANCH   3   4
ENDBRANCH   2   3
TORSDOF 10
ENDMDL
MODEL       17
REMARK 921   NORMALIZED FREE ENERGY PREDICTED BY IDOCK:   -5.53 KCAL/MOL
REMARK 922        TOTAL FREE ENERGY PREDICTED BY IDOCK:   -9.79 KCAL/MOL
REMARK 923 INTER-LIGAND FREE ENERGY PREDICTED BY IDOCK:   -8.18 KCAL/MOL
REMARK 924 INTRA-LIGAND FREE ENERGY PREDICTED BY IDOCK:   -1.61 KCAL/MOL
REMARK 927      BINDING AFFINITY PREDICTED BY RF-SCORE:    0.00 PKD
ROOT
HETATM    1  C   UNL     1     -10.593  19.590  65.854  1.00  0.00    -0.572 C  
HETATM    2  C   UNL     1      -9.552  19.746  66.949  1.00  0.00    -0.494 C  
ENDROOT
BRANCH   2   3
HETATM    3  C   UNL     1     -10.041  19.154  68.264  1.00  0.00    -0.499 C  
BRANCH   3   4
HETATM    4  C   UNL     1      -9.879  17.651  68.265  1.00  0.00    -0.324 C  
HETATM    5  O   UNL     1      -8.764  17.152  68.390  1.00  0.00    -0.230 OA 
HETATM    6  N   UNL     1     -11.083  16.966  68.172  1.00  0.00    -0.293 N  
HETATM    7  H   UNL     1     -11.934  17.526  68.117  1.00  0.00     0.000 HD 
BRANCH   6   8
HETATM    8  C   UNL     1     -11.233  15.563  68.146  1.00  0.00    -0.343 A  
HETATM    9  C   UNL     1     -11.254  14.782  69.298  1.00  0.00    -0.303 A  
HETATM   10  C   UNL     1     -11.496  13.409  69.229  1.00  0.00    -0.345 A  
HETATM   11  C   UNL     1     -11.712  12.771  68.004  1.00  0.00    -0.356 A  
HETATM   12  C   UNL     1     -11.613  13.533  66.828  1.00  0.00    -0.397 A  
HETATM   13  C   UNL     1     -11.377  14.925  66.912  1.00  0.00    -0.338 A  
BRANCH  11  14
HETATM   14  O   UNL     1     -12.060  11.448  67.905  1.00  0.00    -0.646 OA 
BRANCH  14  15
HETATM   15  C   UNL     1     -11.882  10.636  69.078  1.00  0.00    -0.185 C  
BRANCH  15  16
HETATM   16  C   UNL     1     -10.618   9.779  68.919  1.00  0.00    -0.218 C  
HETATM   17  H   UNL     1      -9.917   8.120  69.699  1.00  0.00     0.000 HD 
HETATM   18  O   UNL     1     -10.699   8.650  69.798  1.00  0.00    -0.228 OA 
BRANCH  16  19
HETATM   19  C   UNL     1     -10.421   9.273  67.475  1.00  0.00    -0.274 C  
BRANCH  19  20
HETATM   20  N   UNL     1      -9.691  10.237  66.645  1.00  0.00    -0.178 NA 
HETATM   21  H   UNL     1     -10.261  11.064  66.469  1.00  0.00     0.000 HD 
BRANCH  20  22
HETATM   22  C   UNL     1      -8.382  10.617  67.195  1.00  0.00    -0.125 C  
HETATM   23  C   UNL     1      -7.211  10.026  66.398  1.00  0.00    -0.103 C  
HETATM   24  C   UNL     1      -8.286  12.143  67.169  1.00  0.00    -0.183 C  
ENDBRANCH  20  22
ENDBRANCH  19  20
ENDBRANCH  16  19
ENDBRANCH  15  16
ENDBRANCH  14  15
ENDBRANCH  11  14
BRANCH  12  25
HETATM   25  C   UNL     1     -11.799  12.984  65.451  1.00  0.00    -0.388 C  
HETATM   26  C   UNL     1     -10.647  12.878  64.487  1.00  0.00    -0.403 C  
HETATM   27  O   UNL     1     -12.933  12.660  65.098  1.00  0.00    -0.754 OA 
ENDBRANCH  12  25
ENDBRANCH   6   8
ENDBRANCH   3   4
ENDBRANCH   2   3
TORSDOF 10
ENDMDL
MODEL       18
REMARK 921   NORMALIZED FREE ENERGY PREDICTED BY IDOCK:   -5.50 KCAL/MOL
REMARK 922        TOTAL FREE ENERGY PREDICTED BY IDOCK:   -9.74 KCAL/MOL
REMARK 923 INTER-LIGAND FREE ENERGY PREDICTED BY IDOCK:   -9.04 KCAL/MOL
REMARK 924 INTRA-LIGAND FREE ENERGY PREDICTED BY IDOCK:   -0.70 KCAL/MOL
REMARK 927      BINDING AFFINITY PREDICTED BY RF-SCORE:    0.00 PKD
ROOT
HETATM    1  C   UNL     1     -12.300  15.179  74.339  1.00  0.00    -0.615 C  
HETATM    2  C   UNL     1     -12.696  16.071  73.176  1.00  0.00    -0.619 C  
ENDROOT
BRANCH   2   3
HETATM    3  C   UNL     1     -13.894  15.504  72.427  1.00  0.00    -0.662 C  
BRANCH   3   4
HETATM    4  C   UNL     1     -13.573  14.140  71.861  1.00  0.00    -0.417 C  
HETATM    5  O   UNL     1     -14.078  13.134  72.354  1.00  0.00    -0.583 OA 
HETATM    6  N   UNL     1     -12.737  14.184  70.754  1.00  0.00    -0.343 N  
HETATM    7  H   UNL     1     -12.433  15.105  70.437  1.00  0.00     0.000 HD 
BRANCH   6   8
HETATM    8  C   UNL     1     -12.270  13.067  70.029  1.00  0.00    -0.236 A  
HETATM    9  C   UNL     1     -12.178  11.792  70.578  1.00  0.00    -0.438 A  
HETATM   10  C   UNL     1     -11.797  10.700  69.797  1.00  0.00    -0.377 A  
HETATM   11  C   UNL     1     -11.485  10.851  68.442  1.00  0.00    -0.304 A  
HETATM   12  C   UNL     1     -11.496  12.144  67.895  1.00  0.00    -0.392 A  
HETATM   13  C   UNL     1     -11.892  13.241  68.695  1.00  0.00    -0.380 A  
BRANCH  11  14
HETATM   14  O   UNL     1     -11.214   9.788  67.618  1.00  0.00    -0.178 OA 
BRANCH  14  15
HETATM   15  C   UNL     1     -10.164   8.895  68.027  1.00  0.00    -0.213 C  
BRANCH  15  16
HETATM   16  C   UNL     1     -10.364   7.530  67.353  1.00  0.00    -0.276 C  
HETATM   17  H   UNL     1      -9.220   6.191  66.485  1.00  0.00     0.000 HD 
HETATM   18  O   UNL     1      -9.096   7.036  66.902  1.00  0.00    -0.130 OA 
BRANCH  16  19
HETATM   19  C   UNL     1     -10.997   6.487  68.298  1.00  0.00    -0.281 C  
BRANCH  19  20
HETATM   20  N   UNL     1     -11.596   7.107  69.485  1.00  0.00    -0.518 NA 
HETATM   21  H   UNL     1     -12.609   6.996  69.476  1.00  0.00     0.000 HD 
BRANCH  20  22
HETATM   22  C   UNL     1     -11.031   6.622  70.752  1.00  0.00    -0.270 C  
HETATM   23  C   UNL     1     -12.091   6.468  71.851  1.00  0.00    -0.388 C  
HETATM   24  C   UNL     1     -10.383   5.263  70.487  1.00  0.00    -0.336 C  
ENDBRANCH  20  22
ENDBRANCH  19  20
ENDBRANCH  16  19
ENDBRANCH  15  16
ENDBRANCH  14  15
ENDBRANCH  11  14
BRANCH  12  25
HETATM   25  C   UNL     1     -11.166  12.460  66.472  1.00  0.00    -0.319 C  
HETATM   26  C   UNL     1     -12.247  12.654  65.442  1.00  0.00    -0.517 C  
HETATM   27  O   UNL     1      -9.981  12.515  66.144  1.00  0.00    -0.246 OA 
ENDBRANCH  12  25
ENDBRANCH   6   8
ENDBRANCH   3   4
ENDBRANCH   2   3
TORSDOF 10
ENDMDL
MODEL       19
REMARK 921   NORMALIZED FREE ENERGY PREDICTED BY IDOCK:   -5.49 KCAL/MOL
REMARK 922        TOTAL FREE ENERGY PREDICTED BY IDOCK:   -9.73 KCAL/MOL
REMARK 923 INTER-LIGAND FREE ENERGY PREDICTED BY IDOCK:   -8.78 KCAL/MOL
REMARK 924 INTRA-LIGAND FREE ENERGY PREDICTED BY IDOCK:   -0.95 KCAL/MOL
REMARK 927      BINDING AFFINITY PREDICTED BY RF-SCORE:    0.00 PKD
ROOT
HETATM    1  C   UNL     1      -7.951   9.425  62.910  1.00  0.00    -0.135 C  
HETATM    2  C   UNL     1      -9.231  10.037  63.452  1.00  0.00    -0.317 C  
ENDROOT
BRANCH   2   3
HETATM    3  C   UNL     1      -9.530  11.373  62.787  1.00  0.00    -0.314 C  
BRANCH   3   4
HETATM    4  C   UNL     1     -10.440  12.210  63.656  1.00  0.00    -0.460 C  
HETATM    5  O   UNL     1     -11.589  12.447  63.294  1.00  0.00    -0.449 OA 
HETATM    6  N   UNL     1      -9.857  12.595  64.855  1.00  0.00    -0.493 N  
HETATM    7  H   UNL     1      -8.902  12.282  65.030  1.00  0.00     0.000 HD 
BRANCH   6   8
HETATM    8  C   UNL     1     -10.470  13.381  65.854  1.00  0.00    -0.287 A  
HETATM    9  C   UNL     1     -11.484  12.903  66.678  1.00  0.00    -0.393 A  
HETATM   10  C   UNL     1     -11.997  13.688  67.713  1.00  0.00    -0.387 A  
HETATM   11  C   UNL     1     -11.519  14.981  67.948  1.00  0.00    -0.340 A  
HETATM   12  C   UNL     1     -10.553  15.504  67.074  1.00  0.00    -0.311 A  
HETATM   13  C   UNL     1     -10.034  14.697  66.036  1.00  0.00    -0.337 A  
BRANCH  11  14
HETATM   14  O   UNL     1     -11.920  15.738  69.019  1.00  0.00    -0.385 OA 
BRANCH  14  15
HETATM   15  C   UNL     1     -11.356  15.411  70.300  1.00  0.00    -0.311 C  
BRANCH  15  16
HETATM   16  C   UNL     1     -12.485  15.109  71.294  1.00  0.00    -0.344 C  
HETATM   17  H   UNL     1     -14.375  15.605  71.493  1.00  0.00     0.000 HD 
HETATM   18  O   UNL     1     -13.676  15.792  70.878  1.00  0.00    -0.496 OA 
BRANCH  16  19
HETATM   19  C   UNL     1     -12.790  13.601  71.409  1.00  0.00    -0.360 C  
BRANCH  19  20
HETATM   20  N   UNL     1     -11.803  12.782  70.700  1.00  0.00    -0.492 NA 
HETATM   21  H   UNL     1     -10.910  12.787  71.192  1.00  0.00     0.000 HD 
BRANCH  20  22
HETATM   22  C   UNL     1     -12.250  11.404  70.450  1.00  0.00    -0.362 C  
HETATM   23  C   UNL     1     -11.085  10.446  70.166  1.00  0.00    -0.383 C  
HETATM   24  C   UNL     1     -13.003  10.922  71.690  1.00  0.00    -0.569 C  
ENDBRANCH  20  22
ENDBRANCH  19  20
ENDBRANCH  16  19
ENDBRANCH  15  16
ENDBRANCH  14  15
ENDBRANCH  11  14
BRANCH  12  25
HETATM   25  C   UNL     1      -9.966  16.874  67.190  1.00  0.00    -0.276 C  
HETATM   26  C   UNL     1      -8.866  17.174  68.173  1.00  0.00    -0.237 C  
HETATM   27  O   UNL     1     -10.434  17.773  66.491  1.00  0.00    -0.345 OA 
ENDBRANCH  12  25
ENDBRANCH   6   8
ENDBRANCH   3   4
ENDBRANCH   2   3
TORSDOF 10
ENDMDL
MODEL       20
REMARK 921   NORMALIZED FREE ENERGY PREDICTED BY IDOCK:   -5.49 KCAL/MOL
REMARK 922        TOTAL FREE ENERGY PREDICTED BY IDOCK:   -9.72 KCAL/MOL
REMARK 923 INTER-LIGAND FREE ENERGY PREDICTED BY IDOCK:   -8.20 KCAL/MOL
REMARK 924 INTRA-LIGAND FREE ENERGY PREDICTED BY IDOCK:   -1.52 KCAL/MOL
REMARK 927      BINDING AFFINITY PREDICTED BY RF-SCORE:    0.00 PKD
ROOT
HETATM    1  C   UNL     1     -12.097  12.758  63.478  1.00  0.00    -0.642 C  
HETATM    2  C   UNL     1     -12.710  12.723  64.867  1.00  0.00    -0.479 C  
ENDROOT
BRANCH   2   3
HETATM    3  C   UNL     1     -12.175  13.853  65.736  1.00  0.00    -0.488 C  
BRANCH   3   4
HETATM    4  C   UNL     1     -11.707  13.324  67.072  1.00  0.00    -0.389 C  
HETATM    5  O   UNL     1     -11.460  14.101  67.990  1.00  0.00    -0.279 OA 
HETATM    6  N   UNL     1     -11.657  11.938  67.129  1.00  0.00    -0.318 N  
HETATM    7  H   UNL     1     -11.936  11.426  66.291  1.00  0.00     0.000 HD 
BRANCH   6   8
HETATM    8  C   UNL     1     -11.255  11.173  68.245  1.00  0.00    -0.279 A  
HETATM    9  C   UNL     1     -10.011  10.555  68.331  1.00  0.00    -0.177 A  
HETATM   10  C   UNL     1      -9.621   9.885  69.492  1.00  0.00    -0.242 A  
HETATM   11  C   UNL     1     -10.469   9.803  70.601  1.00  0.00    -0.289 A  
HETATM   12  C   UNL     1     -11.757  10.352  70.499  1.00  0.00    -0.434 A  
HETATM   13  C   UNL     1     -12.137  11.036  69.320  1.00  0.00    -0.363 A  
BRANCH  11  14
HETATM   14  O   UNL     1     -10.081   9.250  71.795  1.00  0.00    -0.293 OA 
BRANCH  14  15
HETATM   15  C   UNL     1      -9.188   8.124  71.734  1.00  0.00    -0.174 C  
BRANCH  15  16
HETATM   16  C   UNL     1      -9.756   6.976  72.581  1.00  0.00    -0.150 C  
HETATM   17  H   UNL     1     -11.056   6.793  74.041  1.00  0.00     0.000 HD 
HETATM   18  O   UNL     1     -10.704   7.504  73.518  1.00  0.00    -0.378 OA 
BRANCH  16  19
HETATM   19  C   UNL     1     -10.449   5.894  71.726  1.00  0.00    -0.227 C  
BRANCH  19  20
HETATM   20  N   UNL     1     -11.193   6.470  70.601  1.00  0.00    -0.305 NA 
HETATM   21  H   UNL     1     -10.968   7.458  70.489  1.00  0.00     0.000 HD 
BRANCH  20  22
HETATM   22  C   UNL     1     -11.002   5.747  69.336  1.00  0.00    -0.282 C  
HETATM   23  C   UNL     1     -10.869   6.688  68.131  1.00  0.00    -0.334 C  
HETATM   24  C   UNL     1      -9.728   4.910  69.461  1.00  0.00    -0.266 C  
ENDBRANCH  20  22
ENDBRANCH  19  20
ENDBRANCH  16  19
ENDBRANCH  15  16
ENDBRANCH  14  15
ENDBRANCH  11  14
BRANCH  12  25
HETATM   25  C   UNL     1     -12.776  10.322  71.592  1.00  0.00    -0.456 C  
HETATM   26  C   UNL     1     -13.492   9.051  71.960  1.00  0.00    -0.498 C  
HETATM   27  O   UNL     1     -13.055  11.377  72.162  1.00  0.00    -0.462 OA 
ENDBRANCH  12  25
ENDBRANCH   6   8
ENDBRANCH   3   4
ENDBRANCH   2   3
TORSDOF 10
ENDMDL
MODEL       21
REMARK 921   NORMALIZED FREE ENERGY PREDICTED BY IDOCK:   -5.48 KCAL/MOL
REMARK 922        TOTAL FREE ENERGY PREDICTED BY IDOCK:   -9.71 KCAL/MOL
REMARK 923 INTER-LIGAND FREE ENERGY PREDICTED BY IDOCK:   -8.36 KCAL/MOL
REMARK 924 INTRA-LIGAND FREE ENERGY PREDICTED BY IDOCK:   -1.35 KCAL/MOL
REMARK 927      BINDING AFFINITY PREDICTED BY RF-SCORE:    0.00 PKD
ROOT
HETATM    1  C   UNL     1     -10.298   7.530  73.525  1.00  0.00    -0.373 C  
HETATM    2  C   UNL     1     -11.327   8.170  72.609  1.00  0.00    -0.450 C  
ENDROOT
BRANCH   2   3
HETATM    3  C   UNL     1     -11.246   7.595  71.201  1.00  0.00    -0.280 C  
BRANCH   3   4
HETATM    4  C   UNL     1     -10.894   8.675  70.204  1.00  0.00    -0.233 C  
HETATM    5  O   UNL     1      -9.920   8.540  69.468  1.00  0.00    -0.185 OA 
HETATM    6  N   UNL     1     -11.791   9.734  70.197  1.00  0.00    -0.446 N  
HETATM    7  H   UNL     1     -12.579   9.681  70.844  1.00  0.00     0.000 HD 
BRANCH   6   8
HETATM    8  C   UNL     1     -11.709  10.879  69.375  1.00  0.00    -0.325 A  
HETATM    9  C   UNL     1     -11.597  10.810  67.990  1.00  0.00    -0.245 A  
HETATM   10  C   UNL     1     -11.610  11.967  67.211  1.00  0.00    -0.383 A  
HETATM   11  C   UNL     1     -11.726  13.233  67.794  1.00  0.00    -0.358 A  
HETATM   12  C   UNL     1     -11.759  13.322  69.195  1.00  0.00    -0.379 A  
HETATM   13  C   UNL     1     -11.754  12.141  69.973  1.00  0.00    -0.330 A  
BRANCH  11  14
HETATM   14  O   UNL     1     -11.853  14.383  67.057  1.00  0.00    -0.391 OA 
BRANCH  14  15
HETATM   15  C   UNL     1     -12.389  14.253  65.730  1.00  0.00    -0.405 C  
BRANCH  15  16
HETATM   16  C   UNL     1     -11.513  15.042  64.746  1.00  0.00    -0.403 C  
HETATM   17  H   UNL     1     -11.787  16.474  63.431  1.00  0.00     0.000 HD 
HETATM   18  O   UNL     1     -12.329  15.986  64.040  1.00  0.00    -0.752 OA 
BRANCH  16  19
HETATM   19  C   UNL     1     -10.366  15.800  65.446  1.00  0.00    -0.389 C  
BRANCH  19  20
HETATM   20  N   UNL     1      -9.237  14.921  65.767  1.00  0.00    -0.480 NA 
HETATM   21  H   UNL     1      -8.688  14.722  64.932  1.00  0.00     0.000 HD 
BRANCH  20  22
HETATM   22  C   UNL     1      -8.378  15.434  66.844  1.00  0.00    -0.255 C  
HETATM   23  C   UNL     1      -8.964  16.678  67.526  1.00  0.00    -0.204 C  
HETATM   24  C   UNL     1      -8.213  14.325  67.883  1.00  0.00    -0.156 C  
ENDBRANCH  20  22
ENDBRANCH  19  20
ENDBRANCH  16  19
ENDBRANCH  15  16
ENDBRANCH  14  15
ENDBRANCH  11  14
BRANCH  12  25
HETATM   25  C   UNL     1     -11.860  14.604  69.956  1.00  0.00    -0.308 C  
HETATM   26  C   UNL     1     -13.142  15.016  70.630  1.00  0.00    -0.365 C  
HETATM   27  O   UNL     1     -10.879  15.347  69.985  1.00  0.00    -0.264 OA 
ENDBRANCH  12  25
ENDBRANCH   6   8
ENDBRANCH   3   4
ENDBRANCH   2   3
TORSDOF 10
ENDMDL
MODEL       22
REMARK 921   NORMALIZED FREE ENERGY PREDICTED BY IDOCK:   -5.47 KCAL/MOL
REMARK 922        TOTAL FREE ENERGY PREDICTED BY IDOCK:   -9.70 KCAL/MOL
REMARK 923 INTER-LIGAND FREE ENERGY PREDICTED BY IDOCK:   -8.50 KCAL/MOL
REMARK 924 INTRA-LIGAND FREE ENERGY PREDICTED BY IDOCK:   -1.20 KCAL/MOL
REMARK 927      BINDING AFFINITY PREDICTED BY RF-SCORE:    0.00 PKD
ROOT
HETATM    1  C   UNL     1     -13.124  15.644  73.449  1.00  0.00    -0.670 C  
HETATM    2  C   UNL     1     -14.243  15.586  72.425  1.00  0.00    -0.571 C  
ENDROOT
BRANCH   2   3
HETATM    3  C   UNL     1     -14.233  14.263  71.670  1.00  0.00    -0.469 C  
BRANCH   3   4
HETATM    4  C   UNL     1     -12.954  14.110  70.880  1.00  0.00    -0.305 C  
HETATM    5  O   UNL     1     -12.334  13.050  70.911  1.00  0.00    -0.366 OA 
HETATM    6  N   UNL     1     -12.634  15.230  70.124  1.00  0.00    -0.575 N  
HETATM    7  H   UNL     1     -13.276  16.022  70.171  1.00  0.00     0.000 HD 
BRANCH   6   8
HETATM    8  C   UNL     1     -11.499  15.369  69.297  1.00  0.00    -0.333 A  
HETATM    9  C   UNL     1     -10.212  15.534  69.799  1.00  0.00    -0.301 A  
HETATM   10  C   UNL     1      -9.109  15.577  68.945  1.00  0.00    -0.219 A  
HETATM   11  C   UNL     1      -9.260  15.466  67.559  1.00  0.00    -0.199 A  
HETATM   12  C   UNL     1     -10.559  15.380  67.034  1.00  0.00    -0.309 A  
HETATM   13  C   UNL     1     -11.668  15.329  67.910  1.00  0.00    -0.233 A  
BRANCH  11  14
HETATM   14  O   UNL     1      -8.195  15.394  66.698  1.00  0.00    -0.248 OA 
BRANCH  14  15
HETATM   15  C   UNL     1      -7.589  16.635  66.300  1.00  0.00    -0.191 C  
BRANCH  15  16
HETATM   16  C   UNL     1      -6.387  16.931  67.207  1.00  0.00    -0.171 C  
HETATM   17  H   UNL     1      -4.431  16.893  67.035  1.00  0.00     0.000 HD 
HETATM   18  O   UNL     1      -5.175  16.709  66.474  1.00  0.00    -0.356 OA 
BRANCH  16  19
HETATM   19  C   UNL     1      -6.387  18.379  67.742  1.00  0.00    -0.190 C  
BRANCH  19  20
HETATM   20  N   UNL     1      -7.499  18.627  68.665  1.00  0.00    -0.300 NA 
HETATM   21  H   UNL     1      -7.152  18.825  69.603  1.00  0.00     0.000 HD 
BRANCH  20  22
HETATM   22  C   UNL     1      -8.413  19.687  68.215  1.00  0.00    -0.316 C  
HETATM   23  C   UNL     1      -8.148  20.121  66.767  1.00  0.00    -0.350 C  
HETATM   24  C   UNL     1      -9.842  19.154  68.324  1.00  0.00    -0.462 C  
ENDBRANCH  20  22
ENDBRANCH  19  20
ENDBRANCH  16  19
ENDBRANCH  15  16
ENDBRANCH  14  15
ENDBRANCH  11  14
BRANCH  12  25
HETATM   25  C   UNL     1     -10.875  15.278  65.577  1.00  0.00    -0.372 C  
HETATM   26  C   UNL     1     -11.120  13.946  64.920  1.00  0.00    -0.370 C  
HETATM   27  O   UNL     1     -10.886  16.311  64.906  1.00  0.00    -0.625 OA 
ENDBRANCH  12  25
ENDBRANCH   6   8
ENDBRANCH   3   4
ENDBRANCH   2   3
TORSDOF 10
ENDMDL
MODEL       23
REMARK 921   NORMALIZED FREE ENERGY PREDICTED BY IDOCK:   -5.45 KCAL/MOL
REMARK 922        TOTAL FREE ENERGY PREDICTED BY IDOCK:   -9.68 KCAL/MOL
REMARK 923 INTER-LIGAND FREE ENERGY PREDICTED BY IDOCK:   -8.71 KCAL/MOL
REMARK 924 INTRA-LIGAND FREE ENERGY PREDICTED BY IDOCK:   -0.97 KCAL/MOL
REMARK 927      BINDING AFFINITY PREDICTED BY RF-SCORE:    0.00 PKD
ROOT
HETATM    1  C   UNL     1     -12.313  15.419  74.542  1.00  0.00    -0.700 C  
HETATM    2  C   UNL     1     -12.689  16.154  73.267  1.00  0.00    -0.607 C  
ENDROOT
BRANCH   2   3
HETATM    3  C   UNL     1     -13.945  15.565  72.640  1.00  0.00    -0.617 C  
BRANCH   3   4
HETATM    4  C   UNL     1     -13.644  14.232  71.995  1.00  0.00    -0.430 C  
HETATM    5  O   UNL     1     -14.154  13.206  72.436  1.00  0.00    -0.583 OA 
HETATM    6  N   UNL     1     -12.821  14.331  70.881  1.00  0.00    -0.343 N  
HETATM    7  H   UNL     1     -12.511  15.265  70.613  1.00  0.00     0.000 HD 
BRANCH   6   8
HETATM    8  C   UNL     1     -12.374  13.252  70.089  1.00  0.00    -0.236 A  
HETATM    9  C   UNL     1     -12.081  13.378  68.734  1.00  0.00    -0.281 A  
HETATM   10  C   UNL     1     -11.555  12.306  68.011  1.00  0.00    -0.408 A  
HETATM   11  C   UNL     1     -11.317  11.069  68.619  1.00  0.00    -0.281 A  
HETATM   12  C   UNL     1     -11.683  10.905  69.964  1.00  0.00    -0.427 A  
HETATM   13  C   UNL     1     -12.207  12.001  70.688  1.00  0.00    -0.409 A  
BRANCH  11  14
HETATM   14  O   UNL     1     -10.701  10.029  67.971  1.00  0.00    -0.223 OA 
BRANCH  14  15
HETATM   15  C   UNL     1      -9.288  10.149  67.735  1.00  0.00    -0.141 C  
BRANCH  15  16
HETATM   16  C   UNL     1      -8.985   9.811  66.269  1.00  0.00    -0.153 C  
HETATM   17  H   UNL     1      -9.577   8.465  64.967  1.00  0.00     0.000 HD 
HETATM   18  O   UNL     1      -9.764   8.674  65.875  1.00  0.00    -0.209 OA 
BRANCH  16  19
HETATM   19  C   UNL     1      -9.293  10.981  65.312  1.00  0.00    -0.216 C  
BRANCH  19  20
HETATM   20  N   UNL     1     -10.659  10.920  64.783  1.00  0.00    -0.292 NA 
HETATM   21  H   UNL     1     -11.317  10.659  65.517  1.00  0.00     0.000 HD 
BRANCH  20  22
HETATM   22  C   UNL     1     -11.089  12.156  64.115  1.00  0.00    -0.364 C  
HETATM   23  C   UNL     1     -12.592  12.425  64.279  1.00  0.00    -0.494 C  
HETATM   24  C   UNL     1     -10.304  13.317  64.724  1.00  0.00    -0.381 C  
ENDBRANCH  20  22
ENDBRANCH  19  20
ENDBRANCH  16  19
ENDBRANCH  15  16
ENDBRANCH  14  15
ENDBRANCH  11  14
BRANCH  12  25
HETATM   25  C   UNL     1     -11.507   9.638  70.737  1.00  0.00    -0.328 C  
HETATM   26  C   UNL     1     -10.154   9.203  71.231  1.00  0.00    -0.388 C  
HETATM   27  O   UNL     1     -12.494   8.925  70.926  1.00  0.00    -0.198 OA 
ENDBRANCH  12  25
ENDBRANCH   6   8
ENDBRANCH   3   4
ENDBRANCH   2   3
TORSDOF 10
ENDMDL
MODEL       24
REMARK 921   NORMALIZED FREE ENERGY PREDICTED BY IDOCK:   -5.41 KCAL/MOL
REMARK 922        TOTAL FREE ENERGY PREDICTED BY IDOCK:   -9.61 KCAL/MOL
REMARK 923 INTER-LIGAND FREE ENERGY PREDICTED BY IDOCK:   -8.35 KCAL/MOL
REMARK 924 INTRA-LIGAND FREE ENERGY PREDICTED BY IDOCK:   -1.26 KCAL/MOL
REMARK 927      BINDING AFFINITY PREDICTED BY RF-SCORE:    0.00 PKD
ROOT
HETATM    1  C   UNL     1      -9.530   4.218  71.531  1.00  0.00    -0.220 C  
HETATM    2  C   UNL     1     -10.351   5.403  71.055  1.00  0.00    -0.307 C  
ENDROOT
BRANCH   2   3
HETATM    3  C   UNL     1     -11.331   5.863  72.126  1.00  0.00    -0.344 C  
BRANCH   3   4
HETATM    4  C   UNL     1     -11.339   7.371  72.230  1.00  0.00    -0.281 C  
HETATM    5  O   UNL     1     -10.623   7.934  73.053  1.00  0.00    -0.346 OA 
HETATM    6  N   UNL     1     -12.161   7.985  71.296  1.00  0.00    -0.337 N  
HETATM    7  H   UNL     1     -12.663   7.378  70.647  1.00  0.00     0.000 HD 
BRANCH   6   8
HETATM    8  C   UNL     1     -12.365   9.375  71.165  1.00  0.00    -0.308 A  
HETATM    9  C   UNL     1     -13.130  10.116  72.061  1.00  0.00    -0.538 A  
HETATM   10  C   UNL     1     -13.229  11.503  71.943  1.00  0.00    -0.479 A  
HETATM   11  C   UNL     1     -12.574  12.193  70.918  1.00  0.00    -0.247 A  
HETATM   12  C   UNL     1     -11.865  11.450  69.961  1.00  0.00    -0.440 A  
HETATM   13  C   UNL     1     -11.765  10.045  70.096  1.00  0.00    -0.285 A  
BRANCH  11  14
HETATM   14  O   UNL     1     -12.558  13.562  70.834  1.00  0.00    -0.348 OA 
BRANCH  14  15
HETATM   15  C   UNL     1     -13.640  14.268  71.465  1.00  0.00    -0.355 C  
BRANCH  15  16
HETATM   16  C   UNL     1     -13.073  15.402  72.331  1.00  0.00    -0.407 C  
HETATM   17  H   UNL     1     -12.410  15.593  74.169  1.00  0.00     0.000 HD 
HETATM   18  O   UNL     1     -12.761  14.892  73.634  1.00  0.00    -0.526 OA 
BRANCH  16  19
HETATM   19  C   UNL     1     -11.801  16.034  71.726  1.00  0.00    -0.519 C  
BRANCH  19  20
HETATM   20  N   UNL     1     -11.936  16.279  70.287  1.00  0.00    -0.346 NA 
HETATM   21  H   UNL     1     -12.616  17.019  70.110  1.00  0.00     0.000 HD 
BRANCH  20  22
HETATM   22  C   UNL     1     -10.662  16.574  69.617  1.00  0.00    -0.323 C  
HETATM   23  C   UNL     1      -9.668  15.407  69.697  1.00  0.00    -0.251 C  
HETATM   24  C   UNL     1     -10.962  16.876  68.148  1.00  0.00    -0.290 C  
ENDBRANCH  20  22
ENDBRANCH  19  20
ENDBRANCH  16  19
ENDBRANCH  15  16
ENDBRANCH  14  15
ENDBRANCH  11  14
BRANCH  12  25
HETATM   25  C   UNL     1     -11.135  12.047  68.802  1.00  0.00    -0.249 C  
HETATM   26  C   UNL     1     -11.856  12.842  67.747  1.00  0.00    -0.391 C  
HETATM   27  O   UNL     1      -9.926  11.836  68.699  1.00  0.00    -0.212 OA 
ENDBRANCH  12  25
ENDBRANCH   6   8
ENDBRANCH   3   4
ENDBRANCH   2   3
TORSDOF 10
ENDMDL
MODEL       25
REMARK 921   NORMALIZED FREE ENERGY PREDICTED BY IDOCK:   -5.40 KCAL/MOL
REMARK 922        TOTAL FREE ENERGY PREDICTED BY IDOCK:   -9.60 KCAL/MOL
REMARK 923 INTER-LIGAND FREE ENERGY PREDICTED BY IDOCK:   -8.48 KCAL/MOL
REMARK 924 INTRA-LIGAND FREE ENERGY PREDICTED BY IDOCK:   -1.12 KCAL/MOL
REMARK 927      BINDING AFFINITY PREDICTED BY RF-SCORE:    0.00 PKD
ROOT
HETATM    1  C   UNL     1      -9.955   4.543  71.780  1.00  0.00    -0.264 C  
HETATM    2  C   UNL     1     -11.056   4.626  72.823  1.00  0.00    -0.213 C  
ENDROOT
BRANCH   2   3
HETATM    3  C   UNL     1     -10.701   5.618  73.922  1.00  0.00    -0.228 C  
BRANCH   3   4
HETATM    4  C   UNL     1     -10.637   7.024  73.372  1.00  0.00    -0.364 C  
HETATM    5  O   UNL     1      -9.645   7.719  73.572  1.00  0.00    -0.277 OA 
HETATM    6  N   UNL     1     -11.748   7.372  72.616  1.00  0.00    -0.522 N  
HETATM    7  H   UNL     1     -12.476   6.666  72.505  1.00  0.00     0.000 HD 
BRANCH   6   8
HETATM    8  C   UNL     1     -11.959   8.618  71.986  1.00  0.00    -0.372 A  
HETATM    9  C   UNL     1     -12.909   9.536  72.424  1.00  0.00    -0.361 A  
HETATM   10  C   UNL     1     -13.020  10.793  71.827  1.00  0.00    -0.568 A  
HETATM   11  C   UNL     1     -12.192  11.166  70.764  1.00  0.00    -0.385 A  
HETATM   12  C   UNL     1     -11.285  10.221  70.260  1.00  0.00    -0.395 A  
HETATM   13  C   UNL     1     -11.175   8.954  70.880  1.00  0.00    -0.334 A  
BRANCH  11  14
HETATM   14  O   UNL     1     -12.197  12.428  70.226  1.00  0.00    -0.327 OA 
BRANCH  14  15
HETATM   15  C   UNL     1     -12.440  13.523  71.125  1.00  0.00    -0.339 C  
BRANCH  15  16
HETATM   16  C   UNL     1     -12.379  14.845  70.348  1.00  0.00    -0.345 C  
HETATM   17  H   UNL     1     -11.801  16.685  70.716  1.00  0.00     0.000 HD 
HETATM   18  O   UNL     1     -11.840  15.867  71.197  1.00  0.00    -0.377 OA 
BRANCH  16  19
HETATM   19  C   UNL     1     -11.513  14.748  69.075  1.00  0.00    -0.293 C  
BRANCH  19  20
HETATM   20  N   UNL     1     -12.235  14.121  67.962  1.00  0.00    -0.561 NA 
HETATM   21  H   UNL     1     -13.238  14.284  68.047  1.00  0.00     0.000 HD 
BRANCH  20  22
HETATM   22  C   UNL     1     -11.751  14.536  66.638  1.00  0.00    -0.371 C  
HETATM   23  C   UNL     1     -10.289  14.141  66.392  1.00  0.00    -0.287 C  
HETATM   24  C   UNL     1     -12.634  13.867  65.584  1.00  0.00    -0.553 C  
ENDBRANCH  20  22
ENDBRANCH  19  20
ENDBRANCH  16  19
ENDBRANCH  15  16
ENDBRANCH  14  15
ENDBRANCH  11  14
BRANCH  12  25
HETATM   25  C   UNL     1     -10.353  10.471  69.119  1.00  0.00    -0.220 C  
HETATM   26  C   UNL     1     -10.860  10.599  67.707  1.00  0.00    -0.338 C  
HETATM   27  O   UNL     1      -9.145  10.526  69.350  1.00  0.00    -0.181 OA 
ENDBRANCH  12  25
ENDBRANCH   6   8
ENDBRANCH   3   4
ENDBRANCH   2   3
TORSDOF 10
ENDMDL
MODEL       26
REMARK 921   NORMALIZED FREE ENERGY PREDICTED BY IDOCK:   -5.39 KCAL/MOL
REMARK 922        TOTAL FREE ENERGY PREDICTED BY IDOCK:   -9.58 KCAL/MOL
REMARK 923 INTER-LIGAND FREE ENERGY PREDICTED BY IDOCK:   -8.43 KCAL/MOL
REMARK 924 INTRA-LIGAND FREE ENERGY PREDICTED BY IDOCK:   -1.15 KCAL/MOL
REMARK 927      BINDING AFFINITY PREDICTED BY RF-SCORE:    0.00 PKD
ROOT
HETATM    1  C   UNL     1     -10.683  19.834  65.933  1.00  0.00    -0.488 C  
HETATM    2  C   UNL     1     -10.260  19.082  67.183  1.00  0.00    -0.464 C  
ENDROOT
BRANCH   2   3
HETATM    3  C   UNL     1      -9.692  17.712  66.838  1.00  0.00    -0.292 C  
BRANCH   3   4
HETATM    4  C   UNL     1      -9.909  16.742  67.976  1.00  0.00    -0.265 C  
HETATM    5  O   UNL     1      -9.134  16.727  68.929  1.00  0.00    -0.254 OA 
HETATM    6  N   UNL     1     -11.054  15.970  67.833  1.00  0.00    -0.331 N  
HETATM    7  H   UNL     1     -11.623  16.130  67.001  1.00  0.00     0.000 HD 
BRANCH   6   8
HETATM    8  C   UNL     1     -11.501  14.984  68.738  1.00  0.00    -0.319 A  
HETATM    9  C   UNL     1     -11.316  13.621  68.525  1.00  0.00    -0.325 A  
HETATM   10  C   UNL     1     -11.694  12.686  69.490  1.00  0.00    -0.374 A  
HETATM   11  C   UNL     1     -12.280  13.085  70.696  1.00  0.00    -0.307 A  
HETATM   12  C   UNL     1     -12.546  14.450  70.889  1.00  0.00    -0.422 A  
HETATM   13  C   UNL     1     -12.151  15.388  69.907  1.00  0.00    -0.382 A  
BRANCH  11  14
HETATM   14  O   UNL     1     -12.563  12.207  71.711  1.00  0.00    -0.177 OA 
BRANCH  14  15
HETATM   15  C   UNL     1     -13.275  11.008  71.360  1.00  0.00    -0.229 C  
BRANCH  15  16
HETATM   16  C   UNL     1     -12.670   9.816  72.114  1.00  0.00    -0.326 C  
HETATM   17  H   UNL     1     -13.308   8.083  72.781  1.00  0.00     0.000 HD 
HETATM   18  O   UNL     1     -13.682   8.821  72.315  1.00  0.00    -0.411 OA 
BRANCH  16  19
HETATM   19  C   UNL     1     -11.485   9.176  71.362  1.00  0.00    -0.350 C  
BRANCH  19  20
HETATM   20  N   UNL     1     -11.654   9.238  69.906  1.00  0.00    -0.445 NA 
HETATM   21  H   UNL     1     -11.999  10.155  69.624  1.00  0.00     0.000 HD 
BRANCH  20  22
HETATM   22  C   UNL     1     -10.441   8.886  69.156  1.00  0.00    -0.223 C  
HETATM   23  C   UNL     1     -10.566   9.184  67.655  1.00  0.00    -0.307 C  
HETATM   24  C   UNL     1      -9.280   9.696  69.732  1.00  0.00    -0.237 C  
ENDBRANCH  20  22
ENDBRANCH  19  20
ENDBRANCH  16  19
ENDBRANCH  15  16
ENDBRANCH  14  15
ENDBRANCH  11  14
BRANCH  12  25
HETATM   25  C   UNL     1     -13.185  15.019  72.114  1.00  0.00    -0.368 C  
HETATM   26  C   UNL     1     -12.371  15.370  73.331  1.00  0.00    -0.622 C  
HETATM   27  O   UNL     1     -14.409  15.154  72.128  1.00  0.00    -0.513 OA 
ENDBRANCH  12  25
ENDBRANCH   6   8
ENDBRANCH   3   4
ENDBRANCH   2   3
TORSDOF 10
ENDMDL
MODEL       27
REMARK 921   NORMALIZED FREE ENERGY PREDICTED BY IDOCK:   -5.37 KCAL/MOL
REMARK 922        TOTAL FREE ENERGY PREDICTED BY IDOCK:   -9.55 KCAL/MOL
REMARK 923 INTER-LIGAND FREE ENERGY PREDICTED BY IDOCK:   -8.16 KCAL/MOL
REMARK 924 INTRA-LIGAND FREE ENERGY PREDICTED BY IDOCK:   -1.39 KCAL/MOL
REMARK 927      BINDING AFFINITY PREDICTED BY RF-SCORE:    0.00 PKD
ROOT
HETATM    1  C   UNL     1     -10.474   5.568  70.152  1.00  0.00    -0.370 C  
HETATM    2  C   UNL     1     -11.620   6.561  70.066  1.00  0.00    -0.455 C  
ENDROOT
BRANCH   2   3
HETATM    3  C   UNL     1     -11.758   7.359  71.356  1.00  0.00    -0.316 C  
BRANCH   3   4
HETATM    4  C   UNL     1     -11.369   8.802  71.134  1.00  0.00    -0.285 C  
HETATM    5  O   UNL     1     -10.293   9.220  71.552  1.00  0.00    -0.336 OA 
HETATM    6  N   UNL     1     -12.303   9.519  70.398  1.00  0.00    -0.477 N  
HETATM    7  H   UNL     1     -13.134   9.016  70.084  1.00  0.00     0.000 HD 
BRANCH   6   8
HETATM    8  C   UNL     1     -12.204  10.882  70.046  1.00  0.00    -0.347 A  
HETATM    9  C   UNL     1     -12.412  11.916  70.954  1.00  0.00    -0.397 A  
HETATM   10  C   UNL     1     -12.214  13.247  70.583  1.00  0.00    -0.417 A  
HETATM   11  C   UNL     1     -11.813  13.586  69.287  1.00  0.00    -0.341 A  
HETATM   12  C   UNL     1     -11.677  12.559  68.340  1.00  0.00    -0.375 A  
HETATM   13  C   UNL     1     -11.871  11.214  68.730  1.00  0.00    -0.388 A  
BRANCH  11  14
HETATM   14  O   UNL     1     -11.503  14.871  68.917  1.00  0.00    -0.269 OA 
BRANCH  14  15
HETATM   15  C   UNL     1     -10.524  15.562  69.711  1.00  0.00    -0.301 C  
BRANCH  15  16
HETATM   16  C   UNL     1      -9.237  15.740  68.894  1.00  0.00    -0.227 C  
HETATM   17  H   UNL     1      -7.633  14.672  68.515  1.00  0.00     0.000 HD 
HETATM   18  O   UNL     1      -8.430  14.562  69.022  1.00  0.00    -0.135 OA 
BRANCH  16  19
HETATM   19  C   UNL     1      -9.513  15.995  67.397  1.00  0.00    -0.219 C  
BRANCH  19  20
HETATM   20  N   UNL     1     -10.315  17.203  67.181  1.00  0.00    -0.309 NA 
HETATM   21  H   UNL     1     -11.198  17.143  67.687  1.00  0.00     0.000 HD 
BRANCH  20  22
HETATM   22  C   UNL     1      -9.609  18.448  67.513  1.00  0.00    -0.284 C  
HETATM   23  C   UNL     1      -8.430  18.728  66.572  1.00  0.00    -0.310 C  
HETATM   24  C   UNL     1     -10.612  19.598  67.415  1.00  0.00    -0.589 C  
ENDBRANCH  20  22
ENDBRANCH  19  20
ENDBRANCH  16  19
ENDBRANCH  15  16
ENDBRANCH  14  15
ENDBRANCH  11  14
BRANCH  12  25
HETATM   25  C   UNL     1     -11.275  12.774  66.916  1.00  0.00    -0.296 C  
HETATM   26  C   UNL     1     -12.278  13.187  65.873  1.00  0.00    -0.497 C  
HETATM   27  O   UNL     1     -10.105  12.559  66.599  1.00  0.00    -0.224 OA 
ENDBRANCH  12  25
ENDBRANCH   6   8
ENDBRANCH   3   4
ENDBRANCH   2   3
TORSDOF 10
ENDMDL
MODEL       28
REMARK 921   NORMALIZED FREE ENERGY PREDICTED BY IDOCK:   -5.37 KCAL/MOL
REMARK 922        TOTAL FREE ENERGY PREDICTED BY IDOCK:   -9.55 KCAL/MOL
REMARK 923 INTER-LIGAND FREE ENERGY PREDICTED BY IDOCK:   -8.56 KCAL/MOL
REMARK 924 INTRA-LIGAND FREE ENERGY PREDICTED BY IDOCK:   -0.99 KCAL/MOL
REMARK 927      BINDING AFFINITY PREDICTED BY RF-SCORE:    0.00 PKD
ROOT
HETATM    1  C   UNL     1     -11.319   4.599  73.342  1.00  0.00    -0.394 C  
HETATM    2  C   UNL     1     -10.471   5.794  72.943  1.00  0.00    -0.244 C  
ENDROOT
BRANCH   2   3
HETATM    3  C   UNL     1     -10.824   6.279  71.543  1.00  0.00    -0.303 C  
BRANCH   3   4
HETATM    4  C   UNL     1     -10.850   7.789  71.493  1.00  0.00    -0.227 C  
HETATM    5  O   UNL     1     -10.299   8.444  72.374  1.00  0.00    -0.305 OA 
HETATM    6  N   UNL     1     -11.484   8.293  70.365  1.00  0.00    -0.433 N  
HETATM    7  H   UNL     1     -11.856   7.617  69.699  1.00  0.00     0.000 HD 
BRANCH   6   8
HETATM    8  C   UNL     1     -11.659   9.660  70.061  1.00  0.00    -0.088 A  
HETATM    9  C   UNL     1     -12.128  10.588  70.985  1.00  0.00    -0.492 A  
HETATM   10  C   UNL     1     -12.199  11.946  70.666  1.00  0.00    -0.424 A  
HETATM   11  C   UNL     1     -11.813  12.416  69.407  1.00  0.00    -0.304 A  
HETATM   12  C   UNL     1     -11.414  11.481  68.439  1.00  0.00    -0.364 A  
HETATM   13  C   UNL     1     -11.338  10.110  68.777  1.00  0.00    -0.172 A  
BRANCH  11  14
HETATM   14  O   UNL     1     -11.765  13.751  69.095  1.00  0.00    -0.286 OA 
BRANCH  14  15
HETATM   15  C   UNL     1     -10.521  14.433  69.328  1.00  0.00    -0.140 C  
BRANCH  15  16
HETATM   16  C   UNL     1     -10.804  15.890  69.721  1.00  0.00    -0.328 C  
HETATM   17  H   UNL     1     -11.549  17.481  68.845  1.00  0.00     0.000 HD 
HETATM   18  O   UNL     1     -11.373  16.579  68.601  1.00  0.00    -0.344 OA 
BRANCH  16  19
HETATM   19  C   UNL     1     -11.767  16.006  70.921  1.00  0.00    -0.402 C  
BRANCH  19  20
HETATM   20  N   UNL     1     -11.489  15.003  71.953  1.00  0.00    -0.506 NA 
HETATM   21  H   UNL     1     -10.612  15.210  72.430  1.00  0.00     0.000 HD 
BRANCH  20  22
HETATM   22  C   UNL     1     -12.580  14.837  72.924  1.00  0.00    -0.387 C  
HETATM   23  C   UNL     1     -12.508  15.852  74.074  1.00  0.00    -0.764 C  
HETATM   24  C   UNL     1     -13.903  15.019  72.179  1.00  0.00    -0.584 C  
ENDBRANCH  20  22
ENDBRANCH  19  20
ENDBRANCH  16  19
ENDBRANCH  15  16
ENDBRANCH  14  15
ENDBRANCH  11  14
BRANCH  12  25
HETATM   25  C   UNL     1     -10.995  11.834  67.049  1.00  0.00    -0.285 C  
HETATM   26  C   UNL     1      -9.541  11.940  66.672  1.00  0.00    -0.220 C  
HETATM   27  O   UNL     1     -11.869  12.084  66.218  1.00  0.00    -0.563 OA 
ENDBRANCH  12  25
ENDBRANCH   6   8
ENDBRANCH   3   4
ENDBRANCH   2   3
TORSDOF 10
ENDMDL
MODEL       29
REMARK 921   NORMALIZED FREE ENERGY PREDICTED BY IDOCK:   -5.36 KCAL/MOL
REMARK 922        TOTAL FREE ENERGY PREDICTED BY IDOCK:   -9.52 KCAL/MOL
REMARK 923 INTER-LIGAND FREE ENERGY PREDICTED BY IDOCK:   -8.18 KCAL/MOL
REMARK 924 INTRA-LIGAND FREE ENERGY PREDICTED BY IDOCK:   -1.35 KCAL/MOL
REMARK 927      BINDING AFFINITY PREDICTED BY RF-SCORE:    0.00 PKD
ROOT
HETATM    1  C   UNL     1     -14.102   7.392  71.506  1.00  0.00    -0.541 C  
HETATM    2  C   UNL     1     -12.591   7.254  71.443  1.00  0.00    -0.423 C  
ENDROOT
BRANCH   2   3
HETATM    3  C   UNL     1     -11.902   8.360  72.231  1.00  0.00    -0.456 C  
BRANCH   3   4
HETATM    4  C   UNL     1     -11.423   9.455  71.307  1.00  0.00    -0.363 C  
HETATM    5  O   UNL     1     -10.302   9.393  70.808  1.00  0.00    -0.254 OA 
HETATM    6  N   UNL     1     -12.377  10.436  71.073  1.00  0.00    -0.351 N  
HETATM    7  H   UNL     1     -13.282  10.324  71.530  1.00  0.00     0.000 HD 
BRANCH   6   8
HETATM    8  C   UNL     1     -12.204  11.575  70.257  1.00  0.00    -0.332 A  
HETATM    9  C   UNL     1     -12.220  12.874  70.757  1.00  0.00    -0.348 A  
HETATM   10  C   UNL     1     -11.954  13.965  69.929  1.00  0.00    -0.405 A  
HETATM   11  C   UNL     1     -11.675  13.792  68.569  1.00  0.00    -0.356 A  
HETATM   12  C   UNL     1     -11.734  12.495  68.035  1.00  0.00    -0.410 A  
HETATM   13  C   UNL     1     -11.996  11.396  68.887  1.00  0.00    -0.371 A  
BRANCH  11  14
HETATM   14  O   UNL     1     -11.302  14.826  67.749  1.00  0.00    -0.303 OA 
BRANCH  14  15
HETATM   15  C   UNL     1     -10.978  16.077  68.380  1.00  0.00    -0.331 C  
BRANCH  15  16
HETATM   16  C   UNL     1     -10.500  17.076  67.317  1.00  0.00    -0.301 C  
HETATM   17  H   UNL     1     -10.378  19.029  67.153  1.00  0.00     0.000 HD 
HETATM   18  O   UNL     1     -10.675  18.411  67.811  1.00  0.00    -0.414 OA 
BRANCH  16  19
HETATM   19  C   UNL     1      -9.019  16.876  66.935  1.00  0.00    -0.224 C  
BRANCH  19  20
HETATM   20  N   UNL     1      -8.681  15.460  66.754  1.00  0.00    -0.249 NA 
HETATM   21  H   UNL     1      -8.491  15.259  65.773  1.00  0.00     0.000 HD 
BRANCH  20  22
HETATM   22  C   UNL     1      -7.569  15.006  67.601  1.00  0.00    -0.178 C  
HETATM   23  C   UNL     1      -7.101  16.083  68.590  1.00  0.00    -0.136 C  
HETATM   24  C   UNL     1      -8.045  13.782  68.384  1.00  0.00    -0.148 C  
ENDBRANCH  20  22
ENDBRANCH  19  20
ENDBRANCH  16  19
ENDBRANCH  15  16
ENDBRANCH  14  15
ENDBRANCH  11  14
BRANCH  12  25
HETATM   25  C   UNL     1     -11.480  12.161  66.601  1.00  0.00    -0.365 C  
HETATM   26  C   UNL     1     -10.180  11.543  66.159  1.00  0.00    -0.272 C  
HETATM   27  O   UNL     1     -12.343  12.446  65.771  1.00  0.00    -0.644 OA 
ENDBRANCH  12  25
ENDBRANCH   6   8
ENDBRANCH   3   4
ENDBRANCH   2   3
TORSDOF 10
ENDMDL
MODEL       30
REMARK 921   NORMALIZED FREE ENERGY PREDICTED BY IDOCK:   -5.33 KCAL/MOL
REMARK 922        TOTAL FREE ENERGY PREDICTED BY IDOCK:   -9.48 KCAL/MOL
REMARK 923 INTER-LIGAND FREE ENERGY PREDICTED BY IDOCK:   -8.09 KCAL/MOL
REMARK 924 INTRA-LIGAND FREE ENERGY PREDICTED BY IDOCK:   -1.39 KCAL/MOL
REMARK 927      BINDING AFFINITY PREDICTED BY RF-SCORE:    0.00 PKD
ROOT
HETATM    1  C   UNL     1     -12.455  16.242  73.174  1.00  0.00    -0.559 C  
HETATM    2  C   UNL     1     -13.403  15.059  73.267  1.00  0.00    -0.429 C  
ENDROOT
BRANCH   2   3
HETATM    3  C   UNL     1     -13.998  14.719  71.906  1.00  0.00    -0.577 C  
BRANCH   3   4
HETATM    4  C   UNL     1     -13.075  13.805  71.134  1.00  0.00    -0.253 C  
HETATM    5  O   UNL     1     -12.859  12.665  71.537  1.00  0.00    -0.357 OA 
HETATM    6  N   UNL     1     -12.590  14.371  69.963  1.00  0.00    -0.494 N  
HETATM    7  H   UNL     1     -12.897  15.318  69.742  1.00  0.00     0.000 HD 
BRANCH   6   8
HETATM    8  C   UNL     1     -11.709  13.750  69.051  1.00  0.00    -0.331 A  
HETATM    9  C   UNL     1     -11.888  12.449  68.591  1.00  0.00    -0.348 A  
HETATM   10  C   UNL     1     -11.043  11.909  67.621  1.00  0.00    -0.314 A  
HETATM   11  C   UNL     1      -9.984  12.650  67.087  1.00  0.00    -0.217 A  
HETATM   12  C   UNL     1      -9.743  13.934  67.600  1.00  0.00    -0.226 A  
HETATM   13  C   UNL     1     -10.612  14.474  68.577  1.00  0.00    -0.252 A  
BRANCH  11  14
HETATM   14  O   UNL     1      -9.202  12.194  66.057  1.00  0.00    -0.209 OA 
BRANCH  14  15
HETATM   15  C   UNL     1      -9.555  10.926  65.480  1.00  0.00    -0.221 C  
BRANCH  15  16
HETATM   16  C   UNL     1      -9.061  10.870  64.027  1.00  0.00    -0.149 C  
HETATM   17  H   UNL     1      -8.514   9.470  62.763  1.00  0.00     0.000 HD 
HETATM   18  O   UNL     1      -8.820   9.505  63.662  1.00  0.00    -0.224 OA 
BRANCH  16  19
HETATM   19  C   UNL     1     -10.068  11.481  63.032  1.00  0.00    -0.291 C  
BRANCH  19  20
HETATM   20  N   UNL     1     -10.432  12.857  63.387  1.00  0.00    -0.480 NA 
HETATM   21  H   UNL     1      -9.992  13.521  62.750  1.00  0.00     0.000 HD 
BRANCH  20  22
HETATM   22  C   UNL     1     -11.882  13.085  63.456  1.00  0.00    -0.516 C  
HETATM   23  C   UNL     1     -12.676  11.786  63.649  1.00  0.00    -0.407 C  
HETATM   24  C   UNL     1     -12.155  14.018  64.636  1.00  0.00    -0.462 C  
ENDBRANCH  20  22
ENDBRANCH  19  20
ENDBRANCH  16  19
ENDBRANCH  15  16
ENDBRANCH  14  15
ENDBRANCH  11  14
BRANCH  12  25
HETATM   25  C   UNL     1      -8.640  14.832  67.143  1.00  0.00    -0.226 C  
HETATM   26  C   UNL     1      -8.908  16.007  66.242  1.00  0.00    -0.379 C  
HETATM   27  O   UNL     1      -7.487  14.563  67.483  1.00  0.00    -0.171 OA 
ENDBRANCH  12  25
ENDBRANCH   6   8
ENDBRANCH   3   4
ENDBRANCH   2   3
TORSDOF 10
ENDMDL
MODEL       31
REMARK 921   NORMALIZED FREE ENERGY PREDICTED BY IDOCK:   -5.32 KCAL/MOL
REMARK 922        TOTAL FREE ENERGY PREDICTED BY IDOCK:   -9.46 KCAL/MOL
REMARK 923 INTER-LIGAND FREE ENERGY PREDICTED BY IDOCK:   -7.90 KCAL/MOL
REMARK 924 INTRA-LIGAND FREE ENERGY PREDICTED BY IDOCK:   -1.56 KCAL/MOL
REMARK 927      BINDING AFFINITY PREDICTED BY RF-SCORE:    0.00 PKD
ROOT
HETATM    1  C   UNL     1     -10.887   6.108  68.361  1.00  0.00    -0.382 C  
HETATM    2  C   UNL     1     -10.911   7.056  67.175  1.00  0.00    -0.427 C  
ENDROOT
BRANCH   2   3
HETATM    3  C   UNL     1      -9.516   7.253  66.598  1.00  0.00    -0.228 C  
BRANCH   3   4
HETATM    4  C   UNL     1      -9.335   8.673  66.112  1.00  0.00    -0.226 C  
HETATM    5  O   UNL     1      -8.693   8.897  65.090  1.00  0.00    -0.178 OA 
HETATM    6  N   UNL     1      -9.997   9.611  66.893  1.00  0.00    -0.198 N  
HETATM    7  H   UNL     1     -10.527   9.262  67.691  1.00  0.00     0.000 HD 
BRANCH   6   8
HETATM    8  C   UNL     1     -10.000  11.006  66.678  1.00  0.00    -0.209 A  
HETATM    9  C   UNL     1      -9.077  11.865  67.267  1.00  0.00    -0.178 A  
HETATM   10  C   UNL     1      -9.061  13.225  66.955  1.00  0.00    -0.232 A  
HETATM   11  C   UNL     1      -9.977  13.772  66.051  1.00  0.00    -0.306 A  
HETATM   12  C   UNL     1     -10.964  12.933  65.511  1.00  0.00    -0.301 A  
HETATM   13  C   UNL     1     -10.964  11.554  65.828  1.00  0.00    -0.305 A  
BRANCH  11  14
HETATM   14  O   UNL     1      -9.924  15.079  65.637  1.00  0.00    -0.316 OA 
BRANCH  14  15
HETATM   15  C   UNL     1      -8.932  15.919  66.250  1.00  0.00    -0.346 C  
BRANCH  15  16
HETATM   16  C   UNL     1      -9.557  17.277  66.598  1.00  0.00    -0.276 C  
HETATM   17  H   UNL     1     -10.865  18.492  65.780  1.00  0.00     0.000 HD 
HETATM   18  O   UNL     1     -10.477  17.652  65.565  1.00  0.00    -0.636 OA 
BRANCH  16  19
HETATM   19  C   UNL     1     -10.303  17.260  67.948  1.00  0.00    -0.360 C  
BRANCH  19  20
HETATM   20  N   UNL     1     -11.393  16.279  67.966  1.00  0.00    -0.268 NA 
HETATM   21  H   UNL     1     -11.325  15.652  67.165  1.00  0.00     0.000 HD 
BRANCH  20  22
HETATM   22  C   UNL     1     -11.478  15.515  69.218  1.00  0.00    -0.340 C  
HETATM   23  C   UNL     1     -12.010  14.090  69.007  1.00  0.00    -0.392 C  
HETATM   24  C   UNL     1     -10.074  15.440  69.819  1.00  0.00    -0.266 C  
ENDBRANCH  20  22
ENDBRANCH  19  20
ENDBRANCH  16  19
ENDBRANCH  15  16
ENDBRANCH  14  15
ENDBRANCH  11  14
BRANCH  12  25
HETATM   25  C   UNL     1     -12.019  13.380  64.551  1.00  0.00    -0.407 C  
HETATM   26  C   UNL     1     -12.207  12.699  63.221  1.00  0.00    -0.512 C  
HETATM   27  O   UNL     1     -12.708  14.355  64.850  1.00  0.00    -0.614 OA 
ENDBRANCH  12  25
ENDBRANCH   6   8
ENDBRANCH   3   4
ENDBRANCH   2   3
TORSDOF 10
ENDMDL
MODEL       32
REMARK 921   NORMALIZED FREE ENERGY PREDICTED BY IDOCK:   -5.28 KCAL/MOL
REMARK 922        TOTAL FREE ENERGY PREDICTED BY IDOCK:   -9.40 KCAL/MOL
REMARK 923 INTER-LIGAND FREE ENERGY PREDICTED BY IDOCK:   -8.99 KCAL/MOL
REMARK 924 INTRA-LIGAND FREE ENERGY PREDICTED BY IDOCK:   -0.41 KCAL/MOL
REMARK 927      BINDING AFFINITY PREDICTED BY RF-SCORE:    0.00 PKD
ROOT
HETATM    1  C   UNL     1      -9.574  20.776  67.570  1.00  0.00    -0.439 C  
HETATM    2  C   UNL     1      -9.268  19.799  66.448  1.00  0.00    -0.468 C  
ENDROOT
BRANCH   2   3
HETATM    3  C   UNL     1     -10.521  19.465  65.649  1.00  0.00    -0.355 C  
BRANCH   3   4
HETATM    4  C   UNL     1     -10.720  17.969  65.571  1.00  0.00     0.042 C  
HETATM    5  O   UNL     1     -11.189  17.463  64.555  1.00  0.00    -1.018 OA 
HETATM    6  N   UNL     1     -10.279  17.293  66.700  1.00  0.00    -0.313 N  
HETATM    7  H   UNL     1      -9.871  17.854  67.449  1.00  0.00     0.000 HD 
BRANCH   6   8
HETATM    8  C   UNL     1     -10.344  15.898  66.903  1.00  0.00    -0.291 A  
HETATM    9  C   UNL     1      -9.723  15.259  67.972  1.00  0.00    -0.211 A  
HETATM   10  C   UNL     1      -9.890  13.889  68.184  1.00  0.00    -0.240 A  
HETATM   11  C   UNL     1     -10.676  13.113  67.326  1.00  0.00    -0.254 A  
HETATM   12  C   UNL     1     -11.242  13.730  66.199  1.00  0.00    -0.301 A  
HETATM   13  C   UNL     1     -11.073  15.120  66.000  1.00  0.00    -0.312 A  
BRANCH  11  14
HETATM   14  O   UNL     1     -10.952  11.791  67.563  1.00  0.00    -0.228 OA 
BRANCH  14  15
HETATM   15  C   UNL     1     -10.482  11.236  68.803  1.00  0.00    -0.208 C  
BRANCH  15  16
HETATM   16  C   UNL     1     -11.645  10.541  69.525  1.00  0.00    -0.260 C  
HETATM   17  H   UNL     1     -11.882   8.918  70.604  1.00  0.00     0.000 HD 
HETATM   18  O   UNL     1     -11.163   9.348  70.157  1.00  0.00    -0.242 OA 
BRANCH  16  19
HETATM   19  C   UNL     1     -12.305  11.439  70.592  1.00  0.00    -0.373 C  
BRANCH  19  20
HETATM   20  N   UNL     1     -11.803  12.816  70.543  1.00  0.00    -0.531 NA 
HETATM   21  H   UNL     1     -11.487  13.051  69.603  1.00  0.00     0.000 HD 
BRANCH  20  22
HETATM   22  C   UNL     1     -12.767  13.812  71.031  1.00  0.00    -0.343 C  
HETATM   23  C   UNL     1     -13.603  13.298  72.211  1.00  0.00    -0.703 C  
HETATM   24  C   UNL     1     -11.983  15.048  71.474  1.00  0.00    -0.416 C  
ENDBRANCH  20  22
ENDBRANCH  19  20
ENDBRANCH  16  19
ENDBRANCH  15  16
ENDBRANCH  14  15
ENDBRANCH  11  14
BRANCH  12  25
HETATM   25  C   UNL     1     -12.086  13.025  65.187  1.00  0.00    -0.433 C  
HETATM   26  C   UNL     1     -11.487  12.043  64.215  1.00  0.00    -0.435 C  
HETATM   27  O   UNL     1     -13.285  13.298  65.131  1.00  0.00    -0.658 OA 
ENDBRANCH  12  25
ENDBRANCH   6   8
ENDBRANCH   3   4
ENDBRANCH   2   3
TORSDOF 10
ENDMDL
MODEL       33
REMARK 921   NORMALIZED FREE ENERGY PREDICTED BY IDOCK:   -5.28 KCAL/MOL
REMARK 922        TOTAL FREE ENERGY PREDICTED BY IDOCK:   -9.40 KCAL/MOL
REMARK 923 INTER-LIGAND FREE ENERGY PREDICTED BY IDOCK:   -8.66 KCAL/MOL
REMARK 924 INTRA-LIGAND FREE ENERGY PREDICTED BY IDOCK:   -0.75 KCAL/MOL
REMARK 927      BINDING AFFINITY PREDICTED BY RF-SCORE:    0.00 PKD
ROOT
HETATM    1  C   UNL     1     -10.659  19.763  65.918  1.00  0.00    -0.557 C  
HETATM    2  C   UNL     1      -9.997  19.435  67.245  1.00  0.00    -0.470 C  
ENDROOT
BRANCH   2   3
HETATM    3  C   UNL     1      -8.951  18.340  67.085  1.00  0.00    -0.264 C  
BRANCH   3   4
HETATM    4  C   UNL     1      -9.272  17.162  67.976  1.00  0.00    -0.250 C  
HETATM    5  O   UNL     1      -8.428  16.735  68.759  1.00  0.00    -0.245 OA 
HETATM    6  N   UNL     1     -10.575  16.704  67.837  1.00  0.00    -0.331 N  
HETATM    7  H   UNL     1     -11.172  17.193  67.171  1.00  0.00     0.000 HD 
BRANCH   6   8
HETATM    8  C   UNL     1     -11.145  15.619  68.538  1.00  0.00    -0.322 A  
HETATM    9  C   UNL     1     -11.221  14.334  68.011  1.00  0.00    -0.300 A  
HETATM   10  C   UNL     1     -11.711  13.273  68.775  1.00  0.00    -0.366 A  
HETATM   11  C   UNL     1     -12.152  13.468  70.088  1.00  0.00    -0.354 A  
HETATM   12  C   UNL     1     -12.156  14.774  70.604  1.00  0.00    -0.374 A  
HETATM   13  C   UNL     1     -11.648  15.838  69.823  1.00  0.00    -0.359 A  
BRANCH  11  14
HETATM   14  O   UNL     1     -12.536  12.435  70.905  1.00  0.00    -0.340 OA 
BRANCH  14  15
HETATM   15  C   UNL     1     -12.511  11.113  70.342  1.00  0.00    -0.299 C  
BRANCH  15  16
HETATM   16  C   UNL     1     -12.139  10.100  71.434  1.00  0.00    -0.382 C  
HETATM   17  H   UNL     1     -13.090   9.103  72.833  1.00  0.00     0.000 HD 
HETATM   18  O   UNL     1     -13.320   9.730  72.158  1.00  0.00    -0.434 OA 
BRANCH  16  19
HETATM   19  C   UNL     1     -11.484   8.825  70.865  1.00  0.00    -0.284 C  
BRANCH  19  20
HETATM   20  N   UNL     1     -11.945   7.612  71.549  1.00  0.00    -0.292 NA 
HETATM   21  H   UNL     1     -12.789   7.249  71.106  1.00  0.00     0.000 HD 
BRANCH  20  22
HETATM   22  C   UNL     1     -10.919   6.565  71.649  1.00  0.00    -0.249 C  
HETATM   23  C   UNL     1     -11.247   5.517  72.721  1.00  0.00    -0.358 C  
HETATM   24  C   UNL     1     -10.818   5.874  70.289  1.00  0.00    -0.391 C  
ENDBRANCH  20  22
ENDBRANCH  19  20
ENDBRANCH  16  19
ENDBRANCH  15  16
ENDBRANCH  14  15
ENDBRANCH  11  14
BRANCH  12  25
HETATM   25  C   UNL     1     -12.616  15.136  71.979  1.00  0.00    -0.343 C  
HETATM   26  C   UNL     1     -14.062  15.438  72.267  1.00  0.00    -0.660 C  
HETATM   27  O   UNL     1     -11.774  15.228  72.873  1.00  0.00    -0.431 OA 
ENDBRANCH  12  25
ENDBRANCH   6   8
ENDBRANCH   3   4
ENDBRANCH   2   3
TORSDOF 10
ENDMDL
MODEL       34
REMARK 921   NORMALIZED FREE ENERGY PREDICTED BY IDOCK:   -5.28 KCAL/MOL
REMARK 922        TOTAL FREE ENERGY PREDICTED BY IDOCK:   -9.39 KCAL/MOL
REMARK 923 INTER-LIGAND FREE ENERGY PREDICTED BY IDOCK:   -8.07 KCAL/MOL
REMARK 924 INTRA-LIGAND FREE ENERGY PREDICTED BY IDOCK:   -1.32 KCAL/MOL
REMARK 927      BINDING AFFINITY PREDICTED BY RF-SCORE:    0.00 PKD
ROOT
HETATM    1  C   UNL     1     -11.197   4.198  73.692  1.00  0.00    -0.312 C  
HETATM    2  C   UNL     1     -10.135   5.113  73.109  1.00  0.00    -0.191 C  
ENDROOT
BRANCH   2   3
HETATM    3  C   UNL     1     -10.409   6.570  73.457  1.00  0.00    -0.299 C  
BRANCH   3   4
HETATM    4  C   UNL     1     -11.129   7.263  72.323  1.00  0.00    -0.260 C  
HETATM    5  O   UNL     1     -12.131   6.755  71.827  1.00  0.00    -0.321 OA 
HETATM    6  N   UNL     1     -10.574   8.490  71.985  1.00  0.00    -0.311 N  
HETATM    7  H   UNL     1      -9.762   8.797  72.521  1.00  0.00     0.000 HD 
BRANCH   6   8
HETATM    8  C   UNL     1     -11.035   9.350  70.965  1.00  0.00    -0.338 A  
HETATM    9  C   UNL     1     -12.040  10.291  71.164  1.00  0.00    -0.494 A  
HETATM   10  C   UNL     1     -12.400  11.181  70.151  1.00  0.00    -0.373 A  
HETATM   11  C   UNL     1     -11.772  11.151  68.902  1.00  0.00    -0.337 A  
HETATM   12  C   UNL     1     -10.813  10.154  68.661  1.00  0.00    -0.272 A  
HETATM   13  C   UNL     1     -10.451   9.264  69.698  1.00  0.00    -0.234 A  
BRANCH  11  14
HETATM   14  O   UNL     1     -12.021  12.077  67.922  1.00  0.00    -0.526 OA 
BRANCH  14  15
HETATM   15  C   UNL     1     -11.700  13.447  68.219  1.00  0.00    -0.356 C  
BRANCH  15  16
HETATM   16  C   UNL     1     -12.118  14.337  67.041  1.00  0.00    -0.390 C  
HETATM   17  H   UNL     1     -11.348  15.856  66.063  1.00  0.00     0.000 HD 
HETATM   18  O   UNL     1     -11.090  15.305  66.793  1.00  0.00    -0.320 OA 
BRANCH  16  19
HETATM   19  C   UNL     1     -12.367  13.534  65.747  1.00  0.00    -0.468 C  
BRANCH  19  20
HETATM   20  N   UNL     1     -11.134  12.945  65.215  1.00  0.00    -0.280 NA 
HETATM   21  H   UNL     1     -10.488  12.718  65.971  1.00  0.00     0.000 HD 
BRANCH  20  22
HETATM   22  C   UNL     1     -11.362  11.773  64.358  1.00  0.00    -0.301 C  
HETATM   23  C   UNL     1     -12.593  11.932  63.454  1.00  0.00    -0.555 C  
HETATM   24  C   UNL     1     -10.122  11.581  63.485  1.00  0.00    -0.446 C  
ENDBRANCH  20  22
ENDBRANCH  19  20
ENDBRANCH  16  19
ENDBRANCH  15  16
ENDBRANCH  14  15
ENDBRANCH  11  14
BRANCH  12  25
HETATM   25  C   UNL     1     -10.077   9.987  67.372  1.00  0.00    -0.208 C  
HETATM   26  C   UNL     1     -10.221   8.738  66.544  1.00  0.00    -0.314 C  
HETATM   27  O   UNL     1      -9.307  10.880  67.016  1.00  0.00    -0.162 OA 
ENDBRANCH  12  25
ENDBRANCH   6   8
ENDBRANCH   3   4
ENDBRANCH   2   3
TORSDOF 10
ENDMDL
MODEL       35
REMARK 921   NORMALIZED FREE ENERGY PREDICTED BY IDOCK:   -5.25 KCAL/MOL
REMARK 922        TOTAL FREE ENERGY PREDICTED BY IDOCK:   -9.35 KCAL/MOL
REMARK 923 INTER-LIGAND FREE ENERGY PREDICTED BY IDOCK:   -8.18 KCAL/MOL
REMARK 924 INTRA-LIGAND FREE ENERGY PREDICTED BY IDOCK:   -1.17 KCAL/MOL
REMARK 927      BINDING AFFINITY PREDICTED BY RF-SCORE:    0.00 PKD
ROOT
HETATM    1  C   UNL     1      -8.401   4.269  69.316  1.00  0.00    -0.085 C  
HETATM    2  C   UNL     1      -9.870   4.228  69.699  1.00  0.00    -0.244 C  
ENDROOT
BRANCH   2   3
HETATM    3  C   UNL     1     -10.151   5.114  70.906  1.00  0.00    -0.302 C  
BRANCH   3   4
HETATM    4  C   UNL     1     -10.948   6.332  70.500  1.00  0.00    -0.312 C  
HETATM    5  O   UNL     1     -11.770   6.255  69.591  1.00  0.00    -0.382 OA 
HETATM    6  N   UNL     1     -10.681   7.450  71.278  1.00  0.00    -0.221 N  
HETATM    7  H   UNL     1      -9.998   7.343  72.028  1.00  0.00     0.000 HD 
BRANCH   6   8
HETATM    8  C   UNL     1     -11.273   8.722  71.123  1.00  0.00    -0.277 A  
HETATM    9  C   UNL     1     -12.128   9.281  72.068  1.00  0.00    -0.406 A  
HETATM   10  C   UNL     1     -12.617  10.579  71.915  1.00  0.00    -0.349 A  
HETATM   11  C   UNL     1     -12.276  11.356  70.803  1.00  0.00    -0.376 A  
HETATM   12  C   UNL     1     -11.480  10.776  69.803  1.00  0.00    -0.386 A  
HETATM   13  C   UNL     1     -10.982   9.463  69.974  1.00  0.00    -0.267 A  
BRANCH  11  14
HETATM   14  O   UNL     1     -12.647  12.670  70.672  1.00  0.00    -0.261 OA 
BRANCH  14  15
HETATM   15  C   UNL     1     -13.332  13.270  71.784  1.00  0.00    -0.393 C  
BRANCH  15  16
HETATM   16  C   UNL     1     -13.689  14.723  71.441  1.00  0.00    -0.431 C  
HETATM   17  H   UNL     1     -14.221  16.330  72.435  1.00  0.00     0.000 HD 
HETATM   18  O   UNL     1     -14.001  15.431  72.648  1.00  0.00    -0.518 OA 
BRANCH  16  19
HETATM   19  C   UNL     1     -12.546  15.460  70.712  1.00  0.00    -0.442 C  
BRANCH  19  20
HETATM   20  N   UNL     1     -12.558  15.208  69.268  1.00  0.00    -0.541 NA 
HETATM   21  H   UNL     1     -13.215  15.831  68.799  1.00  0.00     0.000 HD 
BRANCH  20  22
HETATM   22  C   UNL     1     -11.230  15.290  68.644  1.00  0.00    -0.296 C  
HETATM   23  C   UNL     1     -11.278  15.101  67.121  1.00  0.00    -0.320 C  
HETATM   24  C   UNL     1     -10.647  16.668  68.958  1.00  0.00    -0.340 C  
ENDBRANCH  20  22
ENDBRANCH  19  20
ENDBRANCH  16  19
ENDBRANCH  15  16
ENDBRANCH  14  15
ENDBRANCH  11  14
BRANCH  12  25
HETATM   25  C   UNL     1     -11.053  11.477  68.554  1.00  0.00    -0.236 C  
HETATM   26  C   UNL     1      -9.684  12.091  68.429  1.00  0.00    -0.199 C  
HETATM   27  O   UNL     1     -11.865  11.584  67.635  1.00  0.00    -0.595 OA 
ENDBRANCH  12  25
ENDBRANCH   6   8
ENDBRANCH   3   4
ENDBRANCH   2   3
TORSDOF 10
ENDMDL
MODEL       36
REMARK 921   NORMALIZED FREE ENERGY PREDICTED BY IDOCK:   -5.19 KCAL/MOL
REMARK 922        TOTAL FREE ENERGY PREDICTED BY IDOCK:   -9.25 KCAL/MOL
REMARK 923 INTER-LIGAND FREE ENERGY PREDICTED BY IDOCK:   -7.80 KCAL/MOL
REMARK 924 INTRA-LIGAND FREE ENERGY PREDICTED BY IDOCK:   -1.46 KCAL/MOL
REMARK 927      BINDING AFFINITY PREDICTED BY RF-SCORE:    0.00 PKD
ROOT
HETATM    1  C   UNL     1      -9.803  19.977  66.349  1.00  0.00    -0.578 C  
HETATM    2  C   UNL     1     -10.124  18.493  66.342  1.00  0.00    -0.430 C  
ENDROOT
BRANCH   2   3
HETATM    3  C   UNL     1     -10.584  18.021  67.714  1.00  0.00    -0.409 C  
BRANCH   3   4
HETATM    4  C   UNL     1     -10.784  16.523  67.724  1.00  0.00    -0.329 C  
HETATM    5  O   UNL     1     -11.627  16.019  68.461  1.00  0.00    -0.381 OA 
HETATM    6  N   UNL     1      -9.983  15.853  66.809  1.00  0.00    -0.240 N  
HETATM    7  H   UNL     1      -9.359  16.420  66.234  1.00  0.00     0.000 HD 
BRANCH   6   8
HETATM    8  C   UNL     1      -9.956  14.457  66.604  1.00  0.00    -0.272 A  
HETATM    9  C   UNL     1      -9.542  13.557  67.581  1.00  0.00    -0.222 A  
HETATM   10  C   UNL     1      -9.618  12.180  67.366  1.00  0.00    -0.177 A  
HETATM   11  C   UNL     1     -10.101  11.660  66.161  1.00  0.00    -0.224 A  
HETATM   12  C   UNL     1     -10.446  12.557  65.137  1.00  0.00    -0.320 A  
HETATM   13  C   UNL     1     -10.373  13.950  65.371  1.00  0.00    -0.364 A  
BRANCH  11  14
HETATM   14  O   UNL     1     -10.293  10.317  65.954  1.00  0.00    -0.237 OA 
BRANCH  14  15
HETATM   15  C   UNL     1      -9.244   9.433  66.382  1.00  0.00    -0.169 C  
BRANCH  15  16
HETATM   16  C   UNL     1      -9.838   8.055  66.706  1.00  0.00    -0.257 C  
HETATM   17  H   UNL     1      -9.227   6.190  66.637  1.00  0.00     0.000 HD 
HETATM   18  O   UNL     1      -8.859   7.043  66.435  1.00  0.00    -0.135 OA 
BRANCH  16  19
HETATM   19  C   UNL     1     -10.287   7.932  68.177  1.00  0.00    -0.200 C  
BRANCH  19  20
HETATM   20  N   UNL     1     -11.099   9.076  68.605  1.00  0.00    -0.440 NA 
HETATM   21  H   UNL     1     -12.091   8.886  68.465  1.00  0.00     0.000 HD 
BRANCH  20  22
HETATM   22  C   UNL     1     -10.841   9.497  69.989  1.00  0.00    -0.252 C  
HETATM   23  C   UNL     1      -9.346   9.685  70.282  1.00  0.00    -0.292 C  
HETATM   24  C   UNL     1     -11.566  10.824  70.220  1.00  0.00    -0.427 C  
ENDBRANCH  20  22
ENDBRANCH  19  20
ENDBRANCH  16  19
ENDBRANCH  15  16
ENDBRANCH  14  15
ENDBRANCH  11  14
BRANCH  12  25
HETATM   25  C   UNL     1     -10.956  12.147  63.794  1.00  0.00    -0.431 C  
HETATM   26  C   UNL     1     -12.421  12.221  63.456  1.00  0.00    -0.642 C  
HETATM   27  O   UNL     1     -10.153  11.700  62.974  1.00  0.00    -0.370 OA 
ENDBRANCH  12  25
ENDBRANCH   6   8
ENDBRANCH   3   4
ENDBRANCH   2   3
TORSDOF 10
ENDMDL
MODEL       37
REMARK 921   NORMALIZED FREE ENERGY PREDICTED BY IDOCK:   -5.19 KCAL/MOL
REMARK 922        TOTAL FREE ENERGY PREDICTED BY IDOCK:   -9.25 KCAL/MOL
REMARK 923 INTER-LIGAND FREE ENERGY PREDICTED BY IDOCK:   -7.78 KCAL/MOL
REMARK 924 INTRA-LIGAND FREE ENERGY PREDICTED BY IDOCK:   -1.47 KCAL/MOL
REMARK 927      BINDING AFFINITY PREDICTED BY RF-SCORE:    0.00 PKD
ROOT
HETATM    1  C   UNL     1      -9.805  19.932  66.199  1.00  0.00    -0.562 C  
HETATM    2  C   UNL     1     -10.886  19.464  67.156  1.00  0.00    -0.561 C  
ENDROOT
BRANCH   2   3
HETATM    3  C   UNL     1     -10.284  18.834  68.405  1.00  0.00    -0.413 C  
BRANCH   3   4
HETATM    4  C   UNL     1      -9.980  17.372  68.171  1.00  0.00    -0.308 C  
HETATM    5  O   UNL     1      -8.815  16.985  68.126  1.00  0.00    -0.214 OA 
HETATM    6  N   UNL     1     -11.116  16.579  68.081  1.00  0.00    -0.340 N  
HETATM    7  H   UNL     1     -12.018  17.045  68.181  1.00  0.00     0.000 HD 
BRANCH   6   8
HETATM    8  C   UNL     1     -11.132  15.185  67.861  1.00  0.00    -0.321 A  
HETATM    9  C   UNL     1     -10.809  14.259  68.848  1.00  0.00    -0.272 A  
HETATM   10  C   UNL     1     -10.927  12.888  68.613  1.00  0.00    -0.295 A  
HETATM   11  C   UNL     1     -11.362  12.400  67.376  1.00  0.00    -0.321 A  
HETATM   12  C   UNL     1     -11.614  13.320  66.347  1.00  0.00    -0.387 A  
HETATM   13  C   UNL     1     -11.500  14.707  66.601  1.00  0.00    -0.363 A  
BRANCH  11  14
HETATM   14  O   UNL     1     -11.595  11.069  67.143  1.00  0.00    -0.469 OA 
BRANCH  14  15
HETATM   15  C   UNL     1     -10.557  10.147  67.518  1.00  0.00    -0.273 C  
BRANCH  15  16
HETATM   16  C   UNL     1      -9.627   9.912  66.320  1.00  0.00    -0.209 C  
HETATM   17  H   UNL     1      -9.832   9.704  64.378  1.00  0.00     0.000 HD 
HETATM   18  O   UNL     1     -10.408   9.850  65.120  1.00  0.00    -0.152 OA 
BRANCH  16  19
HETATM   19  C   UNL     1      -8.563  11.019  66.166  1.00  0.00    -0.175 C  
BRANCH  19  20
HETATM   20  N   UNL     1      -7.316  10.689  66.863  1.00  0.00    -0.108 NA 
HETATM   21  H   UNL     1      -6.593  10.418  66.198  1.00  0.00     0.000 HD 
BRANCH  20  22
HETATM   22  C   UNL     1      -6.834  11.760  67.747  1.00  0.00    -0.090 C  
HETATM   23  C   UNL     1      -7.483  13.117  67.441  1.00  0.00    -0.131 C  
HETATM   24  C   UNL     1      -7.160  11.363  69.187  1.00  0.00    -0.115 C  
ENDBRANCH  20  22
ENDBRANCH  19  20
ENDBRANCH  16  19
ENDBRANCH  15  16
ENDBRANCH  14  15
ENDBRANCH  11  14
BRANCH  12  25
HETATM   25  C   UNL     1     -12.064  12.945  64.972  1.00  0.00    -0.435 C  
HETATM   26  C   UNL     1     -11.106  12.925  63.812  1.00  0.00    -0.424 C  
HETATM   27  O   UNL     1     -13.257  12.693  64.794  1.00  0.00    -0.846 OA 
ENDBRANCH  12  25
ENDBRANCH   6   8
ENDBRANCH   3   4
ENDBRANCH   2   3
TORSDOF 10
ENDMDL
MODEL       38
REMARK 921   NORMALIZED FREE ENERGY PREDICTED BY IDOCK:   -5.16 KCAL/MOL
REMARK 922        TOTAL FREE ENERGY PREDICTED BY IDOCK:   -9.22 KCAL/MOL
REMARK 923 INTER-LIGAND FREE ENERGY PREDICTED BY IDOCK:   -8.60 KCAL/MOL
REMARK 924 INTRA-LIGAND FREE ENERGY PREDICTED BY IDOCK:   -0.61 KCAL/MOL
REMARK 927      BINDING AFFINITY PREDICTED BY RF-SCORE:    0.00 PKD
ROOT
HETATM    1  C   UNL     1     -10.609  11.186  63.488  1.00  0.00    -0.393 C  
HETATM    2  C   UNL     1     -10.209  12.634  63.709  1.00  0.00    -0.281 C  
ENDROOT
BRANCH   2   3
HETATM    3  C   UNL     1     -11.413  13.489  64.081  1.00  0.00    -0.394 C  
BRANCH   3   4
HETATM    4  C   UNL     1     -12.076  12.962  65.333  1.00  0.00    -0.454 C  
HETATM    5  O   UNL     1     -13.262  12.646  65.315  1.00  0.00    -0.511 OA 
HETATM    6  N   UNL     1     -11.206  12.839  66.408  1.00  0.00    -0.286 N  
HETATM    7  H   UNL     1     -10.233  13.105  66.252  1.00  0.00     0.000 HD 
BRANCH   6   8
HETATM    8  C   UNL     1     -11.550  12.380  67.697  1.00  0.00    -0.357 A  
HETATM    9  C   UNL     1     -11.580  11.031  68.037  1.00  0.00    -0.326 A  
HETATM   10  C   UNL     1     -11.836  10.627  69.348  1.00  0.00    -0.325 A  
HETATM   11  C   UNL     1     -12.083  11.561  70.360  1.00  0.00    -0.382 A  
HETATM   12  C   UNL     1     -12.135  12.920  70.014  1.00  0.00    -0.357 A  
HETATM   13  C   UNL     1     -11.864  13.318  68.684  1.00  0.00    -0.380 A  
BRANCH  11  14
HETATM   14  O   UNL     1     -12.230  11.208  71.677  1.00  0.00    -0.140 OA 
BRANCH  14  15
HETATM   15  C   UNL     1     -13.512  10.698  72.079  1.00  0.00    -0.205 C  
BRANCH  15  16
HETATM   16  C   UNL     1     -13.395   9.196  72.374  1.00  0.00    -0.463 C  
HETATM   17  H   UNL     1     -14.258   7.551  71.739  1.00  0.00     0.000 HD 
HETATM   18  O   UNL     1     -14.331   8.480  71.557  1.00  0.00    -0.424 OA 
BRANCH  16  19
HETATM   19  C   UNL     1     -11.978   8.647  72.107  1.00  0.00    -0.379 C  
BRANCH  19  20
HETATM   20  N   UNL     1     -11.695   7.442  72.894  1.00  0.00    -0.582 NA 
HETATM   21  H   UNL     1     -11.826   6.604  72.329  1.00  0.00     0.000 HD 
BRANCH  20  22
HETATM   22  C   UNL     1     -10.365   7.445  73.519  1.00  0.00    -0.353 C  
HETATM   23  C   UNL     1      -9.693   6.065  73.486  1.00  0.00    -0.162 C  
HETATM   24  C   UNL     1      -9.492   8.445  72.760  1.00  0.00    -0.312 C  
ENDBRANCH  20  22
ENDBRANCH  19  20
ENDBRANCH  16  19
ENDBRANCH  15  16
ENDBRANCH  14  15
ENDBRANCH  11  14
BRANCH  12  25
HETATM   25  C   UNL     1     -12.407  14.026  70.982  1.00  0.00    -0.369 C  
HETATM   26  C   UNL     1     -13.773  14.225  71.581  1.00  0.00    -0.466 C  
HETATM   27  O   UNL     1     -11.494  14.809  71.249  1.00  0.00    -0.302 OA 
ENDBRANCH  12  25
ENDBRANCH   6   8
ENDBRANCH   3   4
ENDBRANCH   2   3
TORSDOF 10
ENDMDL
MODEL       39
REMARK 921   NORMALIZED FREE ENERGY PREDICTED BY IDOCK:   -5.16 KCAL/MOL
REMARK 922        TOTAL FREE ENERGY PREDICTED BY IDOCK:   -9.20 KCAL/MOL
REMARK 923 INTER-LIGAND FREE ENERGY PREDICTED BY IDOCK:   -8.11 KCAL/MOL
REMARK 924 INTRA-LIGAND FREE ENERGY PREDICTED BY IDOCK:   -1.09 KCAL/MOL
REMARK 927      BINDING AFFINITY PREDICTED BY RF-SCORE:    0.00 PKD
ROOT
HETATM    1  C   UNL     1     -11.928  12.883  63.437  1.00  0.00    -0.612 C  
HETATM    2  C   UNL     1     -12.513  12.627  64.815  1.00  0.00    -0.555 C  
ENDROOT
BRANCH   2   3
HETATM    3  C   UNL     1     -12.195  13.768  65.771  1.00  0.00    -0.495 C  
BRANCH   3   4
HETATM    4  C   UNL     1     -11.634  13.236  67.069  1.00  0.00    -0.359 C  
HETATM    5  O   UNL     1     -11.120  14.004  67.878  1.00  0.00    -0.244 OA 
HETATM    6  N   UNL     1     -11.821  11.870  67.232  1.00  0.00    -0.233 N  
HETATM    7  H   UNL     1     -12.306  11.374  66.485  1.00  0.00     0.000 HD 
BRANCH   6   8
HETATM    8  C   UNL     1     -11.397  11.107  68.342  1.00  0.00    -0.288 A  
HETATM    9  C   UNL     1     -10.148  10.497  68.408  1.00  0.00    -0.181 A  
HETATM   10  C   UNL     1      -9.737   9.828  69.562  1.00  0.00    -0.228 A  
HETATM   11  C   UNL     1     -10.567   9.741  70.684  1.00  0.00    -0.313 A  
HETATM   12  C   UNL     1     -11.859  10.283  70.602  1.00  0.00    -0.439 A  
HETATM   13  C   UNL     1     -12.261  10.965  69.430  1.00  0.00    -0.293 A  
BRANCH  11  14
HETATM   14  O   UNL     1     -10.157   9.189  71.871  1.00  0.00    -0.322 OA 
BRANCH  14  15
HETATM   15  C   UNL     1      -9.085   8.233  71.813  1.00  0.00    -0.193 C  
BRANCH  15  16
HETATM   16  C   UNL     1      -8.823   7.674  73.218  1.00  0.00    -0.199 C  
HETATM   17  H   UNL     1      -7.986   8.319  74.873  1.00  0.00     0.000 HD 
HETATM   18  O   UNL     1      -8.148   8.665  74.003  1.00  0.00    -0.385 OA 
BRANCH  16  19
HETATM   19  C   UNL     1     -10.119   7.259  73.945  1.00  0.00    -0.265 C  
BRANCH  19  20
HETATM   20  N   UNL     1     -10.985   6.429  73.102  1.00  0.00    -0.383 NA 
HETATM   21  H   UNL     1     -11.166   6.888  72.210  1.00  0.00     0.000 HD 
BRANCH  20  22
HETATM   22  C   UNL     1     -10.472   5.068  72.891  1.00  0.00    -0.208 C  
HETATM   23  C   UNL     1     -11.363   3.994  73.530  1.00  0.00    -0.280 C  
HETATM   24  C   UNL     1     -10.396   4.823  71.384  1.00  0.00    -0.192 C  
ENDBRANCH  20  22
ENDBRANCH  19  20
ENDBRANCH  16  19
ENDBRANCH  15  16
ENDBRANCH  14  15
ENDBRANCH  11  14
BRANCH  12  25
HETATM   25  C   UNL     1     -12.861  10.246  71.711  1.00  0.00    -0.460 C  
HETATM   26  C   UNL     1     -13.423   8.945  72.216  1.00  0.00    -0.503 C  
HETATM   27  O   UNL     1     -13.257  11.315  72.178  1.00  0.00    -0.481 OA 
ENDBRANCH  12  25
ENDBRANCH   6   8
ENDBRANCH   3   4
ENDBRANCH   2   3
TORSDOF 10
ENDMDL
MODEL       40
REMARK 921   NORMALIZED FREE ENERGY PREDICTED BY IDOCK:   -5.15 KCAL/MOL
REMARK 922        TOTAL FREE ENERGY PREDICTED BY IDOCK:   -9.20 KCAL/MOL
REMARK 923 INTER-LIGAND FREE ENERGY PREDICTED BY IDOCK:   -8.62 KCAL/MOL
REMARK 924 INTRA-LIGAND FREE ENERGY PREDICTED BY IDOCK:   -0.58 KCAL/MOL
REMARK 927      BINDING AFFINITY PREDICTED BY RF-SCORE:    0.00 PKD
ROOT
HETATM    1  C   UNL     1     -12.394  15.823  74.445  1.00  0.00    -0.796 C  
HETATM    2  C   UNL     1     -12.221  15.223  73.061  1.00  0.00    -0.527 C  
ENDROOT
BRANCH   2   3
HETATM    3  C   UNL     1     -13.425  14.376  72.671  1.00  0.00    -0.605 C  
BRANCH   3   4
HETATM    4  C   UNL     1     -13.052  13.384  71.593  1.00  0.00    -0.375 C  
HETATM    5  O   UNL     1     -13.283  12.189  71.750  1.00  0.00    -0.448 OA 
HETATM    6  N   UNL     1     -12.507  13.977  70.462  1.00  0.00    -0.350 N  
HETATM    7  H   UNL     1     -12.418  14.993  70.466  1.00  0.00     0.000 HD 
BRANCH   6   8
HETATM    8  C   UNL     1     -12.067  13.297  69.306  1.00  0.00    -0.242 A  
HETATM    9  C   UNL     1     -11.567  11.998  69.336  1.00  0.00    -0.393 A  
HETATM   10  C   UNL     1     -11.228  11.333  68.157  1.00  0.00    -0.351 A  
HETATM   11  C   UNL     1     -11.368  11.950  66.910  1.00  0.00    -0.330 A  
HETATM   12  C   UNL     1     -11.794  13.287  66.871  1.00  0.00    -0.446 A  
HETATM   13  C   UNL     1     -12.143  13.948  68.072  1.00  0.00    -0.318 A  
BRANCH  11  14
HETATM   14  O   UNL     1     -11.150  11.293  65.726  1.00  0.00    -0.206 OA 
BRANCH  14  15
HETATM   15  C   UNL     1      -9.783  11.038  65.362  1.00  0.00    -0.232 C  
BRANCH  15  16
HETATM   16  C   UNL     1      -9.707  10.700  63.866  1.00  0.00    -0.321 C  
HETATM   17  H   UNL     1      -9.993  11.656  62.175  1.00  0.00     0.000 HD 
HETATM   18  O   UNL     1     -10.041  11.865  63.101  1.00  0.00    -0.425 OA 
BRANCH  16  19
HETATM   19  C   UNL     1      -8.310  10.205  63.438  1.00  0.00    -0.168 C  
BRANCH  19  20
HETATM   20  N   UNL     1      -7.534   9.690  64.570  1.00  0.00    -0.121 NA 
HETATM   21  H   UNL     1      -7.902  10.048  65.451  1.00  0.00     0.000 HD 
BRANCH  20  22
HETATM   22  C   UNL     1      -7.441   8.224  64.604  1.00  0.00    -0.099 C  
HETATM   23  C   UNL     1      -8.409   7.593  65.614  1.00  0.00    -0.143 C  
HETATM   24  C   UNL     1      -7.768   7.700  63.204  1.00  0.00    -0.127 C  
ENDBRANCH  20  22
ENDBRANCH  19  20
ENDBRANCH  16  19
ENDBRANCH  15  16
ENDBRANCH  14  15
ENDBRANCH  11  14
BRANCH  12  25
HETATM   25  C   UNL     1     -11.970  14.080  65.617  1.00  0.00    -0.397 C  
HETATM   26  C   UNL     1     -10.830  14.857  65.015  1.00  0.00    -0.439 C  
HETATM   27  O   UNL     1     -13.088  14.123  65.103  1.00  0.00    -0.757 OA 
ENDBRANCH  12  25
ENDBRANCH   6   8
ENDBRANCH   3   4
ENDBRANCH   2   3
TORSDOF 10
ENDMDL
MODEL       41
REMARK 921   NORMALIZED FREE ENERGY PREDICTED BY IDOCK:   -5.14 KCAL/MOL
REMARK 922        TOTAL FREE ENERGY PREDICTED BY IDOCK:   -9.18 KCAL/MOL
REMARK 923 INTER-LIGAND FREE ENERGY PREDICTED BY IDOCK:   -8.34 KCAL/MOL
REMARK 924 INTRA-LIGAND FREE ENERGY PREDICTED BY IDOCK:   -0.85 KCAL/MOL
REMARK 927      BINDING AFFINITY PREDICTED BY RF-SCORE:    0.00 PKD
ROOT
HETATM    1  C   UNL     1      -9.990   3.586  73.713  1.00  0.00    -0.168 C  
HETATM    2  C   UNL     1     -10.174   4.737  72.740  1.00  0.00    -0.232 C  
ENDROOT
BRANCH   2   3
HETATM    3  C   UNL     1     -11.527   5.410  72.929  1.00  0.00    -0.340 C  
BRANCH   3   4
HETATM    4  C   UNL     1     -11.726   6.504  71.906  1.00  0.00    -0.324 C  
HETATM    5  O   UNL     1     -11.826   6.223  70.715  1.00  0.00    -0.307 OA 
HETATM    6  N   UNL     1     -11.830   7.770  72.465  1.00  0.00    -0.509 N  
HETATM    7  H   UNL     1     -11.769   7.837  73.482  1.00  0.00     0.000 HD 
BRANCH   6   8
HETATM    8  C   UNL     1     -12.014   8.974  71.751  1.00  0.00    -0.368 A  
HETATM    9  C   UNL     1     -12.893   9.972  72.163  1.00  0.00    -0.414 A  
HETATM   10  C   UNL     1     -12.975  11.184  71.475  1.00  0.00    -0.542 A  
HETATM   11  C   UNL     1     -12.188  11.431  70.346  1.00  0.00    -0.362 A  
HETATM   12  C   UNL     1     -11.357  10.403  69.873  1.00  0.00    -0.370 A  
HETATM   13  C   UNL     1     -11.276   9.183  70.584  1.00  0.00    -0.322 A  
BRANCH  11  14
HETATM   14  O   UNL     1     -12.161  12.646  69.710  1.00  0.00    -0.294 OA 
BRANCH  14  15
HETATM   15  C   UNL     1     -12.242  13.819  70.537  1.00  0.00    -0.369 C  
BRANCH  15  16
HETATM   16  C   UNL     1     -12.136  15.073  69.658  1.00  0.00    -0.300 C  
HETATM   17  H   UNL     1     -11.340  16.861  69.820  1.00  0.00     0.000 HD 
HETATM   18  O   UNL     1     -11.406  16.085  70.364  1.00  0.00    -0.346 OA 
BRANCH  16  19
HETATM   19  C   UNL     1     -11.433  14.798  68.313  1.00  0.00    -0.317 C  
BRANCH  19  20
HETATM   20  N   UNL     1     -12.360  14.291  67.297  1.00  0.00    -0.592 NA 
HETATM   21  H   UNL     1     -12.782  15.061  66.778  1.00  0.00     0.000 HD 
BRANCH  20  22
HETATM   22  C   UNL     1     -11.754  13.317  66.378  1.00  0.00    -0.373 C  
HETATM   23  C   UNL     1     -12.580  13.115  65.100  1.00  0.00    -0.525 C  
HETATM   24  C   UNL     1     -10.364  13.830  66.000  1.00  0.00    -0.311 C  
ENDBRANCH  20  22
ENDBRANCH  19  20
ENDBRANCH  16  19
ENDBRANCH  15  16
ENDBRANCH  14  15
ENDBRANCH  11  14
BRANCH  12  25
HETATM   25  C   UNL     1     -10.477  10.516  68.670  1.00  0.00    -0.191 C  
HETATM   26  C   UNL     1      -9.049  10.976  68.785  1.00  0.00    -0.161 C  
HETATM   27  O   UNL     1     -10.961  10.267  67.565  1.00  0.00    -0.297 OA 
ENDBRANCH  12  25
ENDBRANCH   6   8
ENDBRANCH   3   4
ENDBRANCH   2   3
TORSDOF 10
ENDMDL
MODEL       42
REMARK 921   NORMALIZED FREE ENERGY PREDICTED BY IDOCK:   -5.14 KCAL/MOL
REMARK 922        TOTAL FREE ENERGY PREDICTED BY IDOCK:   -9.17 KCAL/MOL
REMARK 923 INTER-LIGAND FREE ENERGY PREDICTED BY IDOCK:   -7.49 KCAL/MOL
REMARK 924 INTRA-LIGAND FREE ENERGY PREDICTED BY IDOCK:   -1.68 KCAL/MOL
REMARK 927      BINDING AFFINITY PREDICTED BY RF-SCORE:    0.00 PKD
ROOT
HETATM    1  C   UNL     1     -10.549   5.337  70.557  1.00  0.00    -0.272 C  
HETATM    2  C   UNL     1     -11.234   6.399  69.715  1.00  0.00    -0.484 C  
ENDROOT
BRANCH   2   3
HETATM    3  C   UNL     1     -10.319   6.900  68.605  1.00  0.00    -0.200 C  
BRANCH   3   4
HETATM    4  C   UNL     1     -10.363   8.408  68.517  1.00  0.00    -0.200 C  
HETATM    5  O   UNL     1     -10.613   9.076  69.517  1.00  0.00    -0.223 OA 
HETATM    6  N   UNL     1     -10.048   8.897  67.257  1.00  0.00    -0.217 N  
HETATM    7  H   UNL     1      -9.820   8.212  66.536  1.00  0.00     0.000 HD 
BRANCH   6   8
HETATM    8  C   UNL     1     -10.014  10.258  66.886  1.00  0.00    -0.208 A  
HETATM    9  C   UNL     1      -8.947  11.099  67.186  1.00  0.00    -0.145 A  
HETATM   10  C   UNL     1      -8.917  12.414  66.720  1.00  0.00    -0.205 A  
HETATM   11  C   UNL     1      -9.961  12.934  65.947  1.00  0.00    -0.268 A  
HETATM   12  C   UNL     1     -11.080  12.122  65.705  1.00  0.00    -0.360 A  
HETATM   13  C   UNL     1     -11.094  10.788  66.175  1.00  0.00     0.066 A  
BRANCH  11  14
HETATM   14  O   UNL     1      -9.916  14.182  65.381  1.00  0.00    -0.336 OA 
BRANCH  14  15
HETATM   15  C   UNL     1      -9.198  15.201  66.098  1.00  0.00    -0.283 C  
BRANCH  15  16
HETATM   16  C   UNL     1     -10.045  16.480  66.152  1.00  0.00    -0.348 C  
HETATM   17  H   UNL     1     -11.330  17.387  64.977  1.00  0.00     0.000 HD 
HETATM   18  O   UNL     1     -10.806  16.595  64.943  1.00  0.00    -0.697 OA 
BRANCH  16  19
HETATM   19  C   UNL     1     -11.013  16.503  67.354  1.00  0.00    -0.121 C  
BRANCH  19  20
HETATM   20  N   UNL     1     -11.698  15.219  67.536  1.00  0.00    -0.275 NA 
HETATM   21  H   UNL     1     -11.187  14.469  67.072  1.00  0.00     0.000 HD 
BRANCH  20  22
HETATM   22  C   UNL     1     -11.952  14.881  68.944  1.00  0.00    -0.260 C  
HETATM   23  C   UNL     1     -11.669  13.405  69.258  1.00  0.00    -0.383 C  
HETATM   24  C   UNL     1     -11.048  15.759  69.809  1.00  0.00    -0.322 C  
ENDBRANCH  20  22
ENDBRANCH  19  20
ENDBRANCH  16  19
ENDBRANCH  15  16
ENDBRANCH  14  15
ENDBRANCH  11  14
BRANCH  12  25
HETATM   25  C   UNL     1     -12.275  12.547  64.915  1.00  0.00    -0.470 C  
HETATM   26  C   UNL     1     -12.528  12.017  63.529  1.00  0.00    -0.654 C  
HETATM   27  O   UNL     1     -13.034  13.384  65.406  1.00  0.00    -0.625 OA 
ENDBRANCH  12  25
ENDBRANCH   6   8
ENDBRANCH   3   4
ENDBRANCH   2   3
TORSDOF 10
ENDMDL
MODEL       43
REMARK 921   NORMALIZED FREE ENERGY PREDICTED BY IDOCK:   -5.10 KCAL/MOL
REMARK 922        TOTAL FREE ENERGY PREDICTED BY IDOCK:   -9.11 KCAL/MOL
REMARK 923 INTER-LIGAND FREE ENERGY PREDICTED BY IDOCK:   -8.24 KCAL/MOL
REMARK 924 INTRA-LIGAND FREE ENERGY PREDICTED BY IDOCK:   -0.88 KCAL/MOL
REMARK 927      BINDING AFFINITY PREDICTED BY RF-SCORE:    0.00 PKD
ROOT
HETATM    1  C   UNL     1     -10.290  20.201  68.254  1.00  0.00    -0.426 C  
HETATM    2  C   UNL     1     -10.056  19.958  66.773  1.00  0.00    -0.586 C  
ENDROOT
BRANCH   2   3
HETATM    3  C   UNL     1      -8.591  19.657  66.487  1.00  0.00    -0.387 C  
BRANCH   3   4
HETATM    4  C   UNL     1      -8.396  18.188  66.189  1.00  0.00    -0.122 C  
HETATM    5  O   UNL     1      -7.331  17.790  65.724  1.00  0.00    -0.505 OA 
HETATM    6  N   UNL     1      -9.485  17.404  66.543  1.00  0.00    -0.265 N  
HETATM    7  H   UNL     1     -10.285  17.880  66.961  1.00  0.00     0.000 HD 
BRANCH   6   8
HETATM    8  C   UNL     1      -9.583  16.006  66.376  1.00  0.00    -0.283 A  
HETATM    9  C   UNL     1      -8.850  15.099  67.135  1.00  0.00    -0.236 A  
HETATM   10  C   UNL     1      -9.046  13.724  66.997  1.00  0.00    -0.253 A  
HETATM   11  C   UNL     1      -9.976  13.212  66.086  1.00  0.00    -0.291 A  
HETATM   12  C   UNL     1     -10.664  14.113  65.258  1.00  0.00    -0.374 A  
HETATM   13  C   UNL     1     -10.463  15.504  65.413  1.00  0.00    -0.429 A  
BRANCH  11  14
HETATM   14  O   UNL     1     -10.275  11.876  66.000  1.00  0.00    -0.217 OA 
BRANCH  14  15
HETATM   15  C   UNL     1      -9.503  10.979  66.817  1.00  0.00    -0.182 C  
BRANCH  15  16
HETATM   16  C   UNL     1     -10.404   9.843  67.320  1.00  0.00    -0.245 C  
HETATM   17  H   UNL     1     -10.209   7.920  67.665  1.00  0.00     0.000 HD 
HETATM   18  O   UNL     1      -9.652   8.623  67.353  1.00  0.00    -0.148 OA 
BRANCH  16  19
HETATM   19  C   UNL     1     -10.975  10.115  68.727  1.00  0.00    -0.223 C  
BRANCH  19  20
HETATM   20  N   UNL     1     -10.816  11.517  69.127  1.00  0.00    -0.295 NA 
HETATM   21  H   UNL     1     -10.349  12.050  68.394  1.00  0.00     0.000 HD 
BRANCH  20  22
HETATM   22  C   UNL     1     -12.076  12.165  69.517  1.00  0.00    -0.201 C  
HETATM   23  C   UNL     1     -12.526  11.779  70.933  1.00  0.00    -0.416 C  
HETATM   24  C   UNL     1     -11.866  13.678  69.454  1.00  0.00    -0.392 C  
ENDBRANCH  20  22
ENDBRANCH  19  20
ENDBRANCH  16  19
ENDBRANCH  15  16
ENDBRANCH  14  15
ENDBRANCH  11  14
BRANCH  12  25
HETATM   25  C   UNL     1     -11.669  13.711  64.227  1.00  0.00    -0.403 C  
HETATM   26  C   UNL     1     -11.534  12.422  63.462  1.00  0.00    -0.561 C  
HETATM   27  O   UNL     1     -12.596  14.483  63.981  1.00  0.00    -0.797 OA 
ENDBRANCH  12  25
ENDBRANCH   6   8
ENDBRANCH   3   4
ENDBRANCH   2   3
TORSDOF 10
ENDMDL
MODEL       44
REMARK 921   NORMALIZED FREE ENERGY PREDICTED BY IDOCK:   -5.09 KCAL/MOL
REMARK 922        TOTAL FREE ENERGY PREDICTED BY IDOCK:   -9.10 KCAL/MOL
REMARK 923 INTER-LIGAND FREE ENERGY PREDICTED BY IDOCK:   -7.55 KCAL/MOL
REMARK 924 INTRA-LIGAND FREE ENERGY PREDICTED BY IDOCK:   -1.55 KCAL/MOL
REMARK 927      BINDING AFFINITY PREDICTED BY RF-SCORE:    0.00 PKD
ROOT
HETATM    1  C   UNL     1     -11.849  12.719  63.562  1.00  0.00    -0.618 C  
HETATM    2  C   UNL     1     -12.526  12.758  64.920  1.00  0.00    -0.563 C  
ENDROOT
BRANCH   2   3
HETATM    3  C   UNL     1     -12.010  13.917  65.762  1.00  0.00    -0.419 C  
BRANCH   3   4
HETATM    4  C   UNL     1     -11.626  13.443  67.145  1.00  0.00    -0.358 C  
HETATM    5  O   UNL     1     -11.297  14.255  68.005  1.00  0.00    -0.268 OA 
HETATM    6  N   UNL     1     -11.744  12.070  67.309  1.00  0.00    -0.308 N  
HETATM    7  H   UNL     1     -12.073  11.531  66.508  1.00  0.00     0.000 HD 
BRANCH   6   8
HETATM    8  C   UNL     1     -11.450  11.353  68.489  1.00  0.00    -0.297 A  
HETATM    9  C   UNL     1     -12.392  11.114  69.485  1.00  0.00    -0.262 A  
HETATM   10  C   UNL     1     -12.081  10.323  70.592  1.00  0.00    -0.433 A  
HETATM   11  C   UNL     1     -10.812   9.754  70.744  1.00  0.00    -0.333 A  
HETATM   12  C   UNL     1      -9.829  10.053  69.787  1.00  0.00    -0.270 A  
HETATM   13  C   UNL     1     -10.159  10.848  68.665  1.00  0.00    -0.200 A  
BRANCH  11  14
HETATM   14  O   UNL     1     -10.503   8.884  71.758  1.00  0.00    -0.314 OA 
BRANCH  14  15
HETATM   15  C   UNL     1     -11.516   7.939  72.140  1.00  0.00    -0.324 C  
BRANCH  15  16
HETATM   16  C   UNL     1     -10.921   6.524  72.141  1.00  0.00    -0.249 C  
HETATM   17  H   UNL     1     -11.515   4.731  72.676  1.00  0.00     0.000 HD 
HETATM   18  O   UNL     1     -11.883   5.606  72.676  1.00  0.00    -0.283 OA 
BRANCH  16  19
HETATM   19  C   UNL     1     -10.510   6.051  70.731  1.00  0.00    -0.239 C  
BRANCH  19  20
HETATM   20  N   UNL     1     -11.414   6.557  69.693  1.00  0.00    -0.582 NA 
HETATM   21  H   UNL     1     -11.456   7.575  69.718  1.00  0.00     0.000 HD 
BRANCH  20  22
HETATM   22  C   UNL     1     -11.083   6.084  68.341  1.00  0.00    -0.177 C  
HETATM   23  C   UNL     1     -10.999   7.226  67.319  1.00  0.00    -0.284 C  
HETATM   24  C   UNL     1      -9.730   5.374  68.410  1.00  0.00    -0.179 C  
ENDBRANCH  20  22
ENDBRANCH  19  20
ENDBRANCH  16  19
ENDBRANCH  15  16
ENDBRANCH  14  15
ENDBRANCH  11  14
BRANCH  12  25
HETATM   25  C   UNL     1      -8.428   9.535  69.829  1.00  0.00    -0.177 C  
HETATM   26  C   UNL     1      -7.926   8.548  68.809  1.00  0.00    -0.119 C  
HETATM   27  O   UNL     1      -7.696   9.899  70.750  1.00  0.00    -0.293 OA 
ENDBRANCH  12  25
ENDBRANCH   6   8
ENDBRANCH   3   4
ENDBRANCH   2   3
TORSDOF 10
ENDMDL
MODEL       45
REMARK 921   NORMALIZED FREE ENERGY PREDICTED BY IDOCK:   -5.09 KCAL/MOL
REMARK 922        TOTAL FREE ENERGY PREDICTED BY IDOCK:   -9.09 KCAL/MOL
REMARK 923 INTER-LIGAND FREE ENERGY PREDICTED BY IDOCK:   -8.14 KCAL/MOL
REMARK 924 INTRA-LIGAND FREE ENERGY PREDICTED BY IDOCK:   -0.95 KCAL/MOL
REMARK 927      BINDING AFFINITY PREDICTED BY RF-SCORE:    0.00 PKD
ROOT
HETATM    1  C   UNL     1      -9.014   4.782  70.795  1.00  0.00    -0.163 C  
HETATM    2  C   UNL     1     -10.194   5.607  70.311  1.00  0.00    -0.311 C  
ENDROOT
BRANCH   2   3
HETATM    3  C   UNL     1      -9.902   6.251  68.962  1.00  0.00    -0.165 C  
BRANCH   3   4
HETATM    4  C   UNL     1      -9.826   7.754  69.093  1.00  0.00    -0.173 C  
HETATM    5  O   UNL     1      -8.827   8.280  69.575  1.00  0.00    -0.146 OA 
HETATM    6  N   UNL     1     -10.935   8.410  68.576  1.00  0.00    -0.429 N  
HETATM    7  H   UNL     1     -11.669   7.832  68.168  1.00  0.00     0.000 HD 
BRANCH   6   8
HETATM    8  C   UNL     1     -11.136   9.807  68.567  1.00  0.00    -0.087 A  
HETATM    9  C   UNL     1     -11.357  10.548  69.724  1.00  0.00    -0.367 A  
HETATM   10  C   UNL     1     -11.460  11.939  69.677  1.00  0.00    -0.337 A  
HETATM   11  C   UNL     1     -11.356  12.633  68.467  1.00  0.00    -0.296 A  
HETATM   12  C   UNL     1     -11.214  11.892  67.283  1.00  0.00    -0.376 A  
HETATM   13  C   UNL     1     -11.101  10.484  67.345  1.00  0.00    -0.322 A  
BRANCH  11  14
HETATM   14  O   UNL     1     -11.342  14.003  68.394  1.00  0.00    -0.260 OA 
BRANCH  14  15
HETATM   15  C   UNL     1     -10.358  14.690  69.184  1.00  0.00    -0.216 C  
BRANCH  15  16
HETATM   16  C   UNL     1     -11.041  15.790  70.009  1.00  0.00    -0.344 C  
HETATM   17  H   UNL     1     -12.685  16.854  69.874  1.00  0.00     0.000 HD 
HETATM   18  O   UNL     1     -12.262  16.174  69.364  1.00  0.00    -0.150 OA 
BRANCH  16  19
HETATM   19  C   UNL     1     -11.360  15.341  71.451  1.00  0.00    -0.363 C  
BRANCH  19  20
HETATM   20  N   UNL     1     -12.228  16.295  72.148  1.00  0.00    -0.574 NA 
HETATM   21  H   UNL     1     -12.730  16.879  71.480  1.00  0.00     0.000 HD 
BRANCH  20  22
HETATM   22  C   UNL     1     -13.161  15.663  73.091  1.00  0.00    -0.558 C  
HETATM   23  C   UNL     1     -13.522  14.226  72.692  1.00  0.00    -0.623 C  
HETATM   24  C   UNL     1     -12.499  15.649  74.469  1.00  0.00    -0.749 C  
ENDBRANCH  20  22
ENDBRANCH  19  20
ENDBRANCH  16  19
ENDBRANCH  15  16
ENDBRANCH  14  15
ENDBRANCH  11  14
BRANCH  12  25
HETATM   25  C   UNL     1     -11.110  12.495  65.919  1.00  0.00    -0.299 C  
HETATM   26  C   UNL     1     -12.310  12.601  65.017  1.00  0.00    -0.561 C  
HETATM   27  O   UNL     1     -10.004  12.865  65.525  1.00  0.00    -0.271 OA 
ENDBRANCH  12  25
ENDBRANCH   6   8
ENDBRANCH   3   4
ENDBRANCH   2   3
TORSDOF 10
ENDMDL
MODEL       46
REMARK 921   NORMALIZED FREE ENERGY PREDICTED BY IDOCK:   -5.08 KCAL/MOL
REMARK 922        TOTAL FREE ENERGY PREDICTED BY IDOCK:   -9.09 KCAL/MOL
REMARK 923 INTER-LIGAND FREE ENERGY PREDICTED BY IDOCK:   -7.65 KCAL/MOL
REMARK 924 INTRA-LIGAND FREE ENERGY PREDICTED BY IDOCK:   -1.44 KCAL/MOL
REMARK 927      BINDING AFFINITY PREDICTED BY RF-SCORE:    0.00 PKD
ROOT
HETATM    1  C   UNL     1     -10.088  17.998  66.359  1.00  0.00    -0.384 C  
HETATM    2  C   UNL     1      -9.706  16.552  66.096  1.00  0.00    -0.344 C  
ENDROOT
BRANCH   2   3
HETATM    3  C   UNL     1     -10.750  15.853  65.235  1.00  0.00    -0.442 C  
BRANCH   3   4
HETATM    4  C   UNL     1     -11.343  14.673  65.970  1.00  0.00    -0.344 C  
HETATM    5  O   UNL     1     -12.407  14.187  65.597  1.00  0.00    -0.429 OA 
HETATM    6  N   UNL     1     -10.548  14.215  67.012  1.00  0.00    -0.275 N  
HETATM    7  H   UNL     1      -9.666  14.701  67.173  1.00  0.00     0.000 HD 
BRANCH   6   8
HETATM    8  C   UNL     1     -10.853  13.135  67.868  1.00  0.00    -0.242 A  
HETATM    9  C   UNL     1     -11.667  13.264  68.989  1.00  0.00    -0.368 A  
HETATM   10  C   UNL     1     -12.015  12.151  69.755  1.00  0.00    -0.372 A  
HETATM   11  C   UNL     1     -11.551  10.872  69.430  1.00  0.00    -0.316 A  
HETATM   12  C   UNL     1     -10.665  10.740  68.349  1.00  0.00    -0.255 A  
HETATM   13  C   UNL     1     -10.327  11.874  67.575  1.00  0.00    -0.219 A  
BRANCH  11  14
HETATM   14  O   UNL     1     -11.958   9.742  70.091  1.00  0.00    -0.160 OA 
BRANCH  14  15
HETATM   15  C   UNL     1     -11.550   9.603  71.462  1.00  0.00    -0.381 C  
BRANCH  15  16
HETATM   16  C   UNL     1     -12.549   8.705  72.205  1.00  0.00    -0.391 C  
HETATM   17  H   UNL     1     -14.498   8.471  72.239  1.00  0.00     0.000 HD 
HETATM   18  O   UNL     1     -13.880   9.027  71.780  1.00  0.00    -0.397 OA 
BRANCH  16  19
HETATM   19  C   UNL     1     -12.296   7.203  71.958  1.00  0.00    -0.263 C  
BRANCH  19  20
HETATM   20  N   UNL     1     -12.182   6.889  70.530  1.00  0.00    -0.601 NA 
HETATM   21  H   UNL     1     -12.035   7.738  69.985  1.00  0.00     0.000 HD 
BRANCH  20  22
HETATM   22  C   UNL     1     -11.146   5.892  70.227  1.00  0.00    -0.298 C  
HETATM   23  C   UNL     1     -10.762   5.869  68.741  1.00  0.00    -0.354 C  
HETATM   24  C   UNL     1      -9.908   6.232  71.058  1.00  0.00    -0.206 C  
ENDBRANCH  20  22
ENDBRANCH  19  20
ENDBRANCH  16  19
ENDBRANCH  15  16
ENDBRANCH  14  15
ENDBRANCH  11  14
BRANCH  12  25
HETATM   25  C   UNL     1     -10.073   9.444  67.898  1.00  0.00    -0.194 C  
HETATM   26  C   UNL     1      -8.764   8.946  68.451  1.00  0.00    -0.134 C  
HETATM   27  O   UNL     1     -10.659   8.805  67.023  1.00  0.00    -0.282 OA 
ENDBRANCH  12  25
ENDBRANCH   6   8
ENDBRANCH   3   4
ENDBRANCH   2   3
TORSDOF 10
ENDMDL
MODEL       47
REMARK 921   NORMALIZED FREE ENERGY PREDICTED BY IDOCK:   -5.08 KCAL/MOL
REMARK 922        TOTAL FREE ENERGY PREDICTED BY IDOCK:   -9.09 KCAL/MOL
REMARK 923 INTER-LIGAND FREE ENERGY PREDICTED BY IDOCK:   -7.45 KCAL/MOL
REMARK 924 INTRA-LIGAND FREE ENERGY PREDICTED BY IDOCK:   -1.63 KCAL/MOL
REMARK 927      BINDING AFFINITY PREDICTED BY RF-SCORE:    0.00 PKD
ROOT
HETATM    1  C   UNL     1     -12.124  12.829  63.458  1.00  0.00    -0.642 C  
HETATM    2  C   UNL     1     -12.712  12.504  64.820  1.00  0.00    -0.415 C  
ENDROOT
BRANCH   2   3
HETATM    3  C   UNL     1     -12.173  13.442  65.893  1.00  0.00    -0.502 C  
BRANCH   3   4
HETATM    4  C   UNL     1     -11.663  12.657  67.079  1.00  0.00    -0.369 C  
HETATM    5  O   UNL     1     -11.927  13.026  68.221  1.00  0.00    -0.332 OA 
HETATM    6  N   UNL     1     -10.957  11.516  66.724  1.00  0.00    -0.283 N  
HETATM    7  H   UNL     1     -10.857  11.321  65.728  1.00  0.00     0.000 HD 
BRANCH   6   8
HETATM    8  C   UNL     1     -10.365  10.601  67.621  1.00  0.00    -0.209 A  
HETATM    9  C   UNL     1      -9.404  10.972  68.557  1.00  0.00    -0.188 A  
HETATM   10  C   UNL     1      -8.913  10.052  69.484  1.00  0.00    -0.220 A  
HETATM   11  C   UNL     1      -9.359   8.726  69.497  1.00  0.00    -0.157 A  
HETATM   12  C   UNL     1     -10.268   8.319  68.508  1.00  0.00    -0.234 A  
HETATM   13  C   UNL     1     -10.765   9.263  67.580  1.00  0.00    -0.272 A  
BRANCH  11  14
HETATM   14  O   UNL     1      -8.983   7.824  70.459  1.00  0.00    -0.147 OA 
BRANCH  14  15
HETATM   15  C   UNL     1      -8.987   8.281  71.822  1.00  0.00    -0.181 C  
BRANCH  15  16
HETATM   16  C   UNL     1      -9.678   7.236  72.709  1.00  0.00    -0.162 C  
HETATM   17  H   UNL     1      -9.443   6.535  74.528  1.00  0.00     0.000 HD 
HETATM   18  O   UNL     1      -9.015   7.181  73.979  1.00  0.00    -0.175 OA 
BRANCH  16  19
HETATM   19  C   UNL     1     -11.172   7.548  72.941  1.00  0.00    -0.346 C  
BRANCH  19  20
HETATM   20  N   UNL     1     -11.835   8.017  71.720  1.00  0.00    -0.281 NA 
HETATM   21  H   UNL     1     -12.334   7.253  71.265  1.00  0.00     0.000 HD 
BRANCH  20  22
HETATM   22  C   UNL     1     -12.728   9.163  71.938  1.00  0.00    -0.389 C  
HETATM   23  C   UNL     1     -12.407  10.347  71.016  1.00  0.00    -0.490 C  
HETATM   24  C   UNL     1     -14.161   8.699  71.676  1.00  0.00    -0.463 C  
ENDBRANCH  20  22
ENDBRANCH  19  20
ENDBRANCH  16  19
ENDBRANCH  15  16
ENDBRANCH  14  15
ENDBRANCH  11  14
BRANCH  12  25
HETATM   25  C   UNL     1     -10.815   6.934  68.386  1.00  0.00    -0.180 C  
HETATM   26  C   UNL     1     -10.759   6.181  67.083  1.00  0.00    -0.422 C  
HETATM   27  O   UNL     1     -11.361   6.430  69.368  1.00  0.00    -0.394 OA 
ENDBRANCH  12  25
ENDBRANCH   6   8
ENDBRANCH   3   4
ENDBRANCH   2   3
TORSDOF 10
ENDMDL
MODEL       48
REMARK 921   NORMALIZED FREE ENERGY PREDICTED BY IDOCK:   -5.05 KCAL/MOL
REMARK 922        TOTAL FREE ENERGY PREDICTED BY IDOCK:   -9.03 KCAL/MOL
REMARK 923 INTER-LIGAND FREE ENERGY PREDICTED BY IDOCK:   -7.49 KCAL/MOL
REMARK 924 INTRA-LIGAND FREE ENERGY PREDICTED BY IDOCK:   -1.55 KCAL/MOL
REMARK 927      BINDING AFFINITY PREDICTED BY RF-SCORE:    0.00 PKD
ROOT
HETATM    1  C   UNL     1     -10.659  19.960  65.765  1.00  0.00    -0.490 C  
HETATM    2  C   UNL     1     -10.481  19.226  67.083  1.00  0.00    -0.560 C  
ENDROOT
BRANCH   2   3
HETATM    3  C   UNL     1      -9.064  18.688  67.229  1.00  0.00    -0.286 C  
BRANCH   3   4
HETATM    4  C   UNL     1      -8.974  17.275  66.699  1.00  0.00    -0.256 C  
HETATM    5  O   UNL     1      -8.189  17.006  65.793  1.00  0.00    -0.486 OA 
HETATM    6  N   UNL     1      -9.796  16.380  67.370  1.00  0.00    -0.240 N  
HETATM    7  H   UNL     1     -10.362  16.751  68.134  1.00  0.00     0.000 HD 
BRANCH   6   8
HETATM    8  C   UNL     1      -9.918  15.003  67.088  1.00  0.00    -0.237 A  
HETATM    9  C   UNL     1      -9.167  14.027  67.735  1.00  0.00    -0.195 A  
HETATM   10  C   UNL     1      -9.386  12.671  67.488  1.00  0.00    -0.188 A  
HETATM   11  C   UNL     1     -10.358  12.248  66.576  1.00  0.00    -0.227 A  
HETATM   12  C   UNL     1     -11.068  13.223  65.857  1.00  0.00    -0.301 A  
HETATM   13  C   UNL     1     -10.843  14.594  66.123  1.00  0.00    -0.321 A  
BRANCH  11  14
HETATM   14  O   UNL     1     -10.678  10.927  66.389  1.00  0.00    -0.249 OA 
BRANCH  14  15
HETATM   15  C   UNL     1     -11.012  10.162  67.559  1.00  0.00    -0.255 C  
BRANCH  15  16
HETATM   16  C   UNL     1     -10.226   8.844  67.549  1.00  0.00    -0.248 C  
HETATM   17  H   UNL     1     -10.537   7.007  66.929  1.00  0.00     0.000 HD 
HETATM   18  O   UNL     1     -11.024   7.823  66.935  1.00  0.00    -0.217 OA 
BRANCH  16  19
HETATM   19  C   UNL     1      -8.888   8.954  66.790  1.00  0.00    -0.124 C  
BRANCH  19  20
HETATM   20  N   UNL     1      -8.981   8.428  65.424  1.00  0.00    -0.377 NA 
HETATM   21  H   UNL     1      -9.955   8.371  65.127  1.00  0.00     0.000 HD 
BRANCH  20  22
HETATM   22  C   UNL     1      -8.182   9.180  64.447  1.00  0.00    -0.158 C  
HETATM   23  C   UNL     1      -9.048   9.887  63.395  1.00  0.00    -0.291 C  
HETATM   24  C   UNL     1      -7.368  10.225  65.209  1.00  0.00    -0.139 C  
ENDBRANCH  20  22
ENDBRANCH  19  20
ENDBRANCH  16  19
ENDBRANCH  15  16
ENDBRANCH  14  15
ENDBRANCH  11  14
BRANCH  12  25
HETATM   25  C   UNL     1     -12.119  12.921  64.839  1.00  0.00    -0.432 C  
HETATM   26  C   UNL     1     -11.759  12.405  63.471  1.00  0.00    -0.592 C  
HETATM   27  O   UNL     1     -13.295  13.146  65.125  1.00  0.00    -0.618 OA 
ENDBRANCH  12  25
ENDBRANCH   6   8
ENDBRANCH   3   4
ENDBRANCH   2   3
TORSDOF 10
ENDMDL
MODEL       49
REMARK 921   NORMALIZED FREE ENERGY PREDICTED BY IDOCK:   -5.05 KCAL/MOL
REMARK 922        TOTAL FREE ENERGY PREDICTED BY IDOCK:   -9.03 KCAL/MOL
REMARK 923 INTER-LIGAND FREE ENERGY PREDICTED BY IDOCK:   -8.26 KCAL/MOL
REMARK 924 INTRA-LIGAND FREE ENERGY PREDICTED BY IDOCK:   -0.77 KCAL/MOL
REMARK 927      BINDING AFFINITY PREDICTED BY RF-SCORE:    0.00 PKD
ROOT
HETATM    1  C   UNL     1     -10.863   6.388  72.931  1.00  0.00    -0.286 C  
HETATM    2  C   UNL     1     -11.812   6.678  71.782  1.00  0.00    -0.380 C  
ENDROOT
BRANCH   2   3
HETATM    3  C   UNL     1     -12.609   7.952  72.032  1.00  0.00    -0.327 C  
BRANCH   3   4
HETATM    4  C   UNL     1     -11.905   9.147  71.432  1.00  0.00    -0.345 C  
HETATM    5  O   UNL     1     -10.693   9.285  71.576  1.00  0.00    -0.334 OA 
HETATM    6  N   UNL     1     -12.747   9.974  70.701  1.00  0.00    -0.511 N  
HETATM    7  H   UNL     1     -13.728   9.701  70.638  1.00  0.00     0.000 HD 
BRANCH   6   8
HETATM    8  C   UNL     1     -12.365  11.160  70.037  1.00  0.00    -0.279 A  
HETATM    9  C   UNL     1     -11.976  11.188  68.702  1.00  0.00    -0.289 A  
HETATM   10  C   UNL     1     -11.694  12.397  68.062  1.00  0.00    -0.414 A  
HETATM   11  C   UNL     1     -11.782  13.615  68.743  1.00  0.00    -0.348 A  
HETATM   12  C   UNL     1     -12.094  13.594  70.111  1.00  0.00    -0.431 A  
HETATM   13  C   UNL     1     -12.387  12.364  70.746  1.00  0.00    -0.377 A  
BRANCH  11  14
HETATM   14  O   UNL     1     -11.619  14.827  68.122  1.00  0.00    -0.307 OA 
BRANCH  14  15
HETATM   15  C   UNL     1     -11.530  14.821  66.687  1.00  0.00    -0.335 C  
BRANCH  15  16
HETATM   16  C   UNL     1     -10.252  15.550  66.251  1.00  0.00    -0.294 C  
HETATM   17  H   UNL     1      -9.798  17.018  65.029  1.00  0.00     0.000 HD 
HETATM   18  O   UNL     1     -10.589  16.566  65.299  1.00  0.00    -0.575 OA 
BRANCH  16  19
HETATM   19  C   UNL     1      -9.507  16.204  67.434  1.00  0.00    -0.226 C  
BRANCH  19  20
HETATM   20  N   UNL     1      -8.092  15.822  67.476  1.00  0.00    -0.149 NA 
HETATM   21  H   UNL     1      -7.864  15.201  66.700  1.00  0.00     0.000 HD 
BRANCH  20  22
HETATM   22  C   UNL     1      -7.173  16.968  67.513  1.00  0.00    -0.152 C  
HETATM   23  C   UNL     1      -7.179  17.772  66.205  1.00  0.00    -0.331 C  
HETATM   24  C   UNL     1      -7.603  17.879  68.663  1.00  0.00    -0.285 C  
ENDBRANCH  20  22
ENDBRANCH  19  20
ENDBRANCH  16  19
ENDBRANCH  15  16
ENDBRANCH  14  15
ENDBRANCH  11  14
BRANCH  12  25
HETATM   25  C   UNL     1     -12.203  14.812  70.970  1.00  0.00    -0.329 C  
HETATM   26  C   UNL     1     -13.533  15.458  71.249  1.00  0.00    -0.598 C  
HETATM   27  O   UNL     1     -11.167  15.311  71.414  1.00  0.00    -0.356 OA 
ENDBRANCH  12  25
ENDBRANCH   6   8
ENDBRANCH   3   4
ENDBRANCH   2   3
TORSDOF 10
ENDMDL
MODEL       50
REMARK 921   NORMALIZED FREE ENERGY PREDICTED BY IDOCK:   -5.04 KCAL/MOL
REMARK 922        TOTAL FREE ENERGY PREDICTED BY IDOCK:   -9.01 KCAL/MOL
REMARK 923 INTER-LIGAND FREE ENERGY PREDICTED BY IDOCK:   -7.46 KCAL/MOL
REMARK 924 INTRA-LIGAND FREE ENERGY PREDICTED BY IDOCK:   -1.55 KCAL/MOL
REMARK 927      BINDING AFFINITY PREDICTED BY RF-SCORE:    0.00 PKD
ROOT
HETATM    1  C   UNL     1     -10.366  11.600  63.262  1.00  0.00    -0.444 C  
HETATM    2  C   UNL     1     -11.565  12.508  63.468  1.00  0.00    -0.584 C  
ENDROOT
BRANCH   2   3
HETATM    3  C   UNL     1     -11.209  13.706  64.338  1.00  0.00    -0.382 C  
BRANCH   3   4
HETATM    4  C   UNL     1     -10.766  13.255  65.711  1.00  0.00    -0.277 C  
HETATM    5  O   UNL     1      -9.715  13.674  66.188  1.00  0.00    -0.285 OA 
HETATM    6  N   UNL     1     -11.675  12.411  66.334  1.00  0.00    -0.400 N  
HETATM    7  H   UNL     1     -12.528  12.186  65.823  1.00  0.00     0.000 HD 
BRANCH   6   8
HETATM    8  C   UNL     1     -11.521  11.835  67.614  1.00  0.00    -0.300 A  
HETATM    9  C   UNL     1     -11.997  12.433  68.776  1.00  0.00    -0.276 A  
HETATM   10  C   UNL     1     -11.903  11.784  70.008  1.00  0.00    -0.422 A  
HETATM   11  C   UNL     1     -11.317  10.519  70.118  1.00  0.00    -0.323 A  
HETATM   12  C   UNL     1     -10.761   9.939  68.967  1.00  0.00    -0.244 A  
HETATM   13  C   UNL     1     -10.871  10.603  67.723  1.00  0.00    -0.338 A  
BRANCH  11  14
HETATM   14  O   UNL     1     -11.305   9.804  71.289  1.00  0.00    -0.361 OA 
BRANCH  14  15
HETATM   15  C   UNL     1     -12.579   9.430  71.841  1.00  0.00    -0.401 C  
BRANCH  15  16
HETATM   16  C   UNL     1     -12.494   8.003  72.399  1.00  0.00    -0.212 C  
HETATM   17  H   UNL     1     -12.792   6.187  71.714  1.00  0.00     0.000 HD 
HETATM   18  O   UNL     1     -12.845   7.071  71.369  1.00  0.00    -0.377 OA 
BRANCH  16  19
HETATM   19  C   UNL     1     -11.087   7.654  72.929  1.00  0.00    -0.393 C  
BRANCH  19  20
HETATM   20  N   UNL     1     -10.301   6.894  71.951  1.00  0.00    -0.190 NA 
HETATM   21  H   UNL     1      -9.513   7.446  71.616  1.00  0.00     0.000 HD 
BRANCH  20  22
HETATM   22  C   UNL     1      -9.846   5.588  72.449  1.00  0.00    -0.162 C  
HETATM   23  C   UNL     1     -10.734   5.041  73.575  1.00  0.00    -0.339 C  
HETATM   24  C   UNL     1      -9.864   4.606  71.277  1.00  0.00    -0.261 C  
ENDBRANCH  20  22
ENDBRANCH  19  20
ENDBRANCH  16  19
ENDBRANCH  15  16
ENDBRANCH  14  15
ENDBRANCH  11  14
BRANCH  12  25
HETATM   25  C   UNL     1     -10.087   8.605  68.937  1.00  0.00    -0.202 C  
HETATM   26  C   UNL     1      -8.594   8.485  68.794  1.00  0.00    -0.131 C  
HETATM   27  O   UNL     1     -10.788   7.594  68.986  1.00  0.00    -0.161 OA 
ENDBRANCH  12  25
ENDBRANCH   6   8
ENDBRANCH   3   4
ENDBRANCH   2   3
TORSDOF 10
ENDMDL
MODEL       51
REMARK 921   NORMALIZED FREE ENERGY PREDICTED BY IDOCK:   -5.03 KCAL/MOL
REMARK 922        TOTAL FREE ENERGY PREDICTED BY IDOCK:   -9.00 KCAL/MOL
REMARK 923 INTER-LIGAND FREE ENERGY PREDICTED BY IDOCK:   -7.96 KCAL/MOL
REMARK 924 INTRA-LIGAND FREE ENERGY PREDICTED BY IDOCK:   -1.04 KCAL/MOL
REMARK 927      BINDING AFFINITY PREDICTED BY RF-SCORE:    0.00 PKD
ROOT
HETATM    1  C   UNL     1      -9.849   6.231  67.713  1.00  0.00    -0.130 C  
HETATM    2  C   UNL     1     -10.764   6.536  68.886  1.00  0.00    -0.318 C  
ENDROOT
BRANCH   2   3
HETATM    3  C   UNL     1     -10.028   7.306  69.974  1.00  0.00    -0.184 C  
BRANCH   3   4
HETATM    4  C   UNL     1     -10.000   8.783  69.656  1.00  0.00    -0.191 C  
HETATM    5  O   UNL     1      -8.928   9.379  69.592  1.00  0.00    -0.148 OA 
HETATM    6  N   UNL     1     -11.256   9.318  69.408  1.00  0.00    -0.436 N  
HETATM    7  H   UNL     1     -12.052   8.682  69.459  1.00  0.00     0.000 HD 
BRANCH   6   8
HETATM    8  C   UNL     1     -11.529  10.667  69.091  1.00  0.00    -0.280 A  
HETATM    9  C   UNL     1     -11.911  11.606  70.044  1.00  0.00    -0.435 A  
HETATM   10  C   UNL     1     -12.082  12.948  69.701  1.00  0.00    -0.290 A  
HETATM   11  C   UNL     1     -11.889  13.391  68.388  1.00  0.00    -0.366 A  
HETATM   12  C   UNL     1     -11.582  12.440  67.401  1.00  0.00    -0.433 A  
HETATM   13  C   UNL     1     -11.402  11.085  67.764  1.00  0.00    -0.365 A  
BRANCH  11  14
HETATM   14  O   UNL     1     -11.940  14.715  68.035  1.00  0.00    -0.326 OA 
BRANCH  14  15
HETATM   15  C   UNL     1     -11.164  15.633  68.823  1.00  0.00    -0.332 C  
BRANCH  15  16
HETATM   16  C   UNL     1     -10.235  16.437  67.902  1.00  0.00    -0.268 C  
HETATM   17  H   UNL     1     -10.075  16.758  65.972  1.00  0.00     0.000 HD 
HETATM   18  O   UNL     1     -10.650  16.260  66.541  1.00  0.00    -0.308 OA 
BRANCH  16  19
HETATM   19  C   UNL     1     -10.232  17.945  68.230  1.00  0.00    -0.388 C  
BRANCH  19  20
HETATM   20  N   UNL     1      -8.943  18.575  67.927  1.00  0.00    -0.279 NA 
HETATM   21  H   UNL     1      -8.427  18.025  67.240  1.00  0.00     0.000 HD 
BRANCH  20  22
HETATM   22  C   UNL     1      -9.058  19.974  67.492  1.00  0.00    -0.356 C  
HETATM   23  C   UNL     1      -7.716  20.564  67.036  1.00  0.00    -0.346 C  
HETATM   24  C   UNL     1     -10.048  20.024  66.328  1.00  0.00    -0.603 C  
ENDBRANCH  20  22
ENDBRANCH  19  20
ENDBRANCH  16  19
ENDBRANCH  15  16
ENDBRANCH  14  15
ENDBRANCH  11  14
BRANCH  12  25
HETATM   25  C   UNL     1     -11.368  12.762  65.958  1.00  0.00    -0.321 C  
HETATM   26  C   UNL     1     -12.521  12.841  64.993  1.00  0.00    -0.572 C  
HETATM   27  O   UNL     1     -10.214  12.920  65.558  1.00  0.00    -0.284 OA 
ENDBRANCH  12  25
ENDBRANCH   6   8
ENDBRANCH   3   4
ENDBRANCH   2   3
TORSDOF 10
ENDMDL
MODEL       52
REMARK 921   NORMALIZED FREE ENERGY PREDICTED BY IDOCK:   -5.01 KCAL/MOL
REMARK 922        TOTAL FREE ENERGY PREDICTED BY IDOCK:   -8.98 KCAL/MOL
REMARK 923 INTER-LIGAND FREE ENERGY PREDICTED BY IDOCK:   -8.22 KCAL/MOL
REMARK 924 INTRA-LIGAND FREE ENERGY PREDICTED BY IDOCK:   -0.76 KCAL/MOL
REMARK 927      BINDING AFFINITY PREDICTED BY RF-SCORE:    0.00 PKD
ROOT
HETATM    1  C   UNL     1     -11.083  15.778  65.068  1.00  0.00    -0.380 C  
HETATM    2  C   UNL     1     -11.765  14.512  64.578  1.00  0.00    -0.421 C  
ENDROOT
BRANCH   2   3
HETATM    3  C   UNL     1     -10.760  13.386  64.374  1.00  0.00    -0.423 C  
BRANCH   3   4
HETATM    4  C   UNL     1     -10.452  12.702  65.686  1.00  0.00    -0.275 C  
HETATM    5  O   UNL     1      -9.287  12.517  66.025  1.00  0.00    -0.195 OA 
HETATM    6  N   UNL     1     -11.585  12.390  66.425  1.00  0.00    -0.373 N  
HETATM    7  H   UNL     1     -12.488  12.648  66.025  1.00  0.00     0.000 HD 
BRANCH   6   8
HETATM    8  C   UNL     1     -11.598  11.747  67.681  1.00  0.00    -0.294 A  
HETATM    9  C   UNL     1     -11.071  10.476  67.887  1.00  0.00    -0.367 A  
HETATM   10  C   UNL     1     -11.024   9.917  69.165  1.00  0.00    -0.233 A  
HETATM   11  C   UNL     1     -11.513  10.608  70.277  1.00  0.00    -0.337 A  
HETATM   12  C   UNL     1     -12.120  11.857  70.073  1.00  0.00    -0.366 A  
HETATM   13  C   UNL     1     -12.154  12.417  68.774  1.00  0.00    -0.158 A  
BRANCH  11  14
HETATM   14  O   UNL     1     -11.385  10.139  71.560  1.00  0.00    -0.233 OA 
BRANCH  14  15
HETATM   15  C   UNL     1     -12.158   8.980  71.913  1.00  0.00    -0.378 C  
BRANCH  15  16
HETATM   16  C   UNL     1     -11.220   7.783  72.118  1.00  0.00    -0.297 C  
HETATM   17  H   UNL     1     -10.524   6.765  73.646  1.00  0.00     0.000 HD 
HETATM   18  O   UNL     1     -11.105   7.507  73.520  1.00  0.00    -0.312 OA 
BRANCH  16  19
HETATM   19  C   UNL     1     -11.715   6.510  71.399  1.00  0.00    -0.324 C  
BRANCH  19  20
HETATM   20  N   UNL     1     -11.822   6.700  69.949  1.00  0.00    -0.653 NA 
HETATM   21  H   UNL     1     -12.104   7.655  69.731  1.00  0.00     0.000 HD 
BRANCH  20  22
HETATM   22  C   UNL     1     -10.601   6.339  69.215  1.00  0.00    -0.273 C  
HETATM   23  C   UNL     1      -9.949   5.055  69.746  1.00  0.00    -0.319 C  
HETATM   24  C   UNL     1     -10.977   6.139  67.746  1.00  0.00    -0.400 C  
ENDBRANCH  20  22
ENDBRANCH  19  20
ENDBRANCH  16  19
ENDBRANCH  15  16
ENDBRANCH  14  15
ENDBRANCH  11  14
BRANCH  12  25
HETATM   25  C   UNL     1     -12.703  12.699  71.161  1.00  0.00    -0.254 C  
HETATM   26  C   UNL     1     -12.398  14.170  71.263  1.00  0.00    -0.447 C  
HETATM   27  O   UNL     1     -13.411  12.154  72.009  1.00  0.00    -0.503 OA 
ENDBRANCH  12  25
ENDBRANCH   6   8
ENDBRANCH   3   4
ENDBRANCH   2   3
TORSDOF 10
ENDMDL
MODEL       53
REMARK 921   NORMALIZED FREE ENERGY PREDICTED BY IDOCK:   -5.00 KCAL/MOL
REMARK 922        TOTAL FREE ENERGY PREDICTED BY IDOCK:   -8.96 KCAL/MOL
REMARK 923 INTER-LIGAND FREE ENERGY PREDICTED BY IDOCK:   -7.50 KCAL/MOL
REMARK 924 INTRA-LIGAND FREE ENERGY PREDICTED BY IDOCK:   -1.46 KCAL/MOL
REMARK 927      BINDING AFFINITY PREDICTED BY RF-SCORE:    0.00 PKD
ROOT
HETATM    1  C   UNL     1     -11.335   6.190  70.801  1.00  0.00    -0.364 C  
HETATM    2  C   UNL     1     -10.134   7.025  70.392  1.00  0.00    -0.198 C  
ENDROOT
BRANCH   2   3
HETATM    3  C   UNL     1     -10.416   7.812  69.119  1.00  0.00    -0.219 C  
BRANCH   3   4
HETATM    4  C   UNL     1     -10.421   9.297  69.400  1.00  0.00    -0.219 C  
HETATM    5  O   UNL     1      -9.543   9.793  70.101  1.00  0.00    -0.240 OA 
HETATM    6  N   UNL     1     -11.445   9.977  68.755  1.00  0.00    -0.498 N  
HETATM    7  H   UNL     1     -12.073   9.427  68.169  1.00  0.00     0.000 HD 
BRANCH   6   8
HETATM    8  C   UNL     1     -11.693  11.364  68.840  1.00  0.00    -0.343 A  
HETATM    9  C   UNL     1     -12.033  12.001  70.029  1.00  0.00    -0.400 A  
HETATM   10  C   UNL     1     -12.181  13.388  70.083  1.00  0.00    -0.385 A  
HETATM   11  C   UNL     1     -12.004  14.181  68.944  1.00  0.00    -0.341 A  
HETATM   12  C   UNL     1     -11.740  13.544  67.722  1.00  0.00    -0.394 A  
HETATM   13  C   UNL     1     -11.584  12.138  67.682  1.00  0.00    -0.413 A  
BRANCH  11  14
HETATM   14  O   UNL     1     -12.032  15.552  68.981  1.00  0.00    -0.354 OA 
BRANCH  14  15
HETATM   15  C   UNL     1     -11.014  16.207  69.756  1.00  0.00    -0.349 C  
BRANCH  15  16
HETATM   16  C   UNL     1     -10.032  16.917  68.813  1.00  0.00    -0.276 C  
HETATM   17  H   UNL     1      -9.414  18.759  68.528  1.00  0.00     0.000 HD 
HETATM   18  O   UNL     1     -10.022  18.319  69.112  1.00  0.00    -0.316 OA 
BRANCH  16  19
HETATM   19  C   UNL     1      -8.594  16.372  68.931  1.00  0.00    -0.250 C  
BRANCH  19  20
HETATM   20  N   UNL     1      -8.567  14.977  69.383  1.00  0.00    -0.388 NA 
HETATM   21  H   UNL     1      -9.495  14.560  69.321  1.00  0.00     0.000 HD 
BRANCH  20  22
HETATM   22  C   UNL     1      -7.578  14.148  68.678  1.00  0.00    -0.126 C  
HETATM   23  C   UNL     1      -8.150  12.795  68.233  1.00  0.00    -0.154 C  
HETATM   24  C   UNL     1      -7.108  14.922  67.446  1.00  0.00    -0.194 C  
ENDBRANCH  20  22
ENDBRANCH  19  20
ENDBRANCH  16  19
ENDBRANCH  15  16
ENDBRANCH  14  15
ENDBRANCH  11  14
BRANCH  12  25
HETATM   25  C   UNL     1     -11.548  14.258  66.423  1.00  0.00    -0.372 C  
HETATM   26  C   UNL     1     -12.647  14.327  65.397  1.00  0.00    -0.422 C  
HETATM   27  O   UNL     1     -10.447  14.755  66.185  1.00  0.00    -0.285 OA 
ENDBRANCH  12  25
ENDBRANCH   6   8
ENDBRANCH   3   4
ENDBRANCH   2   3
TORSDOF 10
ENDMDL
MODEL       54
REMARK 921   NORMALIZED FREE ENERGY PREDICTED BY IDOCK:   -4.98 KCAL/MOL
REMARK 922        TOTAL FREE ENERGY PREDICTED BY IDOCK:   -8.92 KCAL/MOL
REMARK 923 INTER-LIGAND FREE ENERGY PREDICTED BY IDOCK:   -7.60 KCAL/MOL
REMARK 924 INTRA-LIGAND FREE ENERGY PREDICTED BY IDOCK:   -1.32 KCAL/MOL
REMARK 927      BINDING AFFINITY PREDICTED BY RF-SCORE:    0.00 PKD
ROOT
HETATM    1  C   UNL     1     -11.082   4.848  73.433  1.00  0.00    -0.415 C  
HETATM    2  C   UNL     1     -10.206   6.020  73.026  1.00  0.00    -0.210 C  
ENDROOT
BRANCH   2   3
HETATM    3  C   UNL     1     -10.895   7.349  73.308  1.00  0.00    -0.417 C  
BRANCH   3   4
HETATM    4  C   UNL     1     -11.367   7.988  72.023  1.00  0.00    -0.302 C  
HETATM    5  O   UNL     1     -12.358   7.550  71.445  1.00  0.00    -0.320 OA 
HETATM    6  N   UNL     1     -10.616   9.094  71.648  1.00  0.00    -0.362 N  
HETATM    7  H   UNL     1      -9.844   9.361  72.259  1.00  0.00     0.000 HD 
BRANCH   6   8
HETATM    8  C   UNL     1     -10.826   9.880  70.494  1.00  0.00    -0.326 A  
HETATM    9  C   UNL     1     -11.665  10.989  70.477  1.00  0.00    -0.416 A  
HETATM   10  C   UNL     1     -11.772  11.790  69.339  1.00  0.00    -0.405 A  
HETATM   11  C   UNL     1     -11.050  11.499  68.177  1.00  0.00    -0.246 A  
HETATM   12  C   UNL     1     -10.262  10.337  68.154  1.00  0.00    -0.192 A  
HETATM   13  C   UNL     1     -10.155   9.539  69.317  1.00  0.00    -0.203 A  
BRANCH  11  14
HETATM   14  O   UNL     1     -11.044  12.321  67.079  1.00  0.00    -0.258 OA 
BRANCH  14  15
HETATM   15  C   UNL     1     -10.257  13.521  67.164  1.00  0.00    -0.247 C  
BRANCH  15  16
HETATM   16  C   UNL     1     -11.153  14.739  66.901  1.00  0.00    -0.339 C  
HETATM   17  H   UNL     1     -13.049  15.050  66.499  1.00  0.00     0.000 HD 
HETATM   18  O   UNL     1     -12.495  14.296  66.661  1.00  0.00    -0.407 OA 
BRANCH  16  19
HETATM   19  C   UNL     1     -11.161  15.737  68.078  1.00  0.00    -0.338 C  
BRANCH  19  20
HETATM   20  N   UNL     1     -12.326  15.554  68.951  1.00  0.00    -0.590 NA 
HETATM   21  H   UNL     1     -12.746  14.637  68.801  1.00  0.00     0.000 HD 
BRANCH  20  22
HETATM   22  C   UNL     1     -12.035  15.766  70.375  1.00  0.00    -0.359 C  
HETATM   23  C   UNL     1     -13.088  15.133  71.295  1.00  0.00    -0.512 C  
HETATM   24  C   UNL     1     -10.671  15.143  70.674  1.00  0.00    -0.160 C  
ENDBRANCH  20  22
ENDBRANCH  19  20
ENDBRANCH  16  19
ENDBRANCH  15  16
ENDBRANCH  14  15
ENDBRANCH  11  14
BRANCH  12  25
HETATM   25  C   UNL     1      -9.454   9.889  66.980  1.00  0.00    -0.160 C  
HETATM   26  C   UNL     1      -9.907   8.750  66.105  1.00  0.00    -0.297 C  
HETATM   27  O   UNL     1      -8.376  10.444  66.764  1.00  0.00    -0.123 OA 
ENDBRANCH  12  25
ENDBRANCH   6   8
ENDBRANCH   3   4
ENDBRANCH   2   3
TORSDOF 10
ENDMDL
MODEL       55
REMARK 921   NORMALIZED FREE ENERGY PREDICTED BY IDOCK:   -4.97 KCAL/MOL
REMARK 922        TOTAL FREE ENERGY PREDICTED BY IDOCK:   -8.91 KCAL/MOL
REMARK 923 INTER-LIGAND FREE ENERGY PREDICTED BY IDOCK:   -8.12 KCAL/MOL
REMARK 924 INTRA-LIGAND FREE ENERGY PREDICTED BY IDOCK:   -0.79 KCAL/MOL
REMARK 927      BINDING AFFINITY PREDICTED BY RF-SCORE:    0.00 PKD
ROOT
HETATM    1  C   UNL     1     -10.341   5.300  68.095  1.00  0.00    -0.181 C  
HETATM    2  C   UNL     1     -11.105   6.551  68.492  1.00  0.00    -0.347 C  
ENDROOT
BRANCH   2   3
HETATM    3  C   UNL     1     -10.410   7.285  69.631  1.00  0.00    -0.227 C  
BRANCH   3   4
HETATM    4  C   UNL     1     -10.102   8.711  69.237  1.00  0.00    -0.202 C  
HETATM    5  O   UNL     1      -8.985   9.178  69.442  1.00  0.00    -0.139 OA 
HETATM    6  N   UNL     1     -11.160   9.351  68.606  1.00  0.00    -0.463 N  
HETATM    7  H   UNL     1     -12.015   8.812  68.470  1.00  0.00     0.000 HD 
BRANCH   6   8
HETATM    8  C   UNL     1     -11.156  10.682  68.136  1.00  0.00    -0.285 A  
HETATM    9  C   UNL     1     -10.892  11.016  66.812  1.00  0.00    -0.307 A  
HETATM   10  C   UNL     1     -10.989  12.338  66.373  1.00  0.00    -0.326 A  
HETATM   11  C   UNL     1     -11.342  13.369  67.249  1.00  0.00    -0.319 A  
HETATM   12  C   UNL     1     -11.532  13.057  68.605  1.00  0.00    -0.344 A  
HETATM   13  C   UNL     1     -11.440  11.713  69.035  1.00  0.00    -0.356 A  
BRANCH  11  14
HETATM   14  O   UNL     1     -11.553  14.659  66.833  1.00  0.00    -0.361 OA 
BRANCH  14  15
HETATM   15  C   UNL     1     -11.309  14.947  65.446  1.00  0.00    -0.346 C  
BRANCH  15  16
HETATM   16  C   UNL     1     -10.290  16.089  65.333  1.00  0.00    -0.359 C  
HETATM   17  H   UNL     1     -10.295  17.942  64.683  1.00  0.00     0.000 HD 
HETATM   18  O   UNL     1     -10.926  17.235  64.752  1.00  0.00    -0.950 OA 
BRANCH  16  19
HETATM   19  C   UNL     1      -9.693  16.491  66.698  1.00  0.00    -0.260 C  
BRANCH  19  20
HETATM   20  N   UNL     1      -8.934  17.743  66.624  1.00  0.00    -0.259 NA 
HETATM   21  H   UNL     1      -9.071  18.194  65.720  1.00  0.00     0.000 HD 
BRANCH  20  22
HETATM   22  C   UNL     1      -9.228  18.677  67.720  1.00  0.00    -0.285 C  
HETATM   23  C   UNL     1      -7.959  19.262  68.355  1.00  0.00    -0.376 C  
HETATM   24  C   UNL     1     -10.074  19.817  67.152  1.00  0.00    -0.553 C  
ENDBRANCH  20  22
ENDBRANCH  19  20
ENDBRANCH  16  19
ENDBRANCH  15  16
ENDBRANCH  14  15
ENDBRANCH  11  14
BRANCH  12  25
HETATM   25  C   UNL     1     -11.891  14.055  69.657  1.00  0.00    -0.330 C  
HETATM   26  C   UNL     1     -11.010  15.242  69.945  1.00  0.00    -0.303 C  
HETATM   27  O   UNL     1     -12.909  13.864  70.323  1.00  0.00    -0.245 OA 
ENDBRANCH  12  25
ENDBRANCH   6   8
ENDBRANCH   3   4
ENDBRANCH   2   3
TORSDOF 10
ENDMDL
MODEL       56
REMARK 921   NORMALIZED FREE ENERGY PREDICTED BY IDOCK:   -4.96 KCAL/MOL
REMARK 922        TOTAL FREE ENERGY PREDICTED BY IDOCK:   -8.90 KCAL/MOL
REMARK 923 INTER-LIGAND FREE ENERGY PREDICTED BY IDOCK:   -7.44 KCAL/MOL
REMARK 924 INTRA-LIGAND FREE ENERGY PREDICTED BY IDOCK:   -1.46 KCAL/MOL
REMARK 927      BINDING AFFINITY PREDICTED BY RF-SCORE:    0.00 PKD
ROOT
HETATM    1  C   UNL     1     -10.039   4.492  71.893  1.00  0.00    -0.258 C  
HETATM    2  C   UNL     1     -10.911   5.461  72.671  1.00  0.00    -0.321 C  
ENDROOT
BRANCH   2   3
HETATM    3  C   UNL     1     -10.295   6.854  72.704  1.00  0.00    -0.228 C  
BRANCH   3   4
HETATM    4  C   UNL     1     -10.844   7.706  71.583  1.00  0.00    -0.227 C  
HETATM    5  O   UNL     1     -11.755   7.283  70.877  1.00  0.00    -0.298 OA 
HETATM    6  N   UNL     1     -10.258   8.962  71.507  1.00  0.00    -0.300 N  
HETATM    7  H   UNL     1      -9.539   9.183  72.196  1.00  0.00     0.000 HD 
BRANCH   6   8
HETATM    8  C   UNL     1     -10.570   9.961  70.560  1.00  0.00    -0.293 A  
HETATM    9  C   UNL     1     -11.675  10.798  70.677  1.00  0.00    -0.442 A  
HETATM   10  C   UNL     1     -11.893  11.831  69.765  1.00  0.00    -0.420 A  
HETATM   11  C   UNL     1     -11.017  12.053  68.697  1.00  0.00    -0.240 A  
HETATM   12  C   UNL     1      -9.943  11.166  68.520  1.00  0.00    -0.204 A  
HETATM   13  C   UNL     1      -9.728  10.129  69.457  1.00  0.00    -0.251 A  
BRANCH  11  14
HETATM   14  O   UNL     1     -11.137  13.122  67.846  1.00  0.00    -0.245 OA 
BRANCH  14  15
HETATM   15  C   UNL     1     -12.264  13.123  66.953  1.00  0.00    -0.222 C  
BRANCH  15  16
HETATM   16  C   UNL     1     -11.787  12.800  65.530  1.00  0.00    -0.422 C  
HETATM   17  H   UNL     1     -12.629  12.310  63.825  1.00  0.00     0.000 HD 
HETATM   18  O   UNL     1     -12.924  12.510  64.706  1.00  0.00    -0.827 OA 
BRANCH  16  19
HETATM   19  C   UNL     1     -10.992  13.959  64.891  1.00  0.00    -0.386 C  
BRANCH  19  20
HETATM   20  N   UNL     1      -9.643  14.079  65.452  1.00  0.00    -0.552 NA 
HETATM   21  H   UNL     1      -8.947  13.736  64.791  1.00  0.00     0.000 HD 
BRANCH  20  22
HETATM   22  C   UNL     1      -9.309  15.438  65.899  1.00  0.00    -0.294 C  
HETATM   23  C   UNL     1     -10.532  16.364  65.944  1.00  0.00    -0.350 C  
HETATM   24  C   UNL     1      -8.707  15.337  67.301  1.00  0.00    -0.216 C  
ENDBRANCH  20  22
ENDBRANCH  19  20
ENDBRANCH  16  19
ENDBRANCH  15  16
ENDBRANCH  14  15
ENDBRANCH  11  14
BRANCH  12  25
HETATM   25  C   UNL     1      -8.940  11.266  67.417  1.00  0.00    -0.144 C  
HETATM   26  C   UNL     1      -7.533  11.732  67.677  1.00  0.00    -0.123 C  
HETATM   27  O   UNL     1      -9.303  11.001  66.270  1.00  0.00    -0.173 OA 
ENDBRANCH  12  25
ENDBRANCH   6   8
ENDBRANCH   3   4
ENDBRANCH   2   3
TORSDOF 10
ENDMDL
MODEL       57
REMARK 921   NORMALIZED FREE ENERGY PREDICTED BY IDOCK:   -4.96 KCAL/MOL
REMARK 922        TOTAL FREE ENERGY PREDICTED BY IDOCK:   -8.89 KCAL/MOL
REMARK 923 INTER-LIGAND FREE ENERGY PREDICTED BY IDOCK:   -8.00 KCAL/MOL
REMARK 924 INTRA-LIGAND FREE ENERGY PREDICTED BY IDOCK:   -0.89 KCAL/MOL
REMARK 927      BINDING AFFINITY PREDICTED BY RF-SCORE:    0.00 PKD
ROOT
HETATM    1  C   UNL     1      -8.241   7.008  65.571  1.00  0.00    -0.135 C  
HETATM    2  C   UNL     1      -9.564   6.852  66.299  1.00  0.00    -0.089 C  
ENDROOT
BRANCH   2   3
HETATM    3  C   UNL     1      -9.448   7.281  67.755  1.00  0.00    -0.143 C  
BRANCH   3   4
HETATM    4  C   UNL     1      -9.546   8.784  67.878  1.00  0.00    -0.145 C  
HETATM    5  O   UNL     1      -8.565   9.440  68.219  1.00  0.00    -0.120 OA 
HETATM    6  N   UNL     1     -10.790   9.287  67.521  1.00  0.00    -0.447 N  
HETATM    7  H   UNL     1     -11.494   8.614  67.216  1.00  0.00     0.000 HD 
BRANCH   6   8
HETATM    8  C   UNL     1     -11.166  10.647  67.543  1.00  0.00    -0.253 A  
HETATM    9  C   UNL     1     -11.566  11.304  68.702  1.00  0.00    -0.384 A  
HETATM   10  C   UNL     1     -11.842  12.672  68.693  1.00  0.00    -0.342 A  
HETATM   11  C   UNL     1     -11.736  13.425  67.520  1.00  0.00    -0.366 A  
HETATM   12  C   UNL     1     -11.411  12.760  66.327  1.00  0.00    -0.405 A  
HETATM   13  C   UNL     1     -11.126  11.375  66.351  1.00  0.00    -0.301 A  
BRANCH  11  14
HETATM   14  O   UNL     1     -11.892  14.788  67.494  1.00  0.00    -0.375 OA 
BRANCH  14  15
HETATM   15  C   UNL     1     -12.264  15.427  68.727  1.00  0.00    -0.030 C  
BRANCH  15  16
HETATM   16  C   UNL     1     -11.005  15.942  69.437  1.00  0.00    -0.309 C  
HETATM   17  H   UNL     1      -9.818  17.498  69.279  1.00  0.00     0.000 HD 
HETATM   18  O   UNL     1     -10.597  17.179  68.839  1.00  0.00    -0.337 OA 
BRANCH  16  19
HETATM   19  C   UNL     1     -11.223  16.167  70.948  1.00  0.00    -0.293 C  
BRANCH  19  20
HETATM   20  N   UNL     1     -11.532  14.919  71.654  1.00  0.00    -0.521 NA 
HETATM   21  H   UNL     1     -10.765  14.658  72.274  1.00  0.00     0.000 HD 
BRANCH  20  22
HETATM   22  C   UNL     1     -12.804  14.956  72.389  1.00  0.00    -0.345 C  
HETATM   23  C   UNL     1     -13.588  13.641  72.282  1.00  0.00    -0.669 C  
HETATM   24  C   UNL     1     -12.489  15.233  73.860  1.00  0.00    -0.752 C  
ENDBRANCH  20  22
ENDBRANCH  19  20
ENDBRANCH  16  19
ENDBRANCH  15  16
ENDBRANCH  14  15
ENDBRANCH  11  14
BRANCH  12  25
HETATM   25  C   UNL     1     -11.283  13.430  64.997  1.00  0.00    -0.317 C  
HETATM   26  C   UNL     1     -12.212  13.098  63.860  1.00  0.00    -0.503 C  
HETATM   27  O   UNL     1     -10.364  14.233  64.832  1.00  0.00    -0.418 OA 
ENDBRANCH  12  25
ENDBRANCH   6   8
ENDBRANCH   3   4
ENDBRANCH   2   3
TORSDOF 10
ENDMDL
MODEL       58
REMARK 921   NORMALIZED FREE ENERGY PREDICTED BY IDOCK:   -4.95 KCAL/MOL
REMARK 922        TOTAL FREE ENERGY PREDICTED BY IDOCK:   -8.88 KCAL/MOL
REMARK 923 INTER-LIGAND FREE ENERGY PREDICTED BY IDOCK:   -7.80 KCAL/MOL
REMARK 924 INTRA-LIGAND FREE ENERGY PREDICTED BY IDOCK:   -1.08 KCAL/MOL
REMARK 927      BINDING AFFINITY PREDICTED BY RF-SCORE:    0.00 PKD
ROOT
HETATM    1  C   UNL     1     -10.888  16.687  65.250  1.00  0.00    -0.194 C  
HETATM    2  C   UNL     1     -10.746  15.246  64.791  1.00  0.00    -0.342 C  
ENDROOT
BRANCH   2   3
HETATM    3  C   UNL     1     -12.108  14.599  64.572  1.00  0.00    -0.490 C  
BRANCH   3   4
HETATM    4  C   UNL     1     -12.128  13.196  65.134  1.00  0.00    -0.421 C  
HETATM    5  O   UNL     1     -13.117  12.485  64.979  1.00  0.00    -0.765 OA 
HETATM    6  N   UNL     1     -10.939  12.832  65.751  1.00  0.00    -0.272 N  
HETATM    7  H   UNL     1     -10.189  13.523  65.763  1.00  0.00     0.000 HD 
BRANCH   6   8
HETATM    8  C   UNL     1     -10.677  11.588  66.366  1.00  0.00    -0.273 A  
HETATM    9  C   UNL     1     -10.154  10.498  65.676  1.00  0.00    -0.333 A  
HETATM   10  C   UNL     1      -9.826   9.317  66.344  1.00  0.00    -0.347 A  
HETATM   11  C   UNL     1     -10.022   9.185  67.723  1.00  0.00    -0.189 A  
HETATM   12  C   UNL     1     -10.624  10.247  68.416  1.00  0.00    -0.247 A  
HETATM   13  C   UNL     1     -10.943  11.442  67.730  1.00  0.00    -0.301 A  
BRANCH  11  14
HETATM   14  O   UNL     1      -9.612   8.084  68.430  1.00  0.00    -0.147 OA 
BRANCH  14  15
HETATM   15  C   UNL     1      -9.560   6.834  67.722  1.00  0.00    -0.124 C  
BRANCH  15  16
HETATM   16  C   UNL     1     -10.715   5.935  68.186  1.00  0.00    -0.251 C  
HETATM   17  H   UNL     1     -11.162   4.026  68.082  1.00  0.00     0.000 HD 
HETATM   18  O   UNL     1     -10.448   4.583  67.795  1.00  0.00     0.093 OA 
BRANCH  16  19
HETATM   19  C   UNL     1     -10.926   5.979  69.714  1.00  0.00    -0.401 C  
BRANCH  19  20
HETATM   20  N   UNL     1     -11.977   6.925  70.101  1.00  0.00    -0.637 NA 
HETATM   21  H   UNL     1     -12.753   6.890  69.440  1.00  0.00     0.000 HD 
BRANCH  20  22
HETATM   22  C   UNL     1     -12.458   6.742  71.477  1.00  0.00    -0.341 C  
HETATM   23  C   UNL     1     -11.715   7.628  72.486  1.00  0.00    -0.352 C  
HETATM   24  C   UNL     1     -13.947   7.092  71.506  1.00  0.00    -0.440 C  
ENDBRANCH  20  22
ENDBRANCH  19  20
ENDBRANCH  16  19
ENDBRANCH  15  16
ENDBRANCH  14  15
ENDBRANCH  11  14
BRANCH  12  25
HETATM   25  C   UNL     1     -10.913  10.241  69.882  1.00  0.00    -0.303 C  
HETATM   26  C   UNL     1     -12.147  10.899  70.440  1.00  0.00    -0.453 C  
HETATM   27  O   UNL     1     -10.093   9.721  70.639  1.00  0.00    -0.272 OA 
ENDBRANCH  12  25
ENDBRANCH   6   8
ENDBRANCH   3   4
ENDBRANCH   2   3
TORSDOF 10
ENDMDL
MODEL       59
REMARK 921   NORMALIZED FREE ENERGY PREDICTED BY IDOCK:   -4.95 KCAL/MOL
REMARK 922        TOTAL FREE ENERGY PREDICTED BY IDOCK:   -8.88 KCAL/MOL
REMARK 923 INTER-LIGAND FREE ENERGY PREDICTED BY IDOCK:   -7.58 KCAL/MOL
REMARK 924 INTRA-LIGAND FREE ENERGY PREDICTED BY IDOCK:   -1.30 KCAL/MOL
REMARK 927      BINDING AFFINITY PREDICTED BY RF-SCORE:    0.00 PKD
ROOT
HETATM    1  C   UNL     1     -12.425  15.472  73.747  1.00  0.00    -0.748 C  
HETATM    2  C   UNL     1     -12.130  15.974  72.344  1.00  0.00    -0.629 C  
ENDROOT
BRANCH   2   3
HETATM    3  C   UNL     1     -13.173  15.481  71.350  1.00  0.00    -0.587 C  
BRANCH   3   4
HETATM    4  C   UNL     1     -12.591  14.416  70.449  1.00  0.00    -0.345 C  
HETATM    5  O   UNL     1     -12.468  13.264  70.857  1.00  0.00    -0.362 OA 
HETATM    6  N   UNL     1     -12.292  14.875  69.174  1.00  0.00    -0.578 N  
HETATM    7  H   UNL     1     -12.492  15.855  68.973  1.00  0.00     0.000 HD 
BRANCH   6   8
HETATM    8  C   UNL     1     -11.735  14.105  68.130  1.00  0.00    -0.355 A  
HETATM    9  C   UNL     1     -12.408  13.843  66.941  1.00  0.00    -0.331 A  
HETATM   10  C   UNL     1     -11.783  13.153  65.900  1.00  0.00    -0.427 A  
HETATM   11  C   UNL     1     -10.468  12.693  66.022  1.00  0.00    -0.268 A  
HETATM   12  C   UNL     1      -9.806  12.880  67.246  1.00  0.00    -0.218 A  
HETATM   13  C   UNL     1     -10.447  13.589  68.289  1.00  0.00    -0.258 A  
BRANCH  11  14
HETATM   14  O   UNL     1      -9.785  12.110  64.985  1.00  0.00    -0.204 OA 
BRANCH  14  15
HETATM   15  C   UNL     1     -10.231  10.812  64.557  1.00  0.00    -0.359 C  
BRANCH  15  16
HETATM   16  C   UNL     1      -9.366  10.338  63.380  1.00  0.00    -0.303 C  
HETATM   17  H   UNL     1      -8.540  11.159  61.800  1.00  0.00     0.000 HD 
HETATM   18  O   UNL     1      -9.076  11.453  62.527  1.00  0.00    -0.335 OA 
BRANCH  16  19
HETATM   19  C   UNL     1      -8.037   9.702  63.838  1.00  0.00    -0.152 C  
BRANCH  19  20
HETATM   20  N   UNL     1      -7.282  10.582  64.737  1.00  0.00    -0.343 NA 
HETATM   21  H   UNL     1      -7.582  10.452  65.702  1.00  0.00     0.000 HD 
BRANCH  20  22
HETATM   22  C   UNL     1      -5.825  10.433  64.621  1.00  0.00    -0.124 C  
HETATM   23  C   UNL     1      -5.338   9.037  65.034  1.00  0.00    -0.038 C  
HETATM   24  C   UNL     1      -5.441  10.687  63.163  1.00  0.00    -0.158 C  
ENDBRANCH  20  22
ENDBRANCH  19  20
ENDBRANCH  16  19
ENDBRANCH  15  16
ENDBRANCH  14  15
ENDBRANCH  11  14
BRANCH  12  25
HETATM   25  C   UNL     1      -8.411  12.426  67.527  1.00  0.00    -0.173 C  
HETATM   26  C   UNL     1      -7.272  13.406  67.625  1.00  0.00    -0.167 C  
HETATM   27  O   UNL     1      -8.198  11.217  67.634  1.00  0.00    -0.115 OA 
ENDBRANCH  12  25
ENDBRANCH   6   8
ENDBRANCH   3   4
ENDBRANCH   2   3
TORSDOF 10
ENDMDL
MODEL       60
REMARK 921   NORMALIZED FREE ENERGY PREDICTED BY IDOCK:   -4.95 KCAL/MOL
REMARK 922        TOTAL FREE ENERGY PREDICTED BY IDOCK:   -8.88 KCAL/MOL
REMARK 923 INTER-LIGAND FREE ENERGY PREDICTED BY IDOCK:   -7.95 KCAL/MOL
REMARK 924 INTRA-LIGAND FREE ENERGY PREDICTED BY IDOCK:   -0.93 KCAL/MOL
REMARK 927      BINDING AFFINITY PREDICTED BY RF-SCORE:    0.00 PKD
ROOT
HETATM    1  C   UNL     1     -10.757   7.797  72.909  1.00  0.00    -0.446 C  
HETATM    2  C   UNL     1      -9.740   8.018  71.803  1.00  0.00    -0.233 C  
ENDROOT
BRANCH   2   3
HETATM    3  C   UNL     1     -10.397   7.967  70.430  1.00  0.00    -0.212 C  
BRANCH   3   4
HETATM    4  C   UNL     1     -10.275   9.300  69.730  1.00  0.00    -0.211 C  
HETATM    5  O   UNL     1      -9.211   9.628  69.212  1.00  0.00    -0.163 OA 
HETATM    6  N   UNL     1     -11.461  10.022  69.706  1.00  0.00    -0.373 N  
HETATM    7  H   UNL     1     -12.275   9.594  70.146  1.00  0.00     0.000 HD 
BRANCH   6   8
HETATM    8  C   UNL     1     -11.638  11.297  69.126  1.00  0.00    -0.319 A  
HETATM    9  C   UNL     1     -11.767  12.460  69.879  1.00  0.00    -0.339 A  
HETATM   10  C   UNL     1     -11.849  13.709  69.261  1.00  0.00    -0.395 A  
HETATM   11  C   UNL     1     -11.816  13.832  67.868  1.00  0.00    -0.378 A  
HETATM   12  C   UNL     1     -11.766  12.662  67.095  1.00  0.00    -0.438 A  
HETATM   13  C   UNL     1     -11.674  11.403  67.733  1.00  0.00    -0.279 A  
BRANCH  11  14
HETATM   14  O   UNL     1     -11.783  15.046  67.230  1.00  0.00    -0.330 OA 
BRANCH  14  15
HETATM   15  C   UNL     1     -10.533  15.756  67.237  1.00  0.00    -0.308 C  
BRANCH  15  16
HETATM   16  C   UNL     1     -10.704  17.084  67.987  1.00  0.00    -0.365 C  
HETATM   17  H   UNL     1     -10.677  17.674  69.859  1.00  0.00     0.000 HD 
HETATM   18  O   UNL     1     -10.572  16.852  69.395  1.00  0.00    -0.337 OA 
BRANCH  16  19
HETATM   19  C   UNL     1      -9.670  18.146  67.558  1.00  0.00    -0.303 C  
BRANCH  19  20
HETATM   20  N   UNL     1      -8.571  18.270  68.522  1.00  0.00    -0.312 NA 
HETATM   21  H   UNL     1      -8.887  18.026  69.460  1.00  0.00     0.000 HD 
BRANCH  20  22
HETATM   22  C   UNL     1      -7.377  17.496  68.157  1.00  0.00    -0.218 C  
HETATM   23  C   UNL     1      -7.079  17.540  66.652  1.00  0.00    -0.268 C  
HETATM   24  C   UNL     1      -6.187  18.080  68.920  1.00  0.00    -0.215 C  
ENDBRANCH  20  22
ENDBRANCH  19  20
ENDBRANCH  16  19
ENDBRANCH  15  16
ENDBRANCH  14  15
ENDBRANCH  11  14
BRANCH  12  25
HETATM   25  C   UNL     1     -11.745  12.638  65.601  1.00  0.00    -0.412 C  
HETATM   26  C   UNL     1     -10.449  12.636  64.836  1.00  0.00    -0.331 C  
HETATM   27  O   UNL     1     -12.819  12.667  65.000  1.00  0.00    -0.765 OA 
ENDBRANCH  12  25
ENDBRANCH   6   8
ENDBRANCH   3   4
ENDBRANCH   2   3
TORSDOF 10
ENDMDL
MODEL       61
REMARK 921   NORMALIZED FREE ENERGY PREDICTED BY IDOCK:   -4.95 KCAL/MOL
REMARK 922        TOTAL FREE ENERGY PREDICTED BY IDOCK:   -8.88 KCAL/MOL
REMARK 923 INTER-LIGAND FREE ENERGY PREDICTED BY IDOCK:   -7.85 KCAL/MOL
REMARK 924 INTRA-LIGAND FREE ENERGY PREDICTED BY IDOCK:   -1.03 KCAL/MOL
REMARK 927      BINDING AFFINITY PREDICTED BY RF-SCORE:    0.00 PKD
ROOT
HETATM    1  C   UNL     1     -10.711   6.461  73.077  1.00  0.00    -0.286 C  
HETATM    2  C   UNL     1     -10.842   7.885  72.567  1.00  0.00    -0.403 C  
ENDROOT
BRANCH   2   3
HETATM    3  C   UNL     1     -12.296   8.242  72.290  1.00  0.00    -0.410 C  
BRANCH   3   4
HETATM    4  C   UNL     1     -12.388   9.371  71.290  1.00  0.00    -0.341 C  
HETATM    5  O   UNL     1     -13.473   9.892  71.047  1.00  0.00    -0.363 OA 
HETATM    6  N   UNL     1     -11.158   9.748  70.769  1.00  0.00    -0.320 N  
HETATM    7  H   UNL     1     -10.336   9.244  71.104  1.00  0.00     0.000 HD 
BRANCH   6   8
HETATM    8  C   UNL     1     -10.944  10.767  69.816  1.00  0.00    -0.252 A  
HETATM    9  C   UNL     1     -11.749  11.898  69.723  1.00  0.00    -0.403 A  
HETATM   10  C   UNL     1     -11.445  12.923  68.825  1.00  0.00    -0.345 A  
HETATM   11  C   UNL     1     -10.331  12.843  67.984  1.00  0.00    -0.227 A  
HETATM   12  C   UNL     1      -9.557  11.672  68.010  1.00  0.00    -0.184 A  
HETATM   13  C   UNL     1      -9.870  10.645  68.931  1.00  0.00    -0.210 A  
BRANCH  11  14
HETATM   14  O   UNL     1      -9.939  13.875  67.169  1.00  0.00    -0.233 OA 
BRANCH  14  15
HETATM   15  C   UNL     1     -10.724  15.078  67.214  1.00  0.00    -0.298 C  
BRANCH  15  16
HETATM   16  C   UNL     1     -10.659  15.782  65.852  1.00  0.00    -0.339 C  
HETATM   17  H   UNL     1      -9.250  16.494  64.684  1.00  0.00     0.000 HD 
HETATM   18  O   UNL     1      -9.290  16.059  65.528  1.00  0.00    -0.380 OA 
BRANCH  16  19
HETATM   19  C   UNL     1     -11.280  14.940  64.717  1.00  0.00    -0.386 C  
BRANCH  19  20
HETATM   20  N   UNL     1     -10.390  13.859  64.280  1.00  0.00    -0.679 NA 
HETATM   21  H   UNL     1      -9.760  13.585  65.034  1.00  0.00     0.000 HD 
BRANCH  20  22
HETATM   22  C   UNL     1     -11.102  12.690  63.746  1.00  0.00    -0.453 C  
HETATM   23  C   UNL     1     -10.163  11.515  63.441  1.00  0.00    -0.462 C  
HETATM   24  C   UNL     1     -12.131  12.250  64.787  1.00  0.00    -0.436 C  
ENDBRANCH  20  22
ENDBRANCH  19  20
ENDBRANCH  16  19
ENDBRANCH  15  16
ENDBRANCH  14  15
ENDBRANCH  11  14
BRANCH  12  25
HETATM   25  C   UNL     1      -8.353  11.438  67.156  1.00  0.00    -0.155 C  
HETATM   26  C   UNL     1      -7.023  12.058  67.490  1.00  0.00    -0.130 C  
HETATM   27  O   UNL     1      -8.482  10.758  66.137  1.00  0.00    -0.156 OA 
ENDBRANCH  12  25
ENDBRANCH   6   8
ENDBRANCH   3   4
ENDBRANCH   2   3
TORSDOF 10
ENDMDL
MODEL       62
REMARK 921   NORMALIZED FREE ENERGY PREDICTED BY IDOCK:   -4.95 KCAL/MOL
REMARK 922        TOTAL FREE ENERGY PREDICTED BY IDOCK:   -8.87 KCAL/MOL
REMARK 923 INTER-LIGAND FREE ENERGY PREDICTED BY IDOCK:   -8.02 KCAL/MOL
REMARK 924 INTRA-LIGAND FREE ENERGY PREDICTED BY IDOCK:   -0.85 KCAL/MOL
REMARK 927      BINDING AFFINITY PREDICTED BY RF-SCORE:    0.00 PKD
ROOT
HETATM    1  C   UNL     1     -14.082   8.352  71.860  1.00  0.00    -0.516 C  
HETATM    2  C   UNL     1     -12.899   9.273  72.103  1.00  0.00    -0.485 C  
ENDROOT
BRANCH   2   3
HETATM    3  C   UNL     1     -11.693   8.853  71.272  1.00  0.00    -0.370 C  
BRANCH   3   4
HETATM    4  C   UNL     1     -11.143  10.030  70.499  1.00  0.00    -0.331 C  
HETATM    5  O   UNL     1      -9.951  10.071  70.207  1.00  0.00    -0.244 OA 
HETATM    6  N   UNL     1     -12.112  10.957  70.142  1.00  0.00    -0.320 N  
HETATM    7  H   UNL     1     -13.073  10.759  70.424  1.00  0.00     0.000 HD 
BRANCH   6   8
HETATM    8  C   UNL     1     -11.886  12.150  69.423  1.00  0.00    -0.309 A  
HETATM    9  C   UNL     1     -11.830  13.401  70.030  1.00  0.00    -0.364 A  
HETATM   10  C   UNL     1     -11.513  14.543  69.292  1.00  0.00    -0.322 A  
HETATM   11  C   UNL     1     -11.252  14.471  67.920  1.00  0.00    -0.295 A  
HETATM   12  C   UNL     1     -11.384  13.228  67.280  1.00  0.00    -0.347 A  
HETATM   13  C   UNL     1     -11.696  12.077  68.040  1.00  0.00    -0.398 A  
BRANCH  11  14
HETATM   14  O   UNL     1     -10.832  15.550  67.185  1.00  0.00    -0.316 OA 
BRANCH  14  15
HETATM   15  C   UNL     1     -10.459  16.732  67.913  1.00  0.00    -0.335 C  
BRANCH  15  16
HETATM   16  C   UNL     1      -8.984  17.057  67.640  1.00  0.00    -0.221 C  
HETATM   17  H   UNL     1      -7.532  16.283  66.570  1.00  0.00     0.000 HD 
HETATM   18  O   UNL     1      -8.444  16.081  66.739  1.00  0.00    -0.207 OA 
BRANCH  16  19
HETATM   19  C   UNL     1      -8.788  18.461  67.030  1.00  0.00    -0.271 C  
BRANCH  19  20
HETATM   20  N   UNL     1      -8.008  18.420  65.789  1.00  0.00    -0.493 NA 
HETATM   21  H   UNL     1      -8.544  18.811  65.014  1.00  0.00     0.000 HD 
BRANCH  20  22
HETATM   22  C   UNL     1      -6.697  19.075  65.894  1.00  0.00    -0.249 C  
HETATM   23  C   UNL     1      -6.408  20.015  64.716  1.00  0.00    -0.318 C  
HETATM   24  C   UNL     1      -6.677  19.881  67.194  1.00  0.00    -0.235 C  
ENDBRANCH  20  22
ENDBRANCH  19  20
ENDBRANCH  16  19
ENDBRANCH  15  16
ENDBRANCH  14  15
ENDBRANCH  11  14
BRANCH  12  25
HETATM   25  C   UNL     1     -11.157  13.003  65.821  1.00  0.00    -0.278 C  
HETATM   26  C   UNL     1     -12.308  12.852  64.863  1.00  0.00    -0.532 C  
HETATM   27  O   UNL     1      -9.998  12.897  65.417  1.00  0.00    -0.266 OA 
ENDBRANCH  12  25
ENDBRANCH   6   8
ENDBRANCH   3   4
ENDBRANCH   2   3
TORSDOF 10
ENDMDL
MODEL       63
REMARK 921   NORMALIZED FREE ENERGY PREDICTED BY IDOCK:   -4.93 KCAL/MOL
REMARK 922        TOTAL FREE ENERGY PREDICTED BY IDOCK:   -8.84 KCAL/MOL
REMARK 923 INTER-LIGAND FREE ENERGY PREDICTED BY IDOCK:   -7.24 KCAL/MOL
REMARK 924 INTRA-LIGAND FREE ENERGY PREDICTED BY IDOCK:   -1.60 KCAL/MOL
REMARK 927      BINDING AFFINITY PREDICTED BY RF-SCORE:    0.00 PKD
ROOT
HETATM    1  C   UNL     1     -12.015  12.591  63.696  1.00  0.00    -0.621 C  
HETATM    2  C   UNL     1     -12.619  12.819  65.070  1.00  0.00    -0.538 C  
ENDROOT
BRANCH   2   3
HETATM    3  C   UNL     1     -11.872  13.908  65.828  1.00  0.00    -0.393 C  
BRANCH   3   4
HETATM    4  C   UNL     1     -11.542  13.451  67.230  1.00  0.00    -0.360 C  
HETATM    5  O   UNL     1     -11.090  14.249  68.048  1.00  0.00    -0.255 OA 
HETATM    6  N   UNL     1     -11.852  12.118  67.464  1.00  0.00    -0.305 N  
HETATM    7  H   UNL     1     -12.263  11.594  66.691  1.00  0.00     0.000 HD 
BRANCH   6   8
HETATM    8  C   UNL     1     -11.647  11.425  68.676  1.00  0.00    -0.320 A  
HETATM    9  C   UNL     1     -12.498  11.543  69.769  1.00  0.00    -0.122 A  
HETATM   10  C   UNL     1     -12.307  10.769  70.915  1.00  0.00    -0.497 A  
HETATM   11  C   UNL     1     -11.250   9.858  71.007  1.00  0.00    -0.364 A  
HETATM   12  C   UNL     1     -10.337   9.787  69.943  1.00  0.00    -0.291 A  
HETATM   13  C   UNL     1     -10.546  10.570  68.784  1.00  0.00    -0.233 A  
BRANCH  11  14
HETATM   14  O   UNL     1     -11.094   9.004  72.068  1.00  0.00    -0.364 OA 
BRANCH  14  15
HETATM   15  C   UNL     1     -12.237   8.219  72.449  1.00  0.00    -0.352 C  
BRANCH  15  16
HETATM   16  C   UNL     1     -12.078   6.790  71.911  1.00  0.00    -0.334 C  
HETATM   17  H   UNL     1     -12.137   5.918  70.152  1.00  0.00     0.000 HD 
HETATM   18  O   UNL     1     -12.236   6.802  70.486  1.00  0.00    -0.363 OA 
BRANCH  16  19
HETATM   19  C   UNL     1     -10.706   6.174  72.255  1.00  0.00    -0.229 C  
BRANCH  19  20
HETATM   20  N   UNL     1     -10.261   6.533  73.605  1.00  0.00    -0.256 NA 
HETATM   21  H   UNL     1     -10.666   5.902  74.297  1.00  0.00     0.000 HD 
BRANCH  20  22
HETATM   22  C   UNL     1      -8.800   6.592  73.749  1.00  0.00    -0.127 C  
HETATM   23  C   UNL     1      -8.062   6.045  72.518  1.00  0.00    -0.105 C  
HETATM   24  C   UNL     1      -8.407   8.055  73.959  1.00  0.00    -0.323 C  
ENDBRANCH  20  22
ENDBRANCH  19  20
ENDBRANCH  16  19
ENDBRANCH  15  16
ENDBRANCH  14  15
ENDBRANCH  11  14
BRANCH  12  25
HETATM   25  C   UNL     1      -9.151   8.878  69.909  1.00  0.00    -0.161 C  
HETATM   26  C   UNL     1      -7.861   9.248  70.590  1.00  0.00    -0.181 C  
HETATM   27  O   UNL     1      -9.235   7.829  69.269  1.00  0.00    -0.146 OA 
ENDBRANCH  12  25
ENDBRANCH   6   8
ENDBRANCH   3   4
ENDBRANCH   2   3
TORSDOF 10
ENDMDL
MODEL       64
REMARK 921   NORMALIZED FREE ENERGY PREDICTED BY IDOCK:   -4.90 KCAL/MOL
REMARK 922        TOTAL FREE ENERGY PREDICTED BY IDOCK:   -8.79 KCAL/MOL
REMARK 923 INTER-LIGAND FREE ENERGY PREDICTED BY IDOCK:   -7.92 KCAL/MOL
REMARK 924 INTRA-LIGAND FREE ENERGY PREDICTED BY IDOCK:   -0.87 KCAL/MOL
REMARK 927      BINDING AFFINITY PREDICTED BY RF-SCORE:    0.00 PKD
ROOT
HETATM    1  C   UNL     1     -11.116  16.688  64.904  1.00  0.00    -0.137 C  
HETATM    2  C   UNL     1     -10.664  15.247  64.744  1.00  0.00    -0.342 C  
ENDROOT
BRANCH   2   3
HETATM    3  C   UNL     1     -11.809  14.358  64.277  1.00  0.00    -0.385 C  
BRANCH   3   4
HETATM    4  C   UNL     1     -12.077  13.261  65.281  1.00  0.00    -0.418 C  
HETATM    5  O   UNL     1     -12.974  12.448  65.080  1.00  0.00    -0.705 OA 
HETATM    6  N   UNL     1     -11.194  13.266  66.352  1.00  0.00    -0.296 N  
HETATM    7  H   UNL     1     -10.470  13.985  66.356  1.00  0.00     0.000 HD 
BRANCH   6   8
HETATM    8  C   UNL     1     -11.210  12.363  67.437  1.00  0.00    -0.297 A  
HETATM    9  C   UNL     1     -11.793  12.664  68.664  1.00  0.00    -0.342 A  
HETATM   10  C   UNL     1     -11.865  11.708  69.678  1.00  0.00    -0.419 A  
HETATM   11  C   UNL     1     -11.345  10.422  69.500  1.00  0.00    -0.265 A  
HETATM   12  C   UNL     1     -10.682  10.130  68.297  1.00  0.00    -0.277 A  
HETATM   13  C   UNL     1     -10.624  11.105  67.274  1.00  0.00    -0.279 A  
BRANCH  11  14
HETATM   14  O   UNL     1     -11.494   9.424  70.429  1.00  0.00    -0.256 OA 
BRANCH  14  15
HETATM   15  C   UNL     1     -12.336   9.704  71.561  1.00  0.00    -0.390 C  
BRANCH  15  16
HETATM   16  C   UNL     1     -12.892   8.388  72.122  1.00  0.00    -0.346 C  
HETATM   17  H   UNL     1     -14.588   7.404  72.025  1.00  0.00     0.000 HD 
HETATM   18  O   UNL     1     -14.244   8.219  71.678  1.00  0.00    -0.415 OA 
BRANCH  16  19
HETATM   19  C   UNL     1     -12.066   7.160  71.687  1.00  0.00    -0.336 C  
BRANCH  19  20
HETATM   20  N   UNL     1     -12.262   6.015  72.583  1.00  0.00    -0.536 NA 
HETATM   21  H   UNL     1     -13.015   5.418  72.243  1.00  0.00     0.000 HD 
BRANCH  20  22
HETATM   22  C   UNL     1     -11.041   5.231  72.813  1.00  0.00    -0.286 C  
HETATM   23  C   UNL     1      -9.996   5.424  71.705  1.00  0.00    -0.239 C  
HETATM   24  C   UNL     1     -10.442   5.676  74.148  1.00  0.00    -0.281 C  
ENDBRANCH  20  22
ENDBRANCH  19  20
ENDBRANCH  16  19
ENDBRANCH  15  16
ENDBRANCH  14  15
ENDBRANCH  11  14
BRANCH  12  25
HETATM   25  C   UNL     1     -10.061   8.810  67.975  1.00  0.00    -0.196 C  
HETATM   26  C   UNL     1     -10.765   7.804  67.105  1.00  0.00    -0.337 C  
HETATM   27  O   UNL     1      -8.970   8.538  68.477  1.00  0.00    -0.139 OA 
ENDBRANCH  12  25
ENDBRANCH   6   8
ENDBRANCH   3   4
ENDBRANCH   2   3
TORSDOF 10
ENDMDL
MODEL       65
REMARK 921   NORMALIZED FREE ENERGY PREDICTED BY IDOCK:   -4.89 KCAL/MOL
REMARK 922        TOTAL FREE ENERGY PREDICTED BY IDOCK:   -8.78 KCAL/MOL
REMARK 923 INTER-LIGAND FREE ENERGY PREDICTED BY IDOCK:   -7.69 KCAL/MOL
REMARK 924 INTRA-LIGAND FREE ENERGY PREDICTED BY IDOCK:   -1.09 KCAL/MOL
REMARK 927      BINDING AFFINITY PREDICTED BY RF-SCORE:    0.00 PKD
ROOT
HETATM    1  C   UNL     1     -11.173   5.791  72.183  1.00  0.00    -0.327 C  
HETATM    2  C   UNL     1      -9.781   5.682  71.584  1.00  0.00    -0.196 C  
ENDROOT
BRANCH   2   3
HETATM    3  C   UNL     1      -9.698   6.398  70.243  1.00  0.00    -0.186 C  
BRANCH   3   4
HETATM    4  C   UNL     1      -9.911   7.884  70.418  1.00  0.00    -0.192 C  
HETATM    5  O   UNL     1      -9.169   8.530  71.153  1.00  0.00    -0.164 OA 
HETATM    6  N   UNL     1     -10.948   8.388  69.644  1.00  0.00    -0.414 N  
HETATM    7  H   UNL     1     -11.448   7.728  69.048  1.00  0.00     0.000 HD 
BRANCH   6   8
HETATM    8  C   UNL     1     -11.371   9.734  69.610  1.00  0.00    -0.122 A  
HETATM    9  C   UNL     1     -12.044  10.343  70.665  1.00  0.00    -0.443 A  
HETATM   10  C   UNL     1     -12.363  11.702  70.624  1.00  0.00    -0.437 A  
HETATM   11  C   UNL     1     -12.028  12.492  69.519  1.00  0.00    -0.266 A  
HETATM   12  C   UNL     1     -11.422  11.872  68.415  1.00  0.00    -0.357 A  
HETATM   13  C   UNL     1     -11.096  10.497  68.473  1.00  0.00    -0.329 A  
BRANCH  11  14
HETATM   14  O   UNL     1     -12.227  13.849  69.488  1.00  0.00    -0.336 OA 
BRANCH  14  15
HETATM   15  C   UNL     1     -12.695  14.469  70.697  1.00  0.00    -0.360 C  
BRANCH  15  16
HETATM   16  C   UNL     1     -12.114  15.886  70.803  1.00  0.00    -0.355 C  
HETATM   17  H   UNL     1     -11.435  17.041  72.238  1.00  0.00     0.000 HD 
HETATM   18  O   UNL     1     -11.795  16.165  72.172  1.00  0.00    -0.483 OA 
BRANCH  16  19
HETATM   19  C   UNL     1     -10.843  16.073  69.948  1.00  0.00    -0.351 C  
BRANCH  19  20
HETATM   20  N   UNL     1     -11.149  16.587  68.609  1.00  0.00    -0.347 NA 
HETATM   21  H   UNL     1     -11.975  17.184  68.632  1.00  0.00     0.000 HD 
BRANCH  20  22
HETATM   22  C   UNL     1     -10.022  17.285  67.974  1.00  0.00    -0.304 C  
HETATM   23  C   UNL     1      -9.994  17.101  66.450  1.00  0.00    -0.315 C  
HETATM   24  C   UNL     1     -10.150  18.774  68.296  1.00  0.00    -0.431 C  
ENDBRANCH  20  22
ENDBRANCH  19  20
ENDBRANCH  16  19
ENDBRANCH  15  16
ENDBRANCH  14  15
ENDBRANCH  11  14
BRANCH  12  25
HETATM   25  C   UNL     1     -11.028  12.583  67.161  1.00  0.00    -0.263 C  
HETATM   26  C   UNL     1     -12.033  12.886  66.082  1.00  0.00    -0.491 C  
HETATM   27  O   UNL     1      -9.843  12.881  67.004  1.00  0.00    -0.224 OA 
ENDBRANCH  12  25
ENDBRANCH   6   8
ENDBRANCH   3   4
ENDBRANCH   2   3
TORSDOF 10
ENDMDL
MODEL       66
REMARK 921   NORMALIZED FREE ENERGY PREDICTED BY IDOCK:   -4.87 KCAL/MOL
REMARK 922        TOTAL FREE ENERGY PREDICTED BY IDOCK:   -8.75 KCAL/MOL
REMARK 923 INTER-LIGAND FREE ENERGY PREDICTED BY IDOCK:   -7.51 KCAL/MOL
REMARK 924 INTRA-LIGAND FREE ENERGY PREDICTED BY IDOCK:   -1.24 KCAL/MOL
REMARK 927      BINDING AFFINITY PREDICTED BY RF-SCORE:    0.00 PKD
ROOT
HETATM    1  C   UNL     1     -12.278  12.279  63.475  1.00  0.00    -0.669 C  
HETATM    2  C   UNL     1     -12.496  12.643  64.933  1.00  0.00    -0.564 C  
ENDROOT
BRANCH   2   3
HETATM    3  C   UNL     1     -11.262  13.310  65.527  1.00  0.00    -0.307 C  
BRANCH   3   4
HETATM    4  C   UNL     1     -11.014  12.817  66.933  1.00  0.00    -0.260 C  
HETATM    5  O   UNL     1     -10.547  13.576  67.778  1.00  0.00    -0.240 OA 
HETATM    6  N   UNL     1     -11.411  11.502  67.135  1.00  0.00    -0.285 N  
HETATM    7  H   UNL     1     -11.823  11.013  66.341  1.00  0.00     0.000 HD 
BRANCH   6   8
HETATM    8  C   UNL     1     -11.295  10.783  68.344  1.00  0.00    -0.302 A  
HETATM    9  C   UNL     1     -10.309   9.825  68.564  1.00  0.00    -0.228 A  
HETATM   10  C   UNL     1     -10.177   9.205  69.807  1.00  0.00    -0.219 A  
HETATM   11  C   UNL     1     -11.035   9.514  70.867  1.00  0.00    -0.337 A  
HETATM   12  C   UNL     1     -12.083  10.419  70.635  1.00  0.00    -0.443 A  
HETATM   13  C   UNL     1     -12.201  11.048  69.374  1.00  0.00    -0.329 A  
BRANCH  11  14
HETATM   14  O   UNL     1     -10.868   9.008  72.131  1.00  0.00    -0.337 OA 
BRANCH  14  15
HETATM   15  C   UNL     1     -10.623   7.596  72.243  1.00  0.00    -0.246 C  
BRANCH  15  16
HETATM   16  C   UNL     1     -10.123   7.274  73.658  1.00  0.00    -0.340 C  
HETATM   17  H   UNL     1      -9.984   5.675  74.789  1.00  0.00     0.000 HD 
HETATM   18  O   UNL     1     -10.294   5.874  73.913  1.00  0.00    -0.234 OA 
BRANCH  16  19
HETATM   19  C   UNL     1      -8.638   7.640  73.862  1.00  0.00    -0.237 C  
BRANCH  19  20
HETATM   20  N   UNL     1      -8.153   8.575  72.841  1.00  0.00    -0.382 NA 
HETATM   21  H   UNL     1      -8.029   9.506  73.237  1.00  0.00     0.000 HD 
BRANCH  20  22
HETATM   22  C   UNL     1      -6.925   8.129  72.168  1.00  0.00    -0.083 C  
HETATM   23  C   UNL     1      -7.113   6.809  71.408  1.00  0.00    -0.075 C  
HETATM   24  C   UNL     1      -6.508   9.220  71.181  1.00  0.00    -0.083 C  
ENDBRANCH  20  22
ENDBRANCH  19  20
ENDBRANCH  16  19
ENDBRANCH  15  16
ENDBRANCH  14  15
ENDBRANCH  11  14
BRANCH  12  25
HETATM   25  C   UNL     1     -13.086  10.828  71.665  1.00  0.00    -0.446 C  
HETATM   26  C   UNL     1     -13.286  12.274  72.032  1.00  0.00    -0.508 C  
HETATM   27  O   UNL     1     -13.721   9.948  72.247  1.00  0.00    -0.356 OA 
ENDBRANCH  12  25
ENDBRANCH   6   8
ENDBRANCH   3   4
ENDBRANCH   2   3
TORSDOF 10
ENDMDL
MODEL       67
REMARK 921   NORMALIZED FREE ENERGY PREDICTED BY IDOCK:   -4.87 KCAL/MOL
REMARK 922        TOTAL FREE ENERGY PREDICTED BY IDOCK:   -8.75 KCAL/MOL
REMARK 923 INTER-LIGAND FREE ENERGY PREDICTED BY IDOCK:   -7.86 KCAL/MOL
REMARK 924 INTRA-LIGAND FREE ENERGY PREDICTED BY IDOCK:   -0.88 KCAL/MOL
REMARK 927      BINDING AFFINITY PREDICTED BY RF-SCORE:    0.00 PKD
ROOT
HETATM    1  C   UNL     1     -13.231  15.846  73.080  1.00  0.00    -0.692 C  
HETATM    2  C   UNL     1     -12.180  15.902  71.986  1.00  0.00    -0.570 C  
ENDROOT
BRANCH   2   3
HETATM    3  C   UNL     1     -12.783  15.580  70.624  1.00  0.00    -0.487 C  
BRANCH   3   4
HETATM    4  C   UNL     1     -11.819  14.764  69.794  1.00  0.00    -0.316 C  
HETATM    5  O   UNL     1     -10.615  15.001  69.837  1.00  0.00    -0.239 OA 
HETATM    6  N   UNL     1     -12.434  13.747  69.077  1.00  0.00    -0.310 N  
HETATM    7  H   UNL     1     -13.444  13.650  69.179  1.00  0.00     0.000 HD 
BRANCH   6   8
HETATM    8  C   UNL     1     -11.783  12.835  68.217  1.00  0.00    -0.344 A  
HETATM    9  C   UNL     1     -11.176  11.668  68.671  1.00  0.00    -0.308 A  
HETATM   10  C   UNL     1     -10.624  10.751  67.775  1.00  0.00    -0.266 A  
HETATM   11  C   UNL     1     -10.653  10.979  66.395  1.00  0.00    -0.251 A  
HETATM   12  C   UNL     1     -11.190  12.190  65.930  1.00  0.00    -0.384 A  
HETATM   13  C   UNL     1     -11.754  13.106  66.847  1.00  0.00    -0.441 A  
BRANCH  11  14
HETATM   14  O   UNL     1     -10.220  10.054  65.480  1.00  0.00    -0.280 OA 
BRANCH  14  15
HETATM   15  C   UNL     1      -8.908   9.501  65.678  1.00  0.00    -0.161 C  
BRANCH  15  16
HETATM   16  C   UNL     1      -9.011   7.975  65.808  1.00  0.00    -0.102 C  
HETATM   17  H   UNL     1      -8.259   6.415  64.883  1.00  0.00     0.000 HD 
HETATM   18  O   UNL     1      -8.196   7.359  64.802  1.00  0.00    -0.126 OA 
BRANCH  16  19
HETATM   19  C   UNL     1      -8.562   7.465  67.193  1.00  0.00    -0.118 C  
BRANCH  19  20
HETATM   20  N   UNL     1      -9.651   7.500  68.175  1.00  0.00    -0.146 NA 
HETATM   21  H   UNL     1     -10.166   8.377  68.109  1.00  0.00     0.000 HD 
BRANCH  20  22
HETATM   22  C   UNL     1     -10.564   6.353  68.085  1.00  0.00    -0.255 C  
HETATM   23  C   UNL     1      -9.835   5.039  67.771  1.00  0.00    -0.199 C  
HETATM   24  C   UNL     1     -11.284   6.218  69.427  1.00  0.00    -0.489 C  
ENDBRANCH  20  22
ENDBRANCH  19  20
ENDBRANCH  16  19
ENDBRANCH  15  16
ENDBRANCH  14  15
ENDBRANCH  11  14
BRANCH  12  25
HETATM   25  C   UNL     1     -11.269  12.578  64.489  1.00  0.00    -0.325 C  
HETATM   26  C   UNL     1     -12.457  12.209  63.641  1.00  0.00    -0.658 C  
HETATM   27  O   UNL     1     -10.313  13.173  63.989  1.00  0.00    -0.396 OA 
ENDBRANCH  12  25
ENDBRANCH   6   8
ENDBRANCH   3   4
ENDBRANCH   2   3
TORSDOF 10
ENDMDL
MODEL       68
REMARK 921   NORMALIZED FREE ENERGY PREDICTED BY IDOCK:   -4.86 KCAL/MOL
REMARK 922        TOTAL FREE ENERGY PREDICTED BY IDOCK:   -8.73 KCAL/MOL
REMARK 923 INTER-LIGAND FREE ENERGY PREDICTED BY IDOCK:   -7.71 KCAL/MOL
REMARK 924 INTRA-LIGAND FREE ENERGY PREDICTED BY IDOCK:   -1.02 KCAL/MOL
REMARK 927      BINDING AFFINITY PREDICTED BY RF-SCORE:    0.00 PKD
ROOT
HETATM    1  C   UNL     1      -9.234   5.384  73.938  1.00  0.00    -0.122 C  
HETATM    2  C   UNL     1      -9.701   6.260  72.789  1.00  0.00    -0.162 C  
ENDROOT
BRANCH   2   3
HETATM    3  C   UNL     1     -11.163   5.995  72.452  1.00  0.00    -0.338 C  
BRANCH   3   4
HETATM    4  C   UNL     1     -11.685   7.038  71.491  1.00  0.00    -0.300 C  
HETATM    5  O   UNL     1     -12.854   6.998  71.115  1.00  0.00    -0.374 OA 
HETATM    6  N   UNL     1     -10.747   8.007  71.163  1.00  0.00    -0.217 N  
HETATM    7  H   UNL     1      -9.825   7.926  71.593  1.00  0.00     0.000 HD 
BRANCH   6   8
HETATM    8  C   UNL     1     -10.956   9.094  70.288  1.00  0.00    -0.245 A  
HETATM    9  C   UNL     1     -10.665   9.037  68.928  1.00  0.00    -0.149 A  
HETATM   10  C   UNL     1     -10.973  10.106  68.084  1.00  0.00    -0.313 A  
HETATM   11  C   UNL     1     -11.572  11.270  68.576  1.00  0.00    -0.315 A  
HETATM   12  C   UNL     1     -11.796  11.371  69.958  1.00  0.00    -0.440 A  
HETATM   13  C   UNL     1     -11.489  10.279  70.802  1.00  0.00    -0.438 A  
BRANCH  11  14
HETATM   14  O   UNL     1     -11.988  12.293  67.763  1.00  0.00    -0.474 OA 
BRANCH  14  15
HETATM   15  C   UNL     1     -11.630  12.211  66.373  1.00  0.00    -0.364 C  
BRANCH  15  16
HETATM   16  C   UNL     1     -11.865  13.572  65.704  1.00  0.00    -0.369 C  
HETATM   17  H   UNL     1     -13.376  14.500  64.861  1.00  0.00     0.000 HD 
HETATM   18  O   UNL     1     -13.230  13.658  65.274  1.00  0.00    -0.724 OA 
BRANCH  16  19
HETATM   19  C   UNL     1     -11.563  14.758  66.644  1.00  0.00    -0.313 C  
BRANCH  19  20
HETATM   20  N   UNL     1     -10.221  14.673  67.229  1.00  0.00    -0.240 NA 
HETATM   21  H   UNL     1      -9.589  14.171  66.606  1.00  0.00     0.000 HD 
BRANCH  20  22
HETATM   22  C   UNL     1      -9.656  15.977  67.600  1.00  0.00    -0.218 C  
HETATM   23  C   UNL     1     -10.713  16.944  68.151  1.00  0.00    -0.375 C  
HETATM   24  C   UNL     1      -8.590  15.740  68.670  1.00  0.00    -0.194 C  
ENDBRANCH  20  22
ENDBRANCH  19  20
ENDBRANCH  16  19
ENDBRANCH  15  16
ENDBRANCH  14  15
ENDBRANCH  11  14
BRANCH  12  25
HETATM   25  C   UNL     1     -12.408  12.559  70.627  1.00  0.00    -0.282 C  
HETATM   26  C   UNL     1     -11.958  13.959  70.305  1.00  0.00    -0.401 C  
HETATM   27  O   UNL     1     -13.266  12.368  71.491  1.00  0.00    -0.345 OA 
ENDBRANCH  12  25
ENDBRANCH   6   8
ENDBRANCH   3   4
ENDBRANCH   2   3
TORSDOF 10
ENDMDL
MODEL       69
REMARK 921   NORMALIZED FREE ENERGY PREDICTED BY IDOCK:   -4.83 KCAL/MOL
REMARK 922        TOTAL FREE ENERGY PREDICTED BY IDOCK:   -8.68 KCAL/MOL
REMARK 923 INTER-LIGAND FREE ENERGY PREDICTED BY IDOCK:   -7.19 KCAL/MOL
REMARK 924 INTRA-LIGAND FREE ENERGY PREDICTED BY IDOCK:   -1.50 KCAL/MOL
REMARK 927      BINDING AFFINITY PREDICTED BY RF-SCORE:    0.00 PKD
ROOT
HETATM    1  C   UNL     1      -6.641   5.774  66.730  1.00  0.00    -0.056 C  
HETATM    2  C   UNL     1      -7.895   6.455  67.248  1.00  0.00    -0.105 C  
ENDROOT
BRANCH   2   3
HETATM    3  C   UNL     1      -8.736   7.010  66.106  1.00  0.00    -0.155 C  
BRANCH   3   4
HETATM    4  C   UNL     1      -9.833   7.904  66.636  1.00  0.00    -0.241 C  
HETATM    5  O   UNL     1     -10.948   7.442  66.860  1.00  0.00    -0.324 OA 
HETATM    6  N   UNL     1      -9.418   9.207  66.871  1.00  0.00    -0.161 N  
HETATM    7  H   UNL     1      -8.441   9.428  66.673  1.00  0.00     0.000 HD 
BRANCH   6   8
HETATM    8  C   UNL     1     -10.228  10.254  67.360  1.00  0.00    -0.218 A  
HETATM    9  C   UNL     1     -10.452  10.469  68.716  1.00  0.00    -0.216 A  
HETATM   10  C   UNL     1     -11.186  11.571  69.157  1.00  0.00    -0.337 A  
HETATM   11  C   UNL     1     -11.729  12.489  68.252  1.00  0.00    -0.340 A  
HETATM   12  C   UNL     1     -11.579  12.240  66.879  1.00  0.00    -0.427 A  
HETATM   13  C   UNL     1     -10.826  11.125  66.445  1.00  0.00    -0.284 A  
BRANCH  11  14
HETATM   14  O   UNL     1     -12.361  13.640  68.650  1.00  0.00    -0.258 OA 
BRANCH  14  15
HETATM   15  C   UNL     1     -12.565  13.820  70.061  1.00  0.00    -0.147 C  
BRANCH  15  16
HETATM   16  C   UNL     1     -12.737  15.315  70.366  1.00  0.00    -0.356 C  
HETATM   17  H   UNL     1     -13.476  16.392  71.832  1.00  0.00     0.000 HD 
HETATM   18  O   UNL     1     -13.370  15.467  71.643  1.00  0.00    -0.422 OA 
BRANCH  16  19
HETATM   19  C   UNL     1     -11.395  16.076  70.381  1.00  0.00    -0.391 C  
BRANCH  19  20
HETATM   20  N   UNL     1     -10.254  15.192  70.121  1.00  0.00    -0.509 NA 
HETATM   21  H   UNL     1     -10.573  14.250  69.896  1.00  0.00     0.000 HD 
BRANCH  20  22
HETATM   22  C   UNL     1      -9.344  15.695  69.082  1.00  0.00    -0.252 C  
HETATM   23  C   UNL     1      -8.814  14.580  68.170  1.00  0.00    -0.177 C  
HETATM   24  C   UNL     1     -10.112  16.711  68.235  1.00  0.00    -0.268 C  
ENDBRANCH  20  22
ENDBRANCH  19  20
ENDBRANCH  16  19
ENDBRANCH  15  16
ENDBRANCH  14  15
ENDBRANCH  11  14
BRANCH  12  25
HETATM   25  C   UNL     1     -12.122  13.120  65.799  1.00  0.00    -0.447 C  
HETATM   26  C   UNL     1     -11.618  14.525  65.606  1.00  0.00    -0.344 C  
HETATM   27  O   UNL     1     -13.031  12.685  65.091  1.00  0.00    -0.754 OA 
ENDBRANCH  12  25
ENDBRANCH   6   8
ENDBRANCH   3   4
ENDBRANCH   2   3
TORSDOF 10
ENDMDL
MODEL       70
REMARK 921   NORMALIZED FREE ENERGY PREDICTED BY IDOCK:   -4.83 KCAL/MOL
REMARK 922        TOTAL FREE ENERGY PREDICTED BY IDOCK:   -8.68 KCAL/MOL
REMARK 923 INTER-LIGAND FREE ENERGY PREDICTED BY IDOCK:   -7.23 KCAL/MOL
REMARK 924 INTRA-LIGAND FREE ENERGY PREDICTED BY IDOCK:   -1.45 KCAL/MOL
REMARK 927      BINDING AFFINITY PREDICTED BY RF-SCORE:    0.00 PKD
ROOT
HETATM    1  C   UNL     1      -9.601   8.004  66.876  1.00  0.00    -0.265 C  
HETATM    2  C   UNL     1      -9.915   9.257  67.676  1.00  0.00    -0.245 C  
ENDROOT
BRANCH   2   3
HETATM    3  C   UNL     1     -10.947  10.122  66.965  1.00  0.00    -0.162 C  
BRANCH   3   4
HETATM    4  C   UNL     1     -10.306  11.377  66.420  1.00  0.00    -0.242 C  
HETATM    5  O   UNL     1      -9.353  11.296  65.649  1.00  0.00    -0.216 OA 
HETATM    6  N   UNL     1     -10.934  12.543  66.835  1.00  0.00    -0.249 N  
HETATM    7  H   UNL     1     -11.745  12.443  67.446  1.00  0.00     0.000 HD 
BRANCH   6   8
HETATM    8  C   UNL     1     -10.549  13.856  66.486  1.00  0.00    -0.279 A  
HETATM    9  C   UNL     1     -11.175  14.587  65.481  1.00  0.00    -0.335 A  
HETATM   10  C   UNL     1     -10.821  15.914  65.232  1.00  0.00    -0.401 A  
HETATM   11  C   UNL     1      -9.819  16.548  65.974  1.00  0.00    -0.322 A  
HETATM   12  C   UNL     1      -9.124  15.798  66.935  1.00  0.00    -0.259 A  
HETATM   13  C   UNL     1      -9.499  14.457  67.185  1.00  0.00    -0.225 A  
BRANCH  11  14
HETATM   14  O   UNL     1      -9.520  17.879  65.833  1.00  0.00    -0.522 OA 
BRANCH  14  15
HETATM   15  C   UNL     1     -10.581  18.818  66.077  1.00  0.00    -0.386 C  
BRANCH  15  16
HETATM   16  C   UNL     1     -10.113  19.863  67.099  1.00  0.00    -0.438 C  
HETATM   17  H   UNL     1     -10.139  20.053  69.053  1.00  0.00     0.000 HD 
HETATM   18  O   UNL     1     -10.429  19.406  68.420  1.00  0.00    -0.383 OA 
BRANCH  16  19
HETATM   19  C   UNL     1      -8.597  20.139  67.016  1.00  0.00    -0.336 C  
BRANCH  19  20
HETATM   20  N   UNL     1      -7.867  19.565  68.151  1.00  0.00    -0.304 NA 
HETATM   21  H   UNL     1      -7.984  18.552  68.178  1.00  0.00     0.000 HD 
BRANCH  20  22
HETATM   22  C   UNL     1      -6.443  19.924  68.179  1.00  0.00    -0.255 C  
HETATM   23  C   UNL     1      -6.150  21.241  67.446  1.00  0.00    -0.434 C  
HETATM   24  C   UNL     1      -6.021  20.062  69.642  1.00  0.00    -0.370 C  
ENDBRANCH  20  22
ENDBRANCH  19  20
ENDBRANCH  16  19
ENDBRANCH  15  16
ENDBRANCH  14  15
ENDBRANCH  11  14
BRANCH  12  25
HETATM   25  C   UNL     1      -8.020  16.335  67.787  1.00  0.00    -0.142 C  
HETATM   26  C   UNL     1      -6.580  16.237  67.357  1.00  0.00    -0.212 C  
HETATM   27  O   UNL     1      -8.307  16.824  68.880  1.00  0.00    -0.247 OA 
ENDBRANCH  12  25
ENDBRANCH   6   8
ENDBRANCH   3   4
ENDBRANCH   2   3
TORSDOF 10
ENDMDL
MODEL       71
REMARK 921   NORMALIZED FREE ENERGY PREDICTED BY IDOCK:   -4.83 KCAL/MOL
REMARK 922        TOTAL FREE ENERGY PREDICTED BY IDOCK:   -8.68 KCAL/MOL
REMARK 923 INTER-LIGAND FREE ENERGY PREDICTED BY IDOCK:   -7.70 KCAL/MOL
REMARK 924 INTRA-LIGAND FREE ENERGY PREDICTED BY IDOCK:   -0.98 KCAL/MOL
REMARK 927      BINDING AFFINITY PREDICTED BY RF-SCORE:    0.00 PKD
ROOT
HETATM    1  C   UNL     1     -10.564   5.864  67.825  1.00  0.00    -0.331 C  
HETATM    2  C   UNL     1     -10.762   7.295  67.359  1.00  0.00    -0.358 C  
ENDROOT
BRANCH   2   3
HETATM    3  C   UNL     1      -9.636   7.736  66.433  1.00  0.00    -0.235 C  
BRANCH   3   4
HETATM    4  C   UNL     1      -9.521   9.243  66.412  1.00  0.00    -0.218 C  
HETATM    5  O   UNL     1      -8.627   9.783  65.767  1.00  0.00    -0.129 OA 
HETATM    6  N   UNL     1     -10.528   9.883  67.123  1.00  0.00    -0.243 N  
HETATM    7  H   UNL     1     -11.227   9.292  67.573  1.00  0.00     0.000 HD 
BRANCH   6   8
HETATM    8  C   UNL     1     -10.667  11.279  67.277  1.00  0.00    -0.251 A  
HETATM    9  C   UNL     1     -10.055  11.992  68.302  1.00  0.00    -0.201 A  
HETATM   10  C   UNL     1     -10.147  13.384  68.362  1.00  0.00    -0.244 A  
HETATM   11  C   UNL     1     -10.866  14.105  67.403  1.00  0.00    -0.287 A  
HETATM   12  C   UNL     1     -11.555  13.392  66.410  1.00  0.00    -0.381 A  
HETATM   13  C   UNL     1     -11.446  11.983  66.354  1.00  0.00    -0.417 A  
BRANCH  11  14
HETATM   14  O   UNL     1     -10.888  15.476  67.367  1.00  0.00    -0.304 OA 
BRANCH  14  15
HETATM   15  C   UNL     1      -9.618  16.151  67.354  1.00  0.00    -0.229 C  
BRANCH  15  16
HETATM   16  C   UNL     1      -9.566  17.161  68.508  1.00  0.00    -0.288 C  
HETATM   17  H   UNL     1      -8.166  18.124  69.493  1.00  0.00     0.000 HD 
HETATM   18  O   UNL     1      -8.199  17.498  68.779  1.00  0.00    -0.273 OA 
BRANCH  16  19
HETATM   19  C   UNL     1     -10.346  18.456  68.201  1.00  0.00    -0.366 C  
BRANCH  19  20
HETATM   20  N   UNL     1      -9.462  19.620  68.077  1.00  0.00    -0.341 NA 
HETATM   21  H   UNL     1      -8.545  19.419  68.475  1.00  0.00     0.000 HD 
BRANCH  20  22
HETATM   22  C   UNL     1      -9.333  20.117  66.700  1.00  0.00    -0.368 C  
HETATM   23  C   UNL     1      -8.042  19.642  66.018  1.00  0.00    -0.322 C  
HETATM   24  C   UNL     1     -10.536  19.612  65.902  1.00  0.00    -0.591 C  
ENDBRANCH  20  22
ENDBRANCH  19  20
ENDBRANCH  16  19
ENDBRANCH  15  16
ENDBRANCH  14  15
ENDBRANCH  11  14
BRANCH  12  25
HETATM   25  C   UNL     1     -12.377  14.025  65.335  1.00  0.00    -0.478 C  
HETATM   26  C   UNL     1     -11.743  14.841  64.241  1.00  0.00    -0.272 C  
HETATM   27  O   UNL     1     -13.602  13.903  65.385  1.00  0.00    -0.571 OA 
ENDBRANCH  12  25
ENDBRANCH   6   8
ENDBRANCH   3   4
ENDBRANCH   2   3
TORSDOF 10
ENDMDL
MODEL       72
REMARK 921   NORMALIZED FREE ENERGY PREDICTED BY IDOCK:   -4.78 KCAL/MOL
REMARK 922        TOTAL FREE ENERGY PREDICTED BY IDOCK:   -8.61 KCAL/MOL
REMARK 923 INTER-LIGAND FREE ENERGY PREDICTED BY IDOCK:   -8.31 KCAL/MOL
REMARK 924 INTRA-LIGAND FREE ENERGY PREDICTED BY IDOCK:   -0.30 KCAL/MOL
REMARK 927      BINDING AFFINITY PREDICTED BY RF-SCORE:    0.00 PKD
ROOT
HETATM    1  C   UNL     1      -8.562   5.894  69.373  1.00  0.00    -0.113 C  
HETATM    2  C   UNL     1      -9.908   5.316  68.974  1.00  0.00    -0.235 C  
ENDROOT
BRANCH   2   3
HETATM    3  C   UNL     1     -11.022   6.340  69.147  1.00  0.00    -0.442 C  
BRANCH   3   4
HETATM    4  C   UNL     1     -10.983   7.364  68.035  1.00  0.00     0.032 C  
HETATM    5  O   UNL     1     -11.088   7.006  66.865  1.00  0.00    -0.359 OA 
HETATM    6  N   UNL     1     -10.878   8.671  68.492  1.00  0.00    -0.441 N  
HETATM    7  H   UNL     1     -10.843   8.810  69.502  1.00  0.00     0.000 HD 
BRANCH   6   8
HETATM    8  C   UNL     1     -10.816   9.824  67.681  1.00  0.00    -0.239 A  
HETATM    9  C   UNL     1     -11.339  11.053  68.071  1.00  0.00    -0.374 A  
HETATM   10  C   UNL     1     -11.174  12.188  67.275  1.00  0.00    -0.366 A  
HETATM   11  C   UNL     1     -10.490  12.126  66.057  1.00  0.00    -0.247 A  
HETATM   12  C   UNL     1     -10.027  10.877  65.614  1.00  0.00    -0.305 A  
HETATM   13  C   UNL     1     -10.193   9.736  66.433  1.00  0.00    -0.288 A  
BRANCH  11  14
HETATM   14  O   UNL     1     -10.213  13.238  65.302  1.00  0.00    -0.303 OA 
BRANCH  14  15
HETATM   15  C   UNL     1     -11.241  14.238  65.210  1.00  0.00    -0.337 C  
BRANCH  15  16
HETATM   16  C   UNL     1     -10.606  15.593  64.864  1.00  0.00    -0.316 C  
HETATM   17  H   UNL     1     -11.051  17.119  63.711  1.00  0.00     0.000 HD 
HETATM   18  O   UNL     1     -11.443  16.280  63.925  1.00  0.00    -0.940 OA 
BRANCH  16  19
HETATM   19  C   UNL     1     -10.405  16.489  66.103  1.00  0.00    -0.334 C  
BRANCH  19  20
HETATM   20  N   UNL     1     -10.492  17.916  65.774  1.00  0.00    -0.591 NA 
HETATM   21  H   UNL     1     -11.242  18.085  65.104  1.00  0.00     0.000 HD 
BRANCH  20  22
HETATM   22  C   UNL     1     -10.642  18.784  66.950  1.00  0.00    -0.409 C  
HETATM   23  C   UNL     1     -10.061  18.158  68.225  1.00  0.00    -0.398 C  
HETATM   24  C   UNL     1      -9.913  20.097  66.661  1.00  0.00    -0.595 C  
ENDBRANCH  20  22
ENDBRANCH  19  20
ENDBRANCH  16  19
ENDBRANCH  15  16
ENDBRANCH  14  15
ENDBRANCH  11  14
BRANCH  12  25
HETATM   25  C   UNL     1      -9.299  10.655  64.327  1.00  0.00    -0.258 C  
HETATM   26  C   UNL     1      -9.983  10.836  62.999  1.00  0.00    -0.291 C  
HETATM   27  O   UNL     1      -8.129  10.274  64.375  1.00  0.00    -0.163 OA 
ENDBRANCH  12  25
ENDBRANCH   6   8
ENDBRANCH   3   4
ENDBRANCH   2   3
TORSDOF 10
ENDMDL
MODEL       73
REMARK 921   NORMALIZED FREE ENERGY PREDICTED BY IDOCK:   -4.77 KCAL/MOL
REMARK 922        TOTAL FREE ENERGY PREDICTED BY IDOCK:   -8.60 KCAL/MOL
REMARK 923 INTER-LIGAND FREE ENERGY PREDICTED BY IDOCK:   -8.11 KCAL/MOL
REMARK 924 INTRA-LIGAND FREE ENERGY PREDICTED BY IDOCK:   -0.49 KCAL/MOL
REMARK 927      BINDING AFFINITY PREDICTED BY RF-SCORE:    0.00 PKD
ROOT
HETATM    1  C   UNL     1      -8.029   9.471  63.644  1.00  0.00    -0.141 C  
HETATM    2  C   UNL     1      -9.370  10.064  64.040  1.00  0.00    -0.324 C  
ENDROOT
BRANCH   2   3
HETATM    3  C   UNL     1      -9.893  11.014  62.970  1.00  0.00    -0.370 C  
BRANCH   3   4
HETATM    4  C   UNL     1     -10.602  12.190  63.601  1.00  0.00    -0.461 C  
HETATM    5  O   UNL     1     -11.636  12.625  63.102  1.00  0.00    -0.442 OA 
HETATM    6  N   UNL     1      -9.998  12.637  64.768  1.00  0.00    -0.491 N  
HETATM    7  H   UNL     1      -9.162  12.141  65.080  1.00  0.00     0.000 HD 
BRANCH   6   8
HETATM    8  C   UNL     1     -10.438  13.717  65.562  1.00  0.00    -0.318 A  
HETATM    9  C   UNL     1     -11.478  13.608  66.480  1.00  0.00    -0.357 A  
HETATM   10  C   UNL     1     -11.820  14.678  67.309  1.00  0.00    -0.375 A  
HETATM   11  C   UNL     1     -11.138  15.897  67.236  1.00  0.00    -0.172 A  
HETATM   12  C   UNL     1     -10.141  16.047  66.260  1.00  0.00    -0.329 A  
HETATM   13  C   UNL     1      -9.798  14.952  65.433  1.00  0.00    -0.303 A  
BRANCH  11  14
HETATM   14  O   UNL     1     -11.371  16.932  68.106  1.00  0.00    -0.217 OA 
BRANCH  14  15
HETATM   15  C   UNL     1     -10.587  16.964  69.310  1.00  0.00    -0.325 C  
BRANCH  15  16
HETATM   16  C   UNL     1     -10.850  15.689  70.124  1.00  0.00    -0.343 C  
HETATM   17  H   UNL     1      -9.759  14.309  70.997  1.00  0.00     0.000 HD 
HETATM   18  O   UNL     1      -9.597  15.098  70.493  1.00  0.00     0.318 OA 
BRANCH  16  19
HETATM   19  C   UNL     1     -11.669  15.958  71.404  1.00  0.00    -0.467 C  
BRANCH  19  20
HETATM   20  N   UNL     1     -11.809  14.758  72.234  1.00  0.00    -0.264 NA 
HETATM   21  H   UNL     1     -11.294  14.863  73.108  1.00  0.00     0.000 HD 
BRANCH  20  22
HETATM   22  C   UNL     1     -13.205  14.381  72.497  1.00  0.00    -0.469 C  
HETATM   23  C   UNL     1     -14.201  15.163  71.629  1.00  0.00    -0.664 C  
HETATM   24  C   UNL     1     -13.352  12.888  72.205  1.00  0.00    -0.615 C  
ENDBRANCH  20  22
ENDBRANCH  19  20
ENDBRANCH  16  19
ENDBRANCH  15  16
ENDBRANCH  14  15
ENDBRANCH  11  14
BRANCH  12  25
HETATM   25  C   UNL     1      -9.345  17.295  66.053  1.00  0.00    -0.097 C  
HETATM   26  C   UNL     1      -7.854  17.316  66.256  1.00  0.00    -0.344 C  
HETATM   27  O   UNL     1      -9.943  18.329  65.753  1.00  0.00    -0.540 OA 
ENDBRANCH  12  25
ENDBRANCH   6   8
ENDBRANCH   3   4
ENDBRANCH   2   3
TORSDOF 10
ENDMDL
MODEL       74
REMARK 921   NORMALIZED FREE ENERGY PREDICTED BY IDOCK:   -4.77 KCAL/MOL
REMARK 922        TOTAL FREE ENERGY PREDICTED BY IDOCK:   -8.59 KCAL/MOL
REMARK 923 INTER-LIGAND FREE ENERGY PREDICTED BY IDOCK:   -7.69 KCAL/MOL
REMARK 924 INTRA-LIGAND FREE ENERGY PREDICTED BY IDOCK:   -0.91 KCAL/MOL
REMARK 927      BINDING AFFINITY PREDICTED BY RF-SCORE:    0.00 PKD
ROOT
HETATM    1  C   UNL     1     -13.783  15.326  71.840  1.00  0.00    -0.601 C  
HETATM    2  C   UNL     1     -12.371  15.784  71.521  1.00  0.00    -0.514 C  
ENDROOT
BRANCH   2   3
HETATM    3  C   UNL     1     -12.185  16.000  70.025  1.00  0.00    -0.075 C  
BRANCH   3   4
HETATM    4  C   UNL     1     -11.405  14.858  69.414  1.00  0.00    -0.290 C  
HETATM    5  O   UNL     1     -10.180  14.911  69.356  1.00  0.00    -0.216 OA 
HETATM    6  N   UNL     1     -12.205  13.797  69.013  1.00  0.00    -0.397 N  
HETATM    7  H   UNL     1     -13.209  13.885  69.168  1.00  0.00     0.000 HD 
BRANCH   6   8
HETATM    8  C   UNL     1     -11.749  12.605  68.410  1.00  0.00    -0.333 A  
HETATM    9  C   UNL     1     -11.641  11.400  69.098  1.00  0.00    -0.381 A  
HETATM   10  C   UNL     1     -11.273  10.227  68.438  1.00  0.00    -0.284 A  
HETATM   11  C   UNL     1     -10.990  10.224  67.068  1.00  0.00    -0.119 A  
HETATM   12  C   UNL     1     -11.017  11.446  66.378  1.00  0.00    -0.315 A  
HETATM   13  C   UNL     1     -11.400  12.627  67.057  1.00  0.00    -0.377 A  
BRANCH  11  14
HETATM   14  O   UNL     1     -10.733   9.075  66.365  1.00  0.00    -0.050 OA 
BRANCH  14  15
HETATM   15  C   UNL     1      -9.962   8.060  67.029  1.00  0.00    -0.254 C  
BRANCH  15  16
HETATM   16  C   UNL     1     -10.886   6.905  67.442  1.00  0.00    -0.326 C  
HETATM   17  H   UNL     1     -11.277   5.094  66.793  1.00  0.00     0.000 HD 
HETATM   18  O   UNL     1     -10.705   5.809  66.537  1.00  0.00    -0.276 OA 
BRANCH  16  19
HETATM   19  C   UNL     1     -10.617   6.414  68.880  1.00  0.00    -0.252 C  
BRANCH  19  20
HETATM   20  N   UNL     1     -11.724   6.729  69.789  1.00  0.00    -0.637 NA 
HETATM   21  H   UNL     1     -12.362   5.937  69.866  1.00  0.00     0.000 HD 
BRANCH  20  22
HETATM   22  C   UNL     1     -11.286   7.174  71.119  1.00  0.00    -0.275 C  
HETATM   23  C   UNL     1     -12.184   8.275  71.699  1.00  0.00    -0.350 C  
HETATM   24  C   UNL     1     -11.312   5.963  72.052  1.00  0.00    -0.325 C  
ENDBRANCH  20  22
ENDBRANCH  19  20
ENDBRANCH  16  19
ENDBRANCH  15  16
ENDBRANCH  14  15
ENDBRANCH  11  14
BRANCH  12  25
HETATM   25  C   UNL     1     -10.719  11.599  64.922  1.00  0.00    -0.296 C  
HETATM   26  C   UNL     1     -11.807  11.897  63.926  1.00  0.00    -0.509 C  
HETATM   27  O   UNL     1      -9.560  11.430  64.541  1.00  0.00    -0.231 OA 
ENDBRANCH  12  25
ENDBRANCH   6   8
ENDBRANCH   3   4
ENDBRANCH   2   3
TORSDOF 10
ENDMDL
MODEL       75
REMARK 921   NORMALIZED FREE ENERGY PREDICTED BY IDOCK:   -4.77 KCAL/MOL
REMARK 922        TOTAL FREE ENERGY PREDICTED BY IDOCK:   -8.59 KCAL/MOL
REMARK 923 INTER-LIGAND FREE ENERGY PREDICTED BY IDOCK:   -7.42 KCAL/MOL
REMARK 924 INTRA-LIGAND FREE ENERGY PREDICTED BY IDOCK:   -1.17 KCAL/MOL
REMARK 927      BINDING AFFINITY PREDICTED BY RF-SCORE:    0.00 PKD
ROOT
HETATM    1  C   UNL     1     -12.486  11.894  63.263  1.00  0.00    -0.506 C  
HETATM    2  C   UNL     1     -12.428  12.444  64.677  1.00  0.00    -0.500 C  
ENDROOT
BRANCH   2   3
HETATM    3  C   UNL     1     -11.015  12.371  65.241  1.00  0.00    -0.335 C  
BRANCH   3   4
HETATM    4  C   UNL     1     -10.716  13.586  66.088  1.00  0.00    -0.289 C  
HETATM    5  O   UNL     1     -10.995  13.586  67.284  1.00  0.00    -0.273 OA 
HETATM    6  N   UNL     1     -10.076  14.602  65.391  1.00  0.00    -0.375 N  
HETATM    7  H   UNL     1      -9.872  14.433  64.405  1.00  0.00     0.000 HD 
BRANCH   6   8
HETATM    8  C   UNL     1      -9.682  15.847  65.926  1.00  0.00    -0.351 A  
HETATM    9  C   UNL     1     -10.471  16.990  65.844  1.00  0.00    -0.282 A  
HETATM   10  C   UNL     1     -10.082  18.177  66.466  1.00  0.00    -0.389 A  
HETATM   11  C   UNL     1      -8.883  18.261  67.182  1.00  0.00    -0.260 A  
HETATM   12  C   UNL     1      -8.040  17.139  67.205  1.00  0.00    -0.215 A  
HETATM   13  C   UNL     1      -8.450  15.940  66.578  1.00  0.00    -0.348 A  
BRANCH  11  14
HETATM   14  O   UNL     1      -8.520  19.374  67.897  1.00  0.00    -0.296 OA 
BRANCH  14  15
HETATM   15  C   UNL     1      -8.235  20.568  67.149  1.00  0.00    -0.290 C  
BRANCH  15  16
HETATM   16  C   UNL     1      -6.843  21.090  67.531  1.00  0.00    -0.349 C  
HETATM   17  H   UNL     1      -5.532  20.738  68.949  1.00  0.00     0.000 HD 
HETATM   18  O   UNL     1      -6.394  20.416  68.713  1.00  0.00    -0.310 OA 
BRANCH  16  19
HETATM   19  C   UNL     1      -5.802  20.879  66.412  1.00  0.00    -0.232 C  
BRANCH  19  20
HETATM   20  N   UNL     1      -6.318  21.268  65.095  1.00  0.00    -0.415 NA 
HETATM   21  H   UNL     1      -6.394  22.282  65.024  1.00  0.00     0.000 HD 
BRANCH  20  22
HETATM   22  C   UNL     1      -5.539  20.725  63.973  1.00  0.00    -0.243 C  
HETATM   23  C   UNL     1      -5.519  19.190  63.954  1.00  0.00    -0.329 C  
HETATM   24  C   UNL     1      -6.169  21.233  62.675  1.00  0.00    -0.307 C  
ENDBRANCH  20  22
ENDBRANCH  19  20
ENDBRANCH  16  19
ENDBRANCH  15  16
ENDBRANCH  14  15
ENDBRANCH  11  14
BRANCH  12  25
HETATM   25  C   UNL     1      -6.723  17.089  67.910  1.00  0.00    -0.148 C  
HETATM   26  C   UNL     1      -5.429  17.290  67.168  1.00  0.00    -0.174 C  
HETATM   27  O   UNL     1      -6.713  16.832  69.114  1.00  0.00    -0.199 OA 
ENDBRANCH  12  25
ENDBRANCH   6   8
ENDBRANCH   3   4
ENDBRANCH   2   3
TORSDOF 10
ENDMDL
MODEL       76
REMARK 921   NORMALIZED FREE ENERGY PREDICTED BY IDOCK:   -4.76 KCAL/MOL
REMARK 922        TOTAL FREE ENERGY PREDICTED BY IDOCK:   -8.57 KCAL/MOL
REMARK 923 INTER-LIGAND FREE ENERGY PREDICTED BY IDOCK:   -8.47 KCAL/MOL
REMARK 924 INTRA-LIGAND FREE ENERGY PREDICTED BY IDOCK:   -0.10 KCAL/MOL
REMARK 927      BINDING AFFINITY PREDICTED BY RF-SCORE:    0.00 PKD
ROOT
HETATM    1  C   UNL     1     -13.371  11.218  71.958  1.00  0.00    -0.386 C  
HETATM    2  C   UNL     1     -12.056  10.914  71.261  1.00  0.00    -0.322 C  
ENDROOT
BRANCH   2   3
HETATM    3  C   UNL     1     -12.279  10.532  69.804  1.00  0.00    -0.252 C  
BRANCH   3   4
HETATM    4  C   UNL     1     -11.915  11.679  68.890  1.00  0.00    -0.292 C  
HETATM    5  O   UNL     1     -11.918  11.522  67.672  1.00  0.00    -0.630 OA 
HETATM    6  N   UNL     1     -11.654  12.863  69.567  1.00  0.00    -0.385 N  
HETATM    7  H   UNL     1     -11.734  12.845  70.584  1.00  0.00     0.000 HD 
BRANCH   6   8
HETATM    8  C   UNL     1     -11.286  14.089  68.972  1.00  0.00    -0.276 A  
HETATM    9  C   UNL     1     -10.999  15.233  69.710  1.00  0.00    -0.295 A  
HETATM   10  C   UNL     1     -10.552  16.397  69.084  1.00  0.00    -0.308 A  
HETATM   11  C   UNL     1     -10.388  16.457  67.696  1.00  0.00    -0.284 A  
HETATM   12  C   UNL     1     -10.750  15.336  66.932  1.00  0.00    -0.313 A  
HETATM   13  C   UNL     1     -11.193  14.159  67.580  1.00  0.00    -0.323 A  
BRANCH  11  14
HETATM   14  O   UNL     1      -9.848  17.544  67.057  1.00  0.00    -0.274 OA 
BRANCH  14  15
HETATM   15  C   UNL     1     -10.636  18.746  67.031  1.00  0.00    -0.420 C  
BRANCH  15  16
HETATM   16  C   UNL     1      -9.842  19.892  67.671  1.00  0.00    -0.393 C  
HETATM   17  H   UNL     1      -9.462  20.515  69.494  1.00  0.00     0.000 HD 
HETATM   18  O   UNL     1      -9.955  19.806  69.098  1.00  0.00    -0.428 OA 
BRANCH  16  19
HETATM   19  C   UNL     1      -8.348  19.868  67.287  1.00  0.00    -0.322 C  
BRANCH  19  20
HETATM   20  N   UNL     1      -8.144  19.511  65.880  1.00  0.00    -0.435 NA 
HETATM   21  H   UNL     1      -8.183  20.341  65.289  1.00  0.00     0.000 HD 
BRANCH  20  22
HETATM   22  C   UNL     1      -6.906  18.758  65.636  1.00  0.00    -0.254 C  
HETATM   23  C   UNL     1      -6.024  19.403  64.558  1.00  0.00    -0.308 C  
HETATM   24  C   UNL     1      -6.126  18.697  66.950  1.00  0.00    -0.174 C  
ENDBRANCH  20  22
ENDBRANCH  19  20
ENDBRANCH  16  19
ENDBRANCH  15  16
ENDBRANCH  14  15
ENDBRANCH  11  14
BRANCH  12  25
HETATM   25  C   UNL     1     -10.648  15.262  65.443  1.00  0.00    -0.394 C  
HETATM   26  C   UNL     1     -10.242  13.991  64.748  1.00  0.00    -0.332 C  
HETATM   27  O   UNL     1     -10.862  16.284  64.790  1.00  0.00    -0.671 OA 
ENDBRANCH  12  25
ENDBRANCH   6   8
ENDBRANCH   3   4
ENDBRANCH   2   3
TORSDOF 10
ENDMDL
MODEL       77
REMARK 921   NORMALIZED FREE ENERGY PREDICTED BY IDOCK:   -4.73 KCAL/MOL
REMARK 922        TOTAL FREE ENERGY PREDICTED BY IDOCK:   -8.53 KCAL/MOL
REMARK 923 INTER-LIGAND FREE ENERGY PREDICTED BY IDOCK:   -7.82 KCAL/MOL
REMARK 924 INTRA-LIGAND FREE ENERGY PREDICTED BY IDOCK:   -0.70 KCAL/MOL
REMARK 927      BINDING AFFINITY PREDICTED BY RF-SCORE:    0.00 PKD
ROOT
HETATM    1  C   UNL     1     -10.954  11.515  63.345  1.00  0.00    -0.397 C  
HETATM    2  C   UNL     1     -12.388  11.995  63.483  1.00  0.00    -0.661 C  
ENDROOT
BRANCH   2   3
HETATM    3  C   UNL     1     -12.609  12.703  64.813  1.00  0.00    -0.530 C  
BRANCH   3   4
HETATM    4  C   UNL     1     -11.658  13.868  64.961  1.00  0.00    -0.345 C  
HETATM    5  O   UNL     1     -11.854  14.906  64.335  1.00  0.00    -0.415 OA 
HETATM    6  N   UNL     1     -10.643  13.639  65.880  1.00  0.00    -0.284 N  
HETATM    7  H   UNL     1     -10.639  12.736  66.354  1.00  0.00     0.000 HD 
BRANCH   6   8
HETATM    8  C   UNL     1      -9.615  14.547  66.215  1.00  0.00    -0.304 A  
HETATM    9  C   UNL     1      -9.669  15.901  65.901  1.00  0.00    -0.386 A  
HETATM   10  C   UNL     1      -8.671  16.777  66.332  1.00  0.00    -0.337 A  
HETATM   11  C   UNL     1      -7.582  16.323  67.082  1.00  0.00    -0.195 A  
HETATM   12  C   UNL     1      -7.474  14.947  67.337  1.00  0.00    -0.228 A  
HETATM   13  C   UNL     1      -8.495  14.071  66.902  1.00  0.00    -0.102 A  
BRANCH  11  14
HETATM   14  O   UNL     1      -6.642  17.169  67.616  1.00  0.00    -0.138 OA 
BRANCH  14  15
HETATM   15  C   UNL     1      -6.251  18.299  66.818  1.00  0.00    -0.174 C  
BRANCH  15  16
HETATM   16  C   UNL     1      -6.269  19.566  67.684  1.00  0.00    -0.203 C  
HETATM   17  H   UNL     1      -5.604  21.407  67.526  1.00  0.00     0.000 HD 
HETATM   18  O   UNL     1      -5.592  20.622  66.990  1.00  0.00    -0.167 OA 
BRANCH  16  19
HETATM   19  C   UNL     1      -7.700  20.032  68.026  1.00  0.00    -0.266 C  
BRANCH  19  20
HETATM   20  N   UNL     1      -8.471  20.377  66.827  1.00  0.00    -0.511 NA 
HETATM   21  H   UNL     1      -8.192  19.792  66.040  1.00  0.00     0.000 HD 
BRANCH  20  22
HETATM   22  C   UNL     1      -9.926  20.320  67.026  1.00  0.00    -0.460 C  
HETATM   23  C   UNL     1     -10.660  19.674  65.842  1.00  0.00    -0.566 C  
HETATM   24  C   UNL     1     -10.197  19.502  68.289  1.00  0.00    -0.552 C  
ENDBRANCH  20  22
ENDBRANCH  19  20
ENDBRANCH  16  19
ENDBRANCH  15  16
ENDBRANCH  14  15
ENDBRANCH  11  14
BRANCH  12  25
HETATM   25  C   UNL     1      -6.358  14.317  68.105  1.00  0.00    -0.132 C  
HETATM   26  C   UNL     1      -6.392  14.230  69.608  1.00  0.00    -0.136 C  
HETATM   27  O   UNL     1      -5.377  13.906  67.483  1.00  0.00    -0.333 OA 
ENDBRANCH  12  25
ENDBRANCH   6   8
ENDBRANCH   3   4
ENDBRANCH   2   3
TORSDOF 10
ENDMDL
MODEL       78
REMARK 921   NORMALIZED FREE ENERGY PREDICTED BY IDOCK:   -4.71 KCAL/MOL
REMARK 922        TOTAL FREE ENERGY PREDICTED BY IDOCK:   -8.49 KCAL/MOL
REMARK 923 INTER-LIGAND FREE ENERGY PREDICTED BY IDOCK:   -7.45 KCAL/MOL
REMARK 924 INTRA-LIGAND FREE ENERGY PREDICTED BY IDOCK:   -1.04 KCAL/MOL
REMARK 927      BINDING AFFINITY PREDICTED BY RF-SCORE:    0.00 PKD
ROOT
HETATM    1  C   UNL     1     -12.483  12.077  63.731  1.00  0.00    -0.594 C  
HETATM    2  C   UNL     1     -11.247  12.930  63.954  1.00  0.00    -0.471 C  
ENDROOT
BRANCH   2   3
HETATM    3  C   UNL     1     -10.414  12.403  65.115  1.00  0.00    -0.321 C  
BRANCH   3   4
HETATM    4  C   UNL     1     -10.316  13.435  66.214  1.00  0.00    -0.291 C  
HETATM    5  O   UNL     1     -10.913  13.265  67.273  1.00  0.00    -0.261 OA 
HETATM    6  N   UNL     1      -9.474  14.494  65.904  1.00  0.00    -0.509 N  
HETATM    7  H   UNL     1      -9.013  14.471  64.993  1.00  0.00     0.000 HD 
BRANCH   6   8
HETATM    8  C   UNL     1      -9.198  15.599  66.737  1.00  0.00    -0.251 A  
HETATM    9  C   UNL     1      -8.238  15.568  67.743  1.00  0.00    -0.157 A  
HETATM   10  C   UNL     1      -7.936  16.713  68.482  1.00  0.00    -0.224 A  
HETATM   11  C   UNL     1      -8.594  17.924  68.245  1.00  0.00    -0.275 A  
HETATM   12  C   UNL     1      -9.621  17.949  67.288  1.00  0.00    -0.273 A  
HETATM   13  C   UNL     1      -9.912  16.785  66.540  1.00  0.00    -0.308 A  
BRANCH  11  14
HETATM   14  O   UNL     1      -8.249  19.094  68.873  1.00  0.00    -0.351 OA 
BRANCH  14  15
HETATM   15  C   UNL     1      -6.936  19.162  69.454  1.00  0.00    -0.237 C  
BRANCH  15  16
HETATM   16  C   UNL     1      -6.197  20.389  68.903  1.00  0.00    -0.325 C  
HETATM   17  H   UNL     1      -5.066  21.816  69.637  1.00  0.00     0.000 HD 
HETATM   18  O   UNL     1      -5.524  21.057  69.978  1.00  0.00    -0.506 OA 
BRANCH  16  19
HETATM   19  C   UNL     1      -5.162  20.023  67.818  1.00  0.00    -0.181 C  
BRANCH  19  20
HETATM   20  N   UNL     1      -5.383  20.761  66.571  1.00  0.00    -0.171 NA 
HETATM   21  H   UNL     1      -4.666  21.474  66.443  1.00  0.00     0.000 HD 
BRANCH  20  22
HETATM   22  C   UNL     1      -5.475  19.899  65.384  1.00  0.00    -0.161 C  
HETATM   23  C   UNL     1      -5.753  18.431  65.739  1.00  0.00    -0.233 C  
HETATM   24  C   UNL     1      -6.612  20.425  64.508  1.00  0.00    -0.257 C  
ENDBRANCH  20  22
ENDBRANCH  19  20
ENDBRANCH  16  19
ENDBRANCH  15  16
ENDBRANCH  14  15
ENDBRANCH  11  14
BRANCH  12  25
HETATM   25  C   UNL     1     -10.423  19.162  66.944  1.00  0.00    -0.437 C  
HETATM   26  C   UNL     1     -10.596  19.608  65.516  1.00  0.00    -0.331 C  
HETATM   27  O   UNL     1     -10.908  19.824  67.862  1.00  0.00    -0.327 OA 
ENDBRANCH  12  25
ENDBRANCH   6   8
ENDBRANCH   3   4
ENDBRANCH   2   3
TORSDOF 10
ENDMDL
MODEL       79
REMARK 921   NORMALIZED FREE ENERGY PREDICTED BY IDOCK:   -4.70 KCAL/MOL
REMARK 922        TOTAL FREE ENERGY PREDICTED BY IDOCK:   -8.48 KCAL/MOL
REMARK 923 INTER-LIGAND FREE ENERGY PREDICTED BY IDOCK:   -7.03 KCAL/MOL
REMARK 924 INTRA-LIGAND FREE ENERGY PREDICTED BY IDOCK:   -1.45 KCAL/MOL
REMARK 927      BINDING AFFINITY PREDICTED BY RF-SCORE:    0.00 PKD
ROOT
HETATM    1  C   UNL     1     -11.231  16.156  68.408  1.00  0.00    -0.358 C  
HETATM    2  C   UNL     1     -10.859  14.973  67.531  1.00  0.00    -0.297 C  
ENDROOT
BRANCH   2   3
HETATM    3  C   UNL     1     -12.075  14.110  67.222  1.00  0.00    -0.407 C  
BRANCH   3   4
HETATM    4  C   UNL     1     -11.835  12.680  67.645  1.00  0.00    -0.329 C  
HETATM    5  O   UNL     1     -11.718  11.799  66.797  1.00  0.00    -0.555 OA 
HETATM    6  N   UNL     1     -11.716  12.523  69.019  1.00  0.00    -0.306 N  
HETATM    7  H   UNL     1     -11.796  13.363  69.592  1.00  0.00     0.000 HD 
BRANCH   6   8
HETATM    8  C   UNL     1     -11.494  11.302  69.693  1.00  0.00    -0.309 A  
HETATM    9  C   UNL     1     -10.252  10.678  69.739  1.00  0.00    -0.098 A  
HETATM   10  C   UNL     1     -10.059   9.519  70.494  1.00  0.00    -0.347 A  
HETATM   11  C   UNL     1     -11.107   8.942  71.217  1.00  0.00    -0.297 A  
HETATM   12  C   UNL     1     -12.384   9.516  71.114  1.00  0.00    -0.410 A  
HETATM   13  C   UNL     1     -12.565  10.695  70.354  1.00  0.00    -0.395 A  
BRANCH  11  14
HETATM   14  O   UNL     1     -10.931   7.870  72.054  1.00  0.00    -0.245 OA 
BRANCH  14  15
HETATM   15  C   UNL     1      -9.806   7.916  72.948  1.00  0.00    -0.282 C  
BRANCH  15  16
HETATM   16  C   UNL     1      -9.454   6.492  73.400  1.00  0.00    -0.140 C  
HETATM   17  H   UNL     1     -10.443   4.902  73.992  1.00  0.00     0.000 HD 
HETATM   18  O   UNL     1     -10.661   5.784  73.712  1.00  0.00    -0.251 OA 
BRANCH  16  19
HETATM   19  C   UNL     1      -8.677   5.702  72.327  1.00  0.00    -0.132 C  
BRANCH  19  20
HETATM   20  N   UNL     1      -8.493   6.476  71.095  1.00  0.00    -0.126 NA 
HETATM   21  H   UNL     1      -7.560   6.887  71.064  1.00  0.00     0.000 HD 
BRANCH  20  22
HETATM   22  C   UNL     1      -8.762   5.709  69.871  1.00  0.00    -0.125 C  
HETATM   23  C   UNL     1     -10.262   5.477  69.637  1.00  0.00    -0.336 C  
HETATM   24  C   UNL     1      -8.187   6.492  68.689  1.00  0.00    -0.118 C  
ENDBRANCH  20  22
ENDBRANCH  19  20
ENDBRANCH  16  19
ENDBRANCH  15  16
ENDBRANCH  14  15
ENDBRANCH  11  14
BRANCH  12  25
HETATM   25  C   UNL     1     -13.600   8.998  71.812  1.00  0.00    -0.413 C  
HETATM   26  C   UNL     1     -14.304   7.754  71.339  1.00  0.00    -0.513 C  
HETATM   27  O   UNL     1     -14.048   9.639  72.763  1.00  0.00    -0.240 OA 
ENDBRANCH  12  25
ENDBRANCH   6   8
ENDBRANCH   3   4
ENDBRANCH   2   3
TORSDOF 10
ENDMDL
MODEL       80
REMARK 921   NORMALIZED FREE ENERGY PREDICTED BY IDOCK:   -4.69 KCAL/MOL
REMARK 922        TOTAL FREE ENERGY PREDICTED BY IDOCK:   -8.47 KCAL/MOL
REMARK 923 INTER-LIGAND FREE ENERGY PREDICTED BY IDOCK:   -6.97 KCAL/MOL
REMARK 924 INTRA-LIGAND FREE ENERGY PREDICTED BY IDOCK:   -1.50 KCAL/MOL
REMARK 927      BINDING AFFINITY PREDICTED BY RF-SCORE:    0.00 PKD
ROOT
HETATM    1  C   UNL     1      -8.604   3.167  71.108  1.00  0.00    -0.108 C  
HETATM    2  C   UNL     1      -9.688   4.050  70.516  1.00  0.00    -0.258 C  
ENDROOT
BRANCH   2   3
HETATM    3  C   UNL     1      -9.731   5.408  71.204  1.00  0.00    -0.229 C  
BRANCH   3   4
HETATM    4  C   UNL     1     -10.495   6.407  70.366  1.00  0.00    -0.218 C  
HETATM    5  O   UNL     1     -11.635   6.149  69.989  1.00  0.00    -0.392 OA 
HETATM    6  N   UNL     1      -9.803   7.590  70.149  1.00  0.00    -0.180 N  
HETATM    7  H   UNL     1      -8.875   7.670  70.567  1.00  0.00     0.000 HD 
BRANCH   6   8
HETATM    8  C   UNL     1     -10.269   8.692  69.401  1.00  0.00    -0.210 A  
HETATM    9  C   UNL     1     -10.169   8.764  68.015  1.00  0.00    -0.264 A  
HETATM   10  C   UNL     1     -10.726   9.832  67.310  1.00  0.00    -0.296 A  
HETATM   11  C   UNL     1     -11.391  10.870  67.971  1.00  0.00    -0.312 A  
HETATM   12  C   UNL     1     -11.428  10.851  69.374  1.00  0.00    -0.373 A  
HETATM   13  C   UNL     1     -10.869   9.758  70.077  1.00  0.00    -0.319 A  
BRANCH  11  14
HETATM   14  O   UNL     1     -12.043  11.877  67.307  1.00  0.00    -0.582 OA 
BRANCH  14  15
HETATM   15  C   UNL     1     -11.646  12.129  65.948  1.00  0.00    -0.364 C  
BRANCH  15  16
HETATM   16  C   UNL     1     -11.467  13.639  65.741  1.00  0.00    -0.315 C  
HETATM   17  H   UNL     1     -12.400  15.273  66.303  1.00  0.00     0.000 HD 
HETATM   18  O   UNL     1     -12.511  14.338  66.431  1.00  0.00    -0.441 OA 
BRANCH  16  19
HETATM   19  C   UNL     1     -10.103  14.152  66.250  1.00  0.00    -0.300 C  
BRANCH  19  20
HETATM   20  N   UNL     1     -10.029  14.164  67.714  1.00  0.00    -0.231 NA 
HETATM   21  H   UNL     1     -10.891  13.804  68.122  1.00  0.00     0.000 HD 
BRANCH  20  22
HETATM   22  C   UNL     1      -8.862  13.449  68.251  1.00  0.00    -0.172 C  
HETATM   23  C   UNL     1      -8.175  12.566  67.201  1.00  0.00    -0.168 C  
HETATM   24  C   UNL     1      -7.865  14.491  68.760  1.00  0.00    -0.145 C  
ENDBRANCH  20  22
ENDBRANCH  19  20
ENDBRANCH  16  19
ENDBRANCH  15  16
ENDBRANCH  14  15
ENDBRANCH  11  14
BRANCH  12  25
HETATM   25  C   UNL     1     -12.084  11.899  70.214  1.00  0.00    -0.325 C  
HETATM   26  C   UNL     1     -12.918  11.534  71.413  1.00  0.00    -0.450 C  
HETATM   27  O   UNL     1     -11.966  13.078  69.878  1.00  0.00    -0.320 OA 
ENDBRANCH  12  25
ENDBRANCH   6   8
ENDBRANCH   3   4
ENDBRANCH   2   3
TORSDOF 10
ENDMDL
MODEL       81
REMARK 921   NORMALIZED FREE ENERGY PREDICTED BY IDOCK:   -4.69 KCAL/MOL
REMARK 922        TOTAL FREE ENERGY PREDICTED BY IDOCK:   -8.46 KCAL/MOL
REMARK 923 INTER-LIGAND FREE ENERGY PREDICTED BY IDOCK:   -7.68 KCAL/MOL
REMARK 924 INTRA-LIGAND FREE ENERGY PREDICTED BY IDOCK:   -0.78 KCAL/MOL
REMARK 927      BINDING AFFINITY PREDICTED BY RF-SCORE:    0.00 PKD
ROOT
HETATM    1  C   UNL     1     -11.088   5.278  72.646  1.00  0.00    -0.319 C  
HETATM    2  C   UNL     1     -10.265   6.547  72.513  1.00  0.00    -0.202 C  
ENDROOT
BRANCH   2   3
HETATM    3  C   UNL     1     -11.084   7.778  72.875  1.00  0.00    -0.457 C  
BRANCH   3   4
HETATM    4  C   UNL     1     -11.581   8.474  71.629  1.00  0.00    -0.299 C  
HETATM    5  O   UNL     1     -12.603   8.083  71.072  1.00  0.00    -0.213 OA 
HETATM    6  N   UNL     1     -10.811   9.570  71.265  1.00  0.00    -0.353 N  
HETATM    7  H   UNL     1     -10.011   9.795  71.858  1.00  0.00     0.000 HD 
BRANCH   6   8
HETATM    8  C   UNL     1     -11.037  10.401  70.146  1.00  0.00    -0.314 A  
HETATM    9  C   UNL     1     -11.885  11.503  70.181  1.00  0.00    -0.440 A  
HETATM   10  C   UNL     1     -12.008  12.349  69.077  1.00  0.00    -0.291 A  
HETATM   11  C   UNL     1     -11.293  12.111  67.899  1.00  0.00    -0.300 A  
HETATM   12  C   UNL     1     -10.496  10.958  67.823  1.00  0.00    -0.238 A  
HETATM   13  C   UNL     1     -10.373  10.114  68.951  1.00  0.00    -0.223 A  
BRANCH  11  14
HETATM   14  O   UNL     1     -11.303  12.978  66.835  1.00  0.00    -0.284 OA 
BRANCH  14  15
HETATM   15  C   UNL     1     -11.477  14.374  67.131  1.00  0.00    -0.362 C  
BRANCH  15  16
HETATM   16  C   UNL     1     -10.358  15.181  66.457  1.00  0.00    -0.282 C  
HETATM   17  H   UNL     1      -9.865  15.672  64.621  1.00  0.00     0.000 HD 
HETATM   18  O   UNL     1     -10.557  15.172  65.038  1.00  0.00    -0.393 OA 
BRANCH  16  19
HETATM   19  C   UNL     1     -10.305  16.645  66.944  1.00  0.00    -0.299 C  
BRANCH  19  20
HETATM   20  N   UNL     1      -9.690  17.535  65.954  1.00  0.00    -0.538 NA 
HETATM   21  H   UNL     1     -10.351  17.755  65.209  1.00  0.00     0.000 HD 
BRANCH  20  22
HETATM   22  C   UNL     1      -9.131  18.764  66.533  1.00  0.00    -0.323 C  
HETATM   23  C   UNL     1     -10.097  19.954  66.440  1.00  0.00    -0.615 C  
HETATM   24  C   UNL     1      -8.816  18.490  68.004  1.00  0.00    -0.317 C  
ENDBRANCH  20  22
ENDBRANCH  19  20
ENDBRANCH  16  19
ENDBRANCH  15  16
ENDBRANCH  14  15
ENDBRANCH  11  14
BRANCH  12  25
HETATM   25  C   UNL     1      -9.694  10.565  66.624  1.00  0.00    -0.189 C  
HETATM   26  C   UNL     1      -8.307  11.105  66.399  1.00  0.00    -0.167 C  
HETATM   27  O   UNL     1     -10.211   9.820  65.792  1.00  0.00    -0.264 OA 
ENDBRANCH  12  25
ENDBRANCH   6   8
ENDBRANCH   3   4
ENDBRANCH   2   3
TORSDOF 10
ENDMDL
MODEL       82
REMARK 921   NORMALIZED FREE ENERGY PREDICTED BY IDOCK:   -4.67 KCAL/MOL
REMARK 922        TOTAL FREE ENERGY PREDICTED BY IDOCK:   -8.44 KCAL/MOL
REMARK 923 INTER-LIGAND FREE ENERGY PREDICTED BY IDOCK:   -7.36 KCAL/MOL
REMARK 924 INTRA-LIGAND FREE ENERGY PREDICTED BY IDOCK:   -1.07 KCAL/MOL
REMARK 927      BINDING AFFINITY PREDICTED BY RF-SCORE:    0.00 PKD
ROOT
HETATM    1  C   UNL     1     -12.645  15.328  73.921  1.00  0.00    -0.731 C  
HETATM    2  C   UNL     1     -13.838  15.609  73.024  1.00  0.00    -0.474 C  
ENDROOT
BRANCH   2   3
HETATM    3  C   UNL     1     -14.034  14.498  72.000  1.00  0.00    -0.587 C  
BRANCH   3   4
HETATM    4  C   UNL     1     -12.859  14.435  71.052  1.00  0.00    -0.353 C  
HETATM    5  O   UNL     1     -12.118  13.455  71.054  1.00  0.00    -0.296 OA 
HETATM    6  N   UNL     1     -12.776  15.529  70.202  1.00  0.00    -0.609 N  
HETATM    7  H   UNL     1     -13.496  16.246  70.295  1.00  0.00     0.000 HD 
BRANCH   6   8
HETATM    8  C   UNL     1     -11.783  15.737  69.221  1.00  0.00    -0.374 A  
HETATM    9  C   UNL     1     -10.760  16.669  69.365  1.00  0.00    -0.331 A  
HETATM   10  C   UNL     1      -9.748  16.776  68.409  1.00  0.00    -0.247 A  
HETATM   11  C   UNL     1      -9.734  15.961  67.273  1.00  0.00    -0.224 A  
HETATM   12  C   UNL     1     -10.803  15.073  67.076  1.00  0.00    -0.311 A  
HETATM   13  C   UNL     1     -11.818  14.967  68.055  1.00  0.00    -0.266 A  
BRANCH  11  14
HETATM   14  O   UNL     1      -8.701  15.961  66.370  1.00  0.00    -0.275 OA 
BRANCH  14  15
HETATM   15  C   UNL     1      -8.025  17.211  66.150  1.00  0.00    -0.262 C  
BRANCH  15  16
HETATM   16  C   UNL     1      -6.535  17.051  66.480  1.00  0.00    -0.204 C  
HETATM   17  H   UNL     1      -4.888  18.070  66.153  1.00  0.00     0.000 HD 
HETATM   18  O   UNL     1      -5.811  18.168  65.948  1.00  0.00    -0.168 OA 
BRANCH  16  19
HETATM   19  C   UNL     1      -6.268  16.960  67.997  1.00  0.00    -0.136 C  
BRANCH  19  20
HETATM   20  N   UNL     1      -5.133  16.085  68.308  1.00  0.00    -0.098 NA 
HETATM   21  H   UNL     1      -4.427  16.589  68.845  1.00  0.00     0.000 HD 
BRANCH  20  22
HETATM   22  C   UNL     1      -5.516  14.842  68.990  1.00  0.00    -0.093 C  
HETATM   23  C   UNL     1      -6.911  14.922  69.626  1.00  0.00    -0.184 C  
HETATM   24  C   UNL     1      -5.501  13.715  67.957  1.00  0.00    -0.116 C  
ENDBRANCH  20  22
ENDBRANCH  19  20
ENDBRANCH  16  19
ENDBRANCH  15  16
ENDBRANCH  14  15
ENDBRANCH  11  14
BRANCH  12  25
HETATM   25  C   UNL     1     -10.932  14.158  65.902  1.00  0.00    -0.297 C  
HETATM   26  C   UNL     1     -11.839  14.488  64.746  1.00  0.00    -0.446 C  
HETATM   27  O   UNL     1     -10.311  13.094  65.917  1.00  0.00    -0.279 OA 
ENDBRANCH  12  25
ENDBRANCH   6   8
ENDBRANCH   3   4
ENDBRANCH   2   3
TORSDOF 10
ENDMDL
MODEL       83
REMARK 921   NORMALIZED FREE ENERGY PREDICTED BY IDOCK:   -4.67 KCAL/MOL
REMARK 922        TOTAL FREE ENERGY PREDICTED BY IDOCK:   -8.43 KCAL/MOL
REMARK 923 INTER-LIGAND FREE ENERGY PREDICTED BY IDOCK:   -7.50 KCAL/MOL
REMARK 924 INTRA-LIGAND FREE ENERGY PREDICTED BY IDOCK:   -0.93 KCAL/MOL
REMARK 927      BINDING AFFINITY PREDICTED BY RF-SCORE:    0.00 PKD
ROOT
HETATM    1  C   UNL     1      -6.202   8.037  63.412  1.00  0.00    -0.071 C  
HETATM    2  C   UNL     1      -5.792   9.463  63.088  1.00  0.00    -0.089 C  
ENDROOT
BRANCH   2   3
HETATM    3  C   UNL     1      -6.893  10.196  62.334  1.00  0.00    -0.131 C  
BRANCH   3   4
HETATM    4  C   UNL     1      -8.199  10.122  63.091  1.00  0.00    -0.160 C  
HETATM    5  O   UNL     1      -9.197   9.652  62.553  1.00  0.00    -0.281 OA 
HETATM    6  N   UNL     1      -8.103  10.573  64.401  1.00  0.00    -0.324 N  
HETATM    7  H   UNL     1      -7.189  10.896  64.716  1.00  0.00     0.000 HD 
BRANCH   6   8
HETATM    8  C   UNL     1      -9.161  10.622  65.334  1.00  0.00    -0.189 A  
HETATM    9  C   UNL     1      -9.278   9.729  66.395  1.00  0.00    -0.200 A  
HETATM   10  C   UNL     1     -10.290   9.873  67.345  1.00  0.00    -0.301 A  
HETATM   11  C   UNL     1     -11.225  10.909  67.258  1.00  0.00    -0.233 A  
HETATM   12  C   UNL     1     -11.167  11.769  66.150  1.00  0.00    -0.363 A  
HETATM   13  C   UNL     1     -10.132  11.618  65.198  1.00  0.00    -0.304 A  
BRANCH  11  14
HETATM   14  O   UNL     1     -12.164  11.147  68.229  1.00  0.00    -0.613 OA 
BRANCH  14  15
HETATM   15  C   UNL     1     -11.694  11.690  69.475  1.00  0.00    -0.344 C  
BRANCH  15  16
HETATM   16  C   UNL     1     -12.159  10.793  70.631  1.00  0.00    -0.370 C  
HETATM   17  H   UNL     1     -13.750   9.720  71.047  1.00  0.00     0.000 HD 
HETATM   18  O   UNL     1     -13.462  10.275  70.332  1.00  0.00    -0.099 OA 
BRANCH  16  19
HETATM   19  C   UNL     1     -11.201   9.611  70.889  1.00  0.00    -0.352 C  
BRANCH  19  20
HETATM   20  N   UNL     1     -11.775   8.330  70.465  1.00  0.00    -0.464 NA 
HETATM   21  H   UNL     1     -11.890   8.306  69.452  1.00  0.00     0.000 HD 
BRANCH  20  22
HETATM   22  C   UNL     1     -11.015   7.161  70.929  1.00  0.00    -0.251 C  
HETATM   23  C   UNL     1     -10.989   6.025  69.897  1.00  0.00    -0.458 C  
HETATM   24  C   UNL     1      -9.582   7.614  71.211  1.00  0.00    -0.171 C  
ENDBRANCH  20  22
ENDBRANCH  19  20
ENDBRANCH  16  19
ENDBRANCH  15  16
ENDBRANCH  14  15
ENDBRANCH  11  14
BRANCH  12  25
HETATM   25  C   UNL     1     -12.109  12.904  65.914  1.00  0.00    -0.444 C  
HETATM   26  C   UNL     1     -12.050  14.157  66.745  1.00  0.00    -0.474 C  
HETATM   27  O   UNL     1     -12.975  12.777  65.047  1.00  0.00    -0.811 OA 
ENDBRANCH  12  25
ENDBRANCH   6   8
ENDBRANCH   3   4
ENDBRANCH   2   3
TORSDOF 10
ENDMDL
MODEL       84
REMARK 921   NORMALIZED FREE ENERGY PREDICTED BY IDOCK:   -4.67 KCAL/MOL
REMARK 922        TOTAL FREE ENERGY PREDICTED BY IDOCK:   -8.43 KCAL/MOL
REMARK 923 INTER-LIGAND FREE ENERGY PREDICTED BY IDOCK:   -7.14 KCAL/MOL
REMARK 924 INTRA-LIGAND FREE ENERGY PREDICTED BY IDOCK:   -1.28 KCAL/MOL
REMARK 927      BINDING AFFINITY PREDICTED BY RF-SCORE:    0.00 PKD
ROOT
HETATM    1  C   UNL     1      -8.951   4.650  62.740  1.00  0.00    -0.120 C  
HETATM    2  C   UNL     1      -8.948   3.716  63.937  1.00  0.00    -0.105 C  
ENDROOT
BRANCH   2   3
HETATM    3  C   UNL     1     -10.180   3.929  64.807  1.00  0.00    -0.196 C  
BRANCH   3   4
HETATM    4  C   UNL     1      -9.859   4.837  65.972  1.00  0.00    -0.216 C  
HETATM    5  O   UNL     1      -8.716   4.883  66.420  1.00  0.00    -0.113 OA 
HETATM    6  N   UNL     1     -10.941   5.596  66.394  1.00  0.00    -0.735 N  
HETATM    7  H   UNL     1     -11.820   5.475  65.890  1.00  0.00     0.000 HD 
BRANCH   6   8
HETATM    8  C   UNL     1     -10.933   6.522  67.460  1.00  0.00    -0.359 A  
HETATM    9  C   UNL     1     -11.017   6.140  68.795  1.00  0.00    -0.421 A  
HETATM   10  C   UNL     1     -10.913   7.083  69.819  1.00  0.00    -0.283 A  
HETATM   11  C   UNL     1     -10.733   8.442  69.538  1.00  0.00    -0.175 A  
HETATM   12  C   UNL     1     -10.727   8.850  68.195  1.00  0.00    -0.148 A  
HETATM   13  C   UNL     1     -10.824   7.884  67.167  1.00  0.00    -0.187 A  
BRANCH  11  14
HETATM   14  O   UNL     1     -10.517   9.381  70.514  1.00  0.00    -0.232 OA 
BRANCH  14  15
HETATM   15  C   UNL     1     -11.310   9.276  71.709  1.00  0.00    -0.367 C  
BRANCH  15  16
HETATM   16  C   UNL     1     -12.768   9.632  71.388  1.00  0.00    -0.374 C  
HETATM   17  H   UNL     1     -14.542   9.030  71.975  1.00  0.00     0.000 HD 
HETATM   18  O   UNL     1     -13.639   8.809  72.174  1.00  0.00    -0.382 OA 
BRANCH  16  19
HETATM   19  C   UNL     1     -13.094  11.114  71.669  1.00  0.00    -0.424 C  
BRANCH  19  20
HETATM   20  N   UNL     1     -12.288  12.023  70.848  1.00  0.00    -0.351 NA 
HETATM   21  H   UNL     1     -12.118  11.621  69.927  1.00  0.00     0.000 HD 
BRANCH  20  22
HETATM   22  C   UNL     1     -12.858  13.372  70.729  1.00  0.00    -0.150 C  
HETATM   23  C   UNL     1     -13.432  13.892  72.055  1.00  0.00    -0.543 C  
HETATM   24  C   UNL     1     -11.747  14.313  70.262  1.00  0.00    -0.343 C  
ENDBRANCH  20  22
ENDBRANCH  19  20
ENDBRANCH  16  19
ENDBRANCH  15  16
ENDBRANCH  14  15
ENDBRANCH  11  14
BRANCH  12  25
HETATM   25  C   UNL     1     -10.564  10.266  67.745  1.00  0.00    -0.250 C  
HETATM   26  C   UNL     1      -9.226  10.802  67.313  1.00  0.00    -0.158 C  
HETATM   27  O   UNL     1     -11.547  11.008  67.778  1.00  0.00    -0.510 OA 
ENDBRANCH  12  25
ENDBRANCH   6   8
ENDBRANCH   3   4
ENDBRANCH   2   3
TORSDOF 10
ENDMDL
MODEL       85
REMARK 921   NORMALIZED FREE ENERGY PREDICTED BY IDOCK:   -4.65 KCAL/MOL
REMARK 922        TOTAL FREE ENERGY PREDICTED BY IDOCK:   -8.40 KCAL/MOL
REMARK 923 INTER-LIGAND FREE ENERGY PREDICTED BY IDOCK:   -7.50 KCAL/MOL
REMARK 924 INTRA-LIGAND FREE ENERGY PREDICTED BY IDOCK:   -0.90 KCAL/MOL
REMARK 927      BINDING AFFINITY PREDICTED BY RF-SCORE:    0.00 PKD
ROOT
HETATM    1  C   UNL     1      -8.088   3.506  65.425  1.00  0.00    -0.097 C  
HETATM    2  C   UNL     1      -7.923   4.961  65.826  1.00  0.00    -0.106 C  
ENDROOT
BRANCH   2   3
HETATM    3  C   UNL     1      -9.261   5.690  65.824  1.00  0.00    -0.111 C  
BRANCH   3   4
HETATM    4  C   UNL     1      -9.196   6.926  66.692  1.00  0.00    -0.157 C  
HETATM    5  O   UNL     1      -8.210   7.134  67.394  1.00  0.00    -0.114 OA 
HETATM    6  N   UNL     1     -10.298   7.758  66.551  1.00  0.00    -0.496 N  
HETATM    7  H   UNL     1     -11.020   7.466  65.892  1.00  0.00     0.000 HD 
BRANCH   6   8
HETATM    8  C   UNL     1     -10.507   8.973  67.239  1.00  0.00    -0.273 A  
HETATM    9  C   UNL     1     -10.452  10.215  66.615  1.00  0.00    -0.254 A  
HETATM   10  C   UNL     1     -10.755  11.384  67.315  1.00  0.00    -0.283 A  
HETATM   11  C   UNL     1     -11.111  11.347  68.667  1.00  0.00    -0.236 A  
HETATM   12  C   UNL     1     -11.091  10.109  69.329  1.00  0.00    -0.270 A  
HETATM   13  C   UNL     1     -10.792   8.931  68.606  1.00  0.00    -0.036 A  
BRANCH  11  14
HETATM   14  O   UNL     1     -11.520  12.458  69.359  1.00  0.00    -0.272 OA 
BRANCH  14  15
HETATM   15  C   UNL     1     -12.000  13.571  68.585  1.00  0.00    -0.343 C  
BRANCH  15  16
HETATM   16  C   UNL     1     -11.123  14.800  68.859  1.00  0.00    -0.252 C  
HETATM   17  H   UNL     1     -10.515  16.368  67.846  1.00  0.00     0.000 HD 
HETATM   18  O   UNL     1     -11.057  15.607  67.676  1.00  0.00    -0.324 OA 
BRANCH  16  19
HETATM   19  C   UNL     1     -11.656  15.664  70.022  1.00  0.00    -0.350 C  
BRANCH  19  20
HETATM   20  N   UNL     1     -13.043  15.334  70.365  1.00  0.00    -0.676 NA 
HETATM   21  H   UNL     1     -13.324  14.459  69.924  1.00  0.00     0.000 HD 
BRANCH  20  22
HETATM   22  C   UNL     1     -13.298  15.292  71.812  1.00  0.00    -0.448 C  
HETATM   23  C   UNL     1     -13.652  13.884  72.310  1.00  0.00    -0.642 C  
HETATM   24  C   UNL     1     -12.034  15.773  72.527  1.00  0.00    -0.600 C  
ENDBRANCH  20  22
ENDBRANCH  19  20
ENDBRANCH  16  19
ENDBRANCH  15  16
ENDBRANCH  14  15
ENDBRANCH  11  14
BRANCH  12  25
HETATM   25  C   UNL     1     -11.428   9.920  70.773  1.00  0.00    -0.354 C  
HETATM   26  C   UNL     1     -12.814  10.184  71.295  1.00  0.00    -0.508 C  
HETATM   27  O   UNL     1     -10.529   9.583  71.545  1.00  0.00    -0.302 OA 
ENDBRANCH  12  25
ENDBRANCH   6   8
ENDBRANCH   3   4
ENDBRANCH   2   3
TORSDOF 10
ENDMDL
MODEL       86
REMARK 921   NORMALIZED FREE ENERGY PREDICTED BY IDOCK:   -4.63 KCAL/MOL
REMARK 922        TOTAL FREE ENERGY PREDICTED BY IDOCK:   -8.37 KCAL/MOL
REMARK 923 INTER-LIGAND FREE ENERGY PREDICTED BY IDOCK:   -7.70 KCAL/MOL
REMARK 924 INTRA-LIGAND FREE ENERGY PREDICTED BY IDOCK:   -0.67 KCAL/MOL
REMARK 927      BINDING AFFINITY PREDICTED BY RF-SCORE:    0.00 PKD
ROOT
HETATM    1  C   UNL     1     -12.711  15.996  73.986  1.00  0.00    -0.682 C  
HETATM    2  C   UNL     1     -11.777  15.630  72.846  1.00  0.00    -0.512 C  
ENDROOT
BRANCH   2   3
HETATM    3  C   UNL     1     -12.491  15.697  71.503  1.00  0.00    -0.499 C  
BRANCH   3   4
HETATM    4  C   UNL     1     -11.736  14.909  70.458  1.00  0.00    -0.292 C  
HETATM    5  O   UNL     1     -10.668  15.329  70.022  1.00  0.00    -0.266 OA 
HETATM    6  N   UNL     1     -12.345  13.705  70.128  1.00  0.00    -0.326 N  
HETATM    7  H   UNL     1     -13.214  13.475  70.610  1.00  0.00     0.000 HD 
BRANCH   6   8
HETATM    8  C   UNL     1     -11.867  12.772  69.182  1.00  0.00    -0.301 A  
HETATM    9  C   UNL     1     -11.307  11.550  69.541  1.00  0.00    -0.342 A  
HETATM   10  C   UNL     1     -10.932  10.621  68.570  1.00  0.00    -0.296 A  
HETATM   11  C   UNL     1     -11.095  10.890  67.207  1.00  0.00    -0.283 A  
HETATM   12  C   UNL     1     -11.584  12.150  66.830  1.00  0.00    -0.412 A  
HETATM   13  C   UNL     1     -11.969  13.080  67.823  1.00  0.00    -0.344 A  
BRANCH  11  14
HETATM   14  O   UNL     1     -10.840   9.961  66.230  1.00  0.00     0.017 OA 
BRANCH  14  15
HETATM   15  C   UNL     1      -9.509   9.421  66.171  1.00  0.00    -0.226 C  
BRANCH  15  16
HETATM   16  C   UNL     1      -9.514   7.988  66.723  1.00  0.00    -0.202 C  
HETATM   17  H   UNL     1     -10.867   6.622  67.122  1.00  0.00     0.000 HD 
HETATM   18  O   UNL     1     -10.864   7.509  66.781  1.00  0.00    -0.292 OA 
BRANCH  16  19
HETATM   19  C   UNL     1      -8.678   7.017  65.864  1.00  0.00    -0.126 C  
BRANCH  19  20
HETATM   20  N   UNL     1      -9.377   5.752  65.619  1.00  0.00    -0.354 NA 
HETATM   21  H   UNL     1      -9.789   5.743  64.687  1.00  0.00     0.000 HD 
BRANCH  20  22
HETATM   22  C   UNL     1      -8.537   4.564  65.826  1.00  0.00    -0.116 C  
HETATM   23  C   UNL     1      -8.222   3.827  64.517  1.00  0.00    -0.093 C  
HETATM   24  C   UNL     1      -7.227   5.021  66.470  1.00  0.00    -0.077 C  
ENDBRANCH  20  22
ENDBRANCH  19  20
ENDBRANCH  16  19
ENDBRANCH  15  16
ENDBRANCH  14  15
ENDBRANCH  11  14
BRANCH  12  25
HETATM   25  C   UNL     1     -11.791  12.585  65.415  1.00  0.00    -0.428 C  
HETATM   26  C   UNL     1     -10.650  13.100  64.578  1.00  0.00    -0.425 C  
HETATM   27  O   UNL     1     -12.933  12.557  64.954  1.00  0.00    -0.821 OA 
ENDBRANCH  12  25
ENDBRANCH   6   8
ENDBRANCH   3   4
ENDBRANCH   2   3
TORSDOF 10
ENDMDL
MODEL       87
REMARK 921   NORMALIZED FREE ENERGY PREDICTED BY IDOCK:   -4.61 KCAL/MOL
REMARK 922        TOTAL FREE ENERGY PREDICTED BY IDOCK:   -8.33 KCAL/MOL
REMARK 923 INTER-LIGAND FREE ENERGY PREDICTED BY IDOCK:   -7.55 KCAL/MOL
REMARK 924 INTRA-LIGAND FREE ENERGY PREDICTED BY IDOCK:   -0.78 KCAL/MOL
REMARK 927      BINDING AFFINITY PREDICTED BY RF-SCORE:    0.00 PKD
ROOT
HETATM    1  C   UNL     1      -8.085   5.772  64.764  1.00  0.00    -0.132 C  
HETATM    2  C   UNL     1      -8.860   5.798  66.070  1.00  0.00    -0.150 C  
ENDROOT
BRANCH   2   3
HETATM    3  C   UNL     1      -8.460   6.992  66.926  1.00  0.00    -0.119 C  
BRANCH   3   4
HETATM    4  C   UNL     1      -9.556   8.033  66.936  1.00  0.00    -0.204 C  
HETATM    5  O   UNL     1     -10.733   7.687  66.877  1.00  0.00    -0.351 OA 
HETATM    6  N   UNL     1      -9.084   9.331  67.070  1.00  0.00    -0.129 N  
HETATM    7  H   UNL     1      -8.074   9.453  67.150  1.00  0.00     0.000 HD 
BRANCH   6   8
HETATM    8  C   UNL     1      -9.878  10.497  67.104  1.00  0.00    -0.176 A  
HETATM    9  C   UNL     1      -9.949  11.332  68.215  1.00  0.00    -0.201 A  
HETATM   10  C   UNL     1     -10.676  12.523  68.172  1.00  0.00    -0.246 A  
HETATM   11  C   UNL     1     -11.365  12.911  67.018  1.00  0.00    -0.309 A  
HETATM   12  C   UNL     1     -11.368  12.039  65.918  1.00  0.00    -0.391 A  
HETATM   13  C   UNL     1     -10.620  10.840  65.971  1.00  0.00    -0.224 A  
BRANCH  11  14
HETATM   14  O   UNL     1     -11.998  14.122  66.902  1.00  0.00    -0.413 OA 
BRANCH  14  15
HETATM   15  C   UNL     1     -11.235  15.294  67.236  1.00  0.00    -0.306 C  
BRANCH  15  16
HETATM   16  C   UNL     1     -10.172  15.537  66.156  1.00  0.00    -0.306 C  
HETATM   17  H   UNL     1     -10.110  16.389  64.388  1.00  0.00     0.000 HD 
HETATM   18  O   UNL     1     -10.768  16.237  65.056  1.00  0.00    -0.600 OA 
BRANCH  16  19
HETATM   19  C   UNL     1      -8.971  16.354  66.676  1.00  0.00    -0.258 C  
BRANCH  19  20
HETATM   20  N   UNL     1      -9.295  17.097  67.898  1.00  0.00    -0.245 NA 
HETATM   21  H   UNL     1      -8.792  16.711  68.697  1.00  0.00     0.000 HD 
BRANCH  20  22
HETATM   22  C   UNL     1      -9.063  18.544  67.788  1.00  0.00    -0.278 C  
HETATM   23  C   UNL     1      -9.231  19.062  66.353  1.00  0.00    -0.350 C  
HETATM   24  C   UNL     1     -10.070  19.251  68.697  1.00  0.00    -0.499 C  
ENDBRANCH  20  22
ENDBRANCH  19  20
ENDBRANCH  16  19
ENDBRANCH  15  16
ENDBRANCH  14  15
ENDBRANCH  11  14
BRANCH  12  25
HETATM   25  C   UNL     1     -12.075  12.310  64.630  1.00  0.00    -0.374 C  
HETATM   26  C   UNL     1     -11.318  12.462  63.337  1.00  0.00    -0.507 C  
HETATM   27  O   UNL     1     -13.298  12.454  64.651  1.00  0.00    -0.778 OA 
ENDBRANCH  12  25
ENDBRANCH   6   8
ENDBRANCH   3   4
ENDBRANCH   2   3
TORSDOF 10
ENDMDL
MODEL       88
REMARK 921   NORMALIZED FREE ENERGY PREDICTED BY IDOCK:   -4.59 KCAL/MOL
REMARK 922        TOTAL FREE ENERGY PREDICTED BY IDOCK:   -8.31 KCAL/MOL
REMARK 923 INTER-LIGAND FREE ENERGY PREDICTED BY IDOCK:   -7.57 KCAL/MOL
REMARK 924 INTRA-LIGAND FREE ENERGY PREDICTED BY IDOCK:   -0.74 KCAL/MOL
REMARK 927      BINDING AFFINITY PREDICTED BY RF-SCORE:    0.00 PKD
ROOT
HETATM    1  C   UNL     1     -10.592  20.007  65.930  1.00  0.00    -0.459 C  
HETATM    2  C   UNL     1      -9.781  20.295  67.181  1.00  0.00    -0.592 C  
ENDROOT
BRANCH   2   3
HETATM    3  C   UNL     1      -8.312  19.948  66.979  1.00  0.00    -0.364 C  
BRANCH   3   4
HETATM    4  C   UNL     1      -8.154  18.491  66.610  1.00  0.00    -0.264 C  
HETATM    5  O   UNL     1      -7.415  18.167  65.685  1.00  0.00    -0.535 OA 
HETATM    6  N   UNL     1      -8.861  17.632  67.440  1.00  0.00    -0.233 N  
HETATM    7  H   UNL     1      -9.400  18.054  68.197  1.00  0.00     0.000 HD 
BRANCH   6   8
HETATM    8  C   UNL     1      -8.901  16.225  67.328  1.00  0.00    -0.188 A  
HETATM    9  C   UNL     1      -8.122  15.381  68.112  1.00  0.00    -0.136 A  
HETATM   10  C   UNL     1      -8.261  13.994  68.030  1.00  0.00    -0.155 A  
HETATM   11  C   UNL     1      -9.178  13.408  67.152  1.00  0.00    -0.240 A  
HETATM   12  C   UNL     1      -9.913  14.246  66.298  1.00  0.00    -0.319 A  
HETATM   13  C   UNL     1      -9.770  15.649  66.397  1.00  0.00    -0.302 A  
BRANCH  11  14
HETATM   14  O   UNL     1      -9.421  12.058  67.122  1.00  0.00    -0.181 OA 
BRANCH  14  15
HETATM   15  C   UNL     1      -9.419  11.365  68.381  1.00  0.00    -0.194 C  
BRANCH  15  16
HETATM   16  C   UNL     1     -10.739  10.600  68.545  1.00  0.00    -0.217 C  
HETATM   17  H   UNL     1     -12.397  10.386  67.514  1.00  0.00     0.000 HD 
HETATM   18  O   UNL     1     -11.579  10.860  67.413  1.00  0.00    -0.509 OA 
BRANCH  16  19
HETATM   19  C   UNL     1     -10.533   9.077  68.674  1.00  0.00    -0.200 C  
BRANCH  19  20
HETATM   20  N   UNL     1     -11.333   8.499  69.758  1.00  0.00    -0.448 NA 
HETATM   21  H   UNL     1     -12.323   8.698  69.620  1.00  0.00     0.000 HD 
BRANCH  20  22
HETATM   22  C   UNL     1     -11.114   7.059  69.949  1.00  0.00    -0.264 C  
HETATM   23  C   UNL     1      -9.627   6.696  70.066  1.00  0.00    -0.163 C  
HETATM   24  C   UNL     1     -11.833   6.640  71.233  1.00  0.00    -0.403 C  
ENDBRANCH  20  22
ENDBRANCH  19  20
ENDBRANCH  16  19
ENDBRANCH  15  16
ENDBRANCH  14  15
ENDBRANCH  11  14
BRANCH  12  25
HETATM   25  C   UNL     1     -10.912  13.762  65.297  1.00  0.00    -0.322 C  
HETATM   26  C   UNL     1     -12.383  14.035  65.462  1.00  0.00    -0.503 C  
HETATM   27  O   UNL     1     -10.510  13.088  64.347  1.00  0.00    -0.378 OA 
ENDBRANCH  12  25
ENDBRANCH   6   8
ENDBRANCH   3   4
ENDBRANCH   2   3
TORSDOF 10
ENDMDL
MODEL       89
REMARK 921   NORMALIZED FREE ENERGY PREDICTED BY IDOCK:   -4.59 KCAL/MOL
REMARK 922        TOTAL FREE ENERGY PREDICTED BY IDOCK:   -8.31 KCAL/MOL
REMARK 923 INTER-LIGAND FREE ENERGY PREDICTED BY IDOCK:   -7.21 KCAL/MOL
REMARK 924 INTRA-LIGAND FREE ENERGY PREDICTED BY IDOCK:   -1.10 KCAL/MOL
REMARK 927      BINDING AFFINITY PREDICTED BY RF-SCORE:    0.00 PKD
ROOT
HETATM    1  C   UNL     1     -12.931  15.781  73.524  1.00  0.00    -0.693 C  
HETATM    2  C   UNL     1     -12.075  16.103  72.312  1.00  0.00    -0.616 C  
ENDROOT
BRANCH   2   3
HETATM    3  C   UNL     1     -12.764  15.681  71.021  1.00  0.00    -0.517 C  
BRANCH   3   4
HETATM    4  C   UNL     1     -12.002  14.560  70.352  1.00  0.00    -0.318 C  
HETATM    5  O   UNL     1     -10.969  14.801  69.734  1.00  0.00    -0.261 OA 
HETATM    6  N   UNL     1     -12.561  13.307  70.567  1.00  0.00    -0.238 N  
HETATM    7  H   UNL     1     -13.403  13.266  71.142  1.00  0.00     0.000 HD 
BRANCH   6   8
HETATM    8  C   UNL     1     -12.066  12.086  70.061  1.00  0.00    -0.280 A  
HETATM    9  C   UNL     1     -11.561  11.951  68.772  1.00  0.00    -0.366 A  
HETATM   10  C   UNL     1     -10.998  10.747  68.345  1.00  0.00    -0.299 A  
HETATM   11  C   UNL     1     -10.933   9.636  69.192  1.00  0.00    -0.151 A  
HETATM   12  C   UNL     1     -11.511   9.735  70.467  1.00  0.00    -0.370 A  
HETATM   13  C   UNL     1     -12.070  10.963  70.891  1.00  0.00    -0.455 A  
BRANCH  11  14
HETATM   14  O   UNL     1     -10.291   8.474  68.847  1.00  0.00    -0.208 OA 
BRANCH  14  15
HETATM   15  C   UNL     1      -8.860   8.452  68.982  1.00  0.00    -0.146 C  
BRANCH  15  16
HETATM   16  C   UNL     1      -8.382   6.999  69.113  1.00  0.00    -0.125 C  
HETATM   17  H   UNL     1      -6.841   6.074  69.904  1.00  0.00     0.000 HD 
HETATM   18  O   UNL     1      -7.137   6.974  69.823  1.00  0.00    -0.063 OA 
BRANCH  16  19
HETATM   19  C   UNL     1      -9.396   6.103  69.853  1.00  0.00    -0.149 C  
BRANCH  19  20
HETATM   20  N   UNL     1     -10.284   5.391  68.928  1.00  0.00    -0.197 NA 
HETATM   21  H   UNL     1     -11.155   5.905  68.798  1.00  0.00     0.000 HD 
BRANCH  20  22
HETATM   22  C   UNL     1      -9.662   5.085  67.632  1.00  0.00    -0.154 C  
HETATM   23  C   UNL     1      -9.339   3.594  67.467  1.00  0.00    -0.244 C  
HETATM   24  C   UNL     1     -10.636   5.510  66.532  1.00  0.00    -0.343 C  
ENDBRANCH  20  22
ENDBRANCH  19  20
ENDBRANCH  16  19
ENDBRANCH  15  16
ENDBRANCH  14  15
ENDBRANCH  11  14
BRANCH  12  25
HETATM   25  C   UNL     1     -11.535   8.627  71.470  1.00  0.00    -0.295 C  
HETATM   26  C   UNL     1     -12.581   7.546  71.419  1.00  0.00    -0.382 C  
HETATM   27  O   UNL     1     -10.702   8.639  72.377  1.00  0.00    -0.339 OA 
ENDBRANCH  12  25
ENDBRANCH   6   8
ENDBRANCH   3   4
ENDBRANCH   2   3
TORSDOF 10
ENDMDL
MODEL       90
REMARK 921   NORMALIZED FREE ENERGY PREDICTED BY IDOCK:   -4.59 KCAL/MOL
REMARK 922        TOTAL FREE ENERGY PREDICTED BY IDOCK:   -8.30 KCAL/MOL
REMARK 923 INTER-LIGAND FREE ENERGY PREDICTED BY IDOCK:   -6.67 KCAL/MOL
REMARK 924 INTRA-LIGAND FREE ENERGY PREDICTED BY IDOCK:   -1.63 KCAL/MOL
REMARK 927      BINDING AFFINITY PREDICTED BY RF-SCORE:    0.00 PKD
ROOT
HETATM    1  C   UNL     1     -11.415  15.324  68.260  1.00  0.00    -0.359 C  
HETATM    2  C   UNL     1     -12.096  14.312  69.165  1.00  0.00    -0.337 C  
ENDROOT
BRANCH   2   3
HETATM    3  C   UNL     1     -11.637  12.894  68.851  1.00  0.00    -0.360 C  
BRANCH   3   4
HETATM    4  C   UNL     1     -11.821  11.996  70.053  1.00  0.00    -0.314 C  
HETATM    5  O   UNL     1     -12.535  12.354  70.986  1.00  0.00    -0.368 OA 
HETATM    6  N   UNL     1     -11.167  10.777  69.936  1.00  0.00    -0.289 N  
HETATM    7  H   UNL     1     -10.644  10.610  69.076  1.00  0.00     0.000 HD 
BRANCH   6   8
HETATM    8  C   UNL     1     -11.160   9.750  70.904  1.00  0.00    -0.357 A  
HETATM    9  C   UNL     1     -12.322   9.147  71.376  1.00  0.00    -0.404 A  
HETATM   10  C   UNL     1     -12.263   8.073  72.266  1.00  0.00    -0.366 A  
HETATM   11  C   UNL     1     -11.037   7.575  72.720  1.00  0.00    -0.366 A  
HETATM   12  C   UNL     1      -9.861   8.225  72.315  1.00  0.00    -0.364 A  
HETATM   13  C   UNL     1      -9.934   9.306  71.406  1.00  0.00    -0.323 A  
BRANCH  11  14
HETATM   14  O   UNL     1     -10.935   6.455  73.505  1.00  0.00    -0.222 OA 
BRANCH  14  15
HETATM   15  C   UNL     1     -11.530   5.247  73.003  1.00  0.00    -0.269 C  
BRANCH  15  16
HETATM   16  C   UNL     1     -10.497   4.112  73.046  1.00  0.00    -0.174 C  
HETATM   17  H   UNL     1     -10.456   2.248  73.661  1.00  0.00     0.000 HD 
HETATM   18  O   UNL     1     -11.095   2.950  73.635  1.00  0.00    -0.210 OA 
BRANCH  16  19
HETATM   19  C   UNL     1      -9.961   3.742  71.647  1.00  0.00    -0.141 C  
BRANCH  19  20
HETATM   20  N   UNL     1      -9.379   4.896  70.954  1.00  0.00    -0.145 NA 
HETATM   21  H   UNL     1      -8.361   4.868  71.002  1.00  0.00     0.000 HD 
BRANCH  20  22
HETATM   22  C   UNL     1      -9.831   5.037  69.563  1.00  0.00    -0.211 C  
HETATM   23  C   UNL     1     -10.980   6.043  69.413  1.00  0.00    -0.455 C  
HETATM   24  C   UNL     1      -8.640   5.509  68.728  1.00  0.00    -0.100 C  
ENDBRANCH  20  22
ENDBRANCH  19  20
ENDBRANCH  16  19
ENDBRANCH  15  16
ENDBRANCH  14  15
ENDBRANCH  11  14
BRANCH  12  25
HETATM   25  C   UNL     1      -8.486   7.818  72.734  1.00  0.00    -0.146 C  
HETATM   26  C   UNL     1      -7.955   8.146  74.104  1.00  0.00    -0.305 C  
HETATM   27  O   UNL     1      -7.769   7.243  71.914  1.00  0.00    -0.088 OA 
ENDBRANCH  12  25
ENDBRANCH   6   8
ENDBRANCH   3   4
ENDBRANCH   2   3
TORSDOF 10
ENDMDL
MODEL       91
REMARK 921   NORMALIZED FREE ENERGY PREDICTED BY IDOCK:   -4.58 KCAL/MOL
REMARK 922        TOTAL FREE ENERGY PREDICTED BY IDOCK:   -8.29 KCAL/MOL
REMARK 923 INTER-LIGAND FREE ENERGY PREDICTED BY IDOCK:   -7.16 KCAL/MOL
REMARK 924 INTRA-LIGAND FREE ENERGY PREDICTED BY IDOCK:   -1.13 KCAL/MOL
REMARK 927      BINDING AFFINITY PREDICTED BY RF-SCORE:    0.00 PKD
ROOT
HETATM    1  C   UNL     1     -10.368   6.431  73.601  1.00  0.00    -0.301 C  
HETATM    2  C   UNL     1     -10.919   7.738  73.058  1.00  0.00    -0.442 C  
ENDROOT
BRANCH   2   3
HETATM    3  C   UNL     1      -9.901   8.438  72.167  1.00  0.00    -0.372 C  
BRANCH   3   4
HETATM    4  C   UNL     1     -10.411   8.531  70.747  1.00  0.00    -0.198 C  
HETATM    5  O   UNL     1     -11.375   7.858  70.394  1.00  0.00    -0.264 OA 
HETATM    6  N   UNL     1      -9.724   9.457  69.973  1.00  0.00    -0.208 N  
HETATM    7  H   UNL     1      -8.968   9.972  70.425  1.00  0.00     0.000 HD 
BRANCH   6   8
HETATM    8  C   UNL     1      -9.980   9.748  68.616  1.00  0.00    -0.167 A  
HETATM    9  C   UNL     1     -10.963  10.643  68.206  1.00  0.00    -0.314 A  
HETATM   10  C   UNL     1     -11.119  10.968  66.857  1.00  0.00    -0.280 A  
HETATM   11  C   UNL     1     -10.303  10.399  65.875  1.00  0.00    -0.190 A  
HETATM   12  C   UNL     1      -9.361   9.435  66.266  1.00  0.00    -0.253 A  
HETATM   13  C   UNL     1      -9.206   9.120  67.636  1.00  0.00    -0.143 A  
BRANCH  11  14
HETATM   14  O   UNL     1     -10.353  10.775  64.557  1.00  0.00    -0.345 OA 
BRANCH  14  15
HETATM   15  C   UNL     1     -10.214  12.177  64.271  1.00  0.00    -0.324 C  
BRANCH  15  16
HETATM   16  C   UNL     1     -11.479  12.682  63.563  1.00  0.00    -0.491 C  
HETATM   17  H   UNL     1     -13.246  11.952  63.114  1.00  0.00     0.000 HD 
HETATM   18  O   UNL     1     -12.462  11.639  63.552  1.00  0.00    -0.442 OA 
BRANCH  16  19
HETATM   19  C   UNL     1     -12.083  13.929  64.242  1.00  0.00    -0.440 C  
BRANCH  19  20
HETATM   20  N   UNL     1     -11.117  15.029  64.339  1.00  0.00    -0.657 NA 
HETATM   21  H   UNL     1     -11.353  15.774  63.684  1.00  0.00     0.000 HD 
BRANCH  20  22
HETATM   22  C   UNL     1     -10.967  15.563  65.700  1.00  0.00    -0.303 C  
HETATM   23  C   UNL     1     -11.640  14.680  66.759  1.00  0.00    -0.370 C  
HETATM   24  C   UNL     1      -9.471  15.658  66.004  1.00  0.00    -0.390 C  
ENDBRANCH  20  22
ENDBRANCH  19  20
ENDBRANCH  16  19
ENDBRANCH  15  16
ENDBRANCH  14  15
ENDBRANCH  11  14
BRANCH  12  25
HETATM   25  C   UNL     1      -8.437   8.729  65.327  1.00  0.00    -0.174 C  
HETATM   26  C   UNL     1      -7.207   9.406  64.782  1.00  0.00    -0.106 C  
HETATM   27  O   UNL     1      -8.726   7.588  64.967  1.00  0.00     0.017 OA 
ENDBRANCH  12  25
ENDBRANCH   6   8
ENDBRANCH   3   4
ENDBRANCH   2   3
TORSDOF 10
ENDMDL
MODEL       92
REMARK 921   NORMALIZED FREE ENERGY PREDICTED BY IDOCK:   -4.58 KCAL/MOL
REMARK 922        TOTAL FREE ENERGY PREDICTED BY IDOCK:   -8.28 KCAL/MOL
REMARK 923 INTER-LIGAND FREE ENERGY PREDICTED BY IDOCK:   -6.92 KCAL/MOL
REMARK 924 INTRA-LIGAND FREE ENERGY PREDICTED BY IDOCK:   -1.36 KCAL/MOL
REMARK 927      BINDING AFFINITY PREDICTED BY RF-SCORE:    0.00 PKD
ROOT
HETATM    1  C   UNL     1     -11.213   8.050  72.621  1.00  0.00    -0.462 C  
HETATM    2  C   UNL     1     -11.320   8.877  71.352  1.00  0.00    -0.380 C  
ENDROOT
BRANCH   2   3
HETATM    3  C   UNL     1     -10.854   8.087  70.137  1.00  0.00    -0.242 C  
BRANCH   3   4
HETATM    4  C   UNL     1     -10.344   9.017  69.060  1.00  0.00    -0.219 C  
HETATM    5  O   UNL     1      -9.615   8.587  68.171  1.00  0.00    -0.140 OA 
HETATM    6  N   UNL     1     -10.827  10.313  69.176  1.00  0.00    -0.220 N  
HETATM    7  H   UNL     1     -11.463  10.506  69.950  1.00  0.00     0.000 HD 
BRANCH   6   8
HETATM    8  C   UNL     1     -10.516  11.388  68.316  1.00  0.00    -0.198 A  
HETATM    9  C   UNL     1     -11.391  11.856  67.341  1.00  0.00    -0.389 A  
HETATM   10  C   UNL     1     -11.078  12.980  66.575  1.00  0.00    -0.315 A  
HETATM   11  C   UNL     1      -9.871  13.665  66.752  1.00  0.00    -0.271 A  
HETATM   12  C   UNL     1      -8.945  13.156  67.676  1.00  0.00    -0.192 A  
HETATM   13  C   UNL     1      -9.278  12.022  68.453  1.00  0.00    -0.160 A  
BRANCH  11  14
HETATM   14  O   UNL     1      -9.576  14.834  66.097  1.00  0.00    -0.287 OA 
BRANCH  14  15
HETATM   15  C   UNL     1     -10.526  15.907  66.214  1.00  0.00    -0.318 C  
BRANCH  15  16
HETATM   16  C   UNL     1     -10.322  16.625  67.556  1.00  0.00    -0.294 C  
HETATM   17  H   UNL     1     -10.261  18.486  68.178  1.00  0.00     0.000 HD 
HETATM   18  O   UNL     1     -10.386  18.042  67.348  1.00  0.00    -0.350 OA 
BRANCH  16  19
HETATM   19  C   UNL     1     -11.378  16.228  68.609  1.00  0.00    -0.333 C  
BRANCH  19  20
HETATM   20  N   UNL     1     -10.860  16.329  69.977  1.00  0.00    -0.343 NA 
HETATM   21  H   UNL     1     -11.067  17.245  70.373  1.00  0.00     0.000 HD 
BRANCH  20  22
HETATM   22  C   UNL     1     -11.332  15.259  70.867  1.00  0.00    -0.342 C  
HETATM   23  C   UNL     1     -11.894  15.795  72.191  1.00  0.00    -0.593 C  
HETATM   24  C   UNL     1     -12.430  14.488  70.133  1.00  0.00    -0.375 C  
ENDBRANCH  20  22
ENDBRANCH  19  20
ENDBRANCH  16  19
ENDBRANCH  15  16
ENDBRANCH  14  15
ENDBRANCH  11  14
BRANCH  12  25
HETATM   25  C   UNL     1      -7.611  13.769  67.957  1.00  0.00    -0.145 C  
HETATM   26  C   UNL     1      -7.428  14.775  69.061  1.00  0.00    -0.142 C  
HETATM   27  O   UNL     1      -6.663  13.467  67.231  1.00  0.00    -0.211 OA 
ENDBRANCH  12  25
ENDBRANCH   6   8
ENDBRANCH   3   4
ENDBRANCH   2   3
TORSDOF 10
ENDMDL
MODEL       93
REMARK 921   NORMALIZED FREE ENERGY PREDICTED BY IDOCK:   -4.54 KCAL/MOL
REMARK 922        TOTAL FREE ENERGY PREDICTED BY IDOCK:   -8.23 KCAL/MOL
REMARK 923 INTER-LIGAND FREE ENERGY PREDICTED BY IDOCK:   -6.93 KCAL/MOL
REMARK 924 INTRA-LIGAND FREE ENERGY PREDICTED BY IDOCK:   -1.30 KCAL/MOL
REMARK 927      BINDING AFFINITY PREDICTED BY RF-SCORE:    0.00 PKD
ROOT
HETATM    1  C   UNL     1     -10.819  11.689  63.527  1.00  0.00    -0.497 C  
HETATM    2  C   UNL     1     -12.306  11.794  63.233  1.00  0.00    -0.412 C  
ENDROOT
BRANCH   2   3
HETATM    3  C   UNL     1     -13.049  12.467  64.379  1.00  0.00    -0.076 C  
BRANCH   3   4
HETATM    4  C   UNL     1     -12.220  13.583  64.970  1.00  0.00    -0.419 C  
HETATM    5  O   UNL     1     -12.199  14.687  64.432  1.00  0.00    -0.487 OA 
HETATM    6  N   UNL     1     -11.580  13.229  66.151  1.00  0.00    -0.333 N  
HETATM    7  H   UNL     1     -11.731  12.281  66.495  1.00  0.00     0.000 HD 
BRANCH   6   8
HETATM    8  C   UNL     1     -10.740  14.066  66.915  1.00  0.00    -0.285 A  
HETATM    9  C   UNL     1      -9.511  14.530  66.456  1.00  0.00    -0.310 A  
HETATM   10  C   UNL     1      -8.756  15.429  67.210  1.00  0.00    -0.215 A  
HETATM   11  C   UNL     1      -9.201  15.885  68.455  1.00  0.00    -0.197 A  
HETATM   12  C   UNL     1     -10.400  15.363  68.966  1.00  0.00    -0.243 A  
HETATM   13  C   UNL     1     -11.161  14.460  68.189  1.00  0.00    -0.279 A  
BRANCH  11  14
HETATM   14  O   UNL     1      -8.541  16.849  69.173  1.00  0.00    -0.192 OA 
BRANCH  14  15
HETATM   15  C   UNL     1      -7.166  17.093  68.832  1.00  0.00    -0.242 C  
BRANCH  15  16
HETATM   16  C   UNL     1      -6.781  18.519  69.250  1.00  0.00    -0.234 C  
HETATM   17  H   UNL     1      -5.188  19.659  69.118  1.00  0.00     0.000 HD 
HETATM   18  O   UNL     1      -5.426  18.777  68.859  1.00  0.00    -0.190 OA 
BRANCH  16  19
HETATM   19  C   UNL     1      -7.694  19.591  68.619  1.00  0.00    -0.355 C  
BRANCH  19  20
HETATM   20  N   UNL     1      -8.156  19.207  67.282  1.00  0.00    -0.261 NA 
HETATM   21  H   UNL     1      -8.048  18.203  67.139  1.00  0.00     0.000 HD 
BRANCH  20  22
HETATM   22  C   UNL     1      -9.534  19.627  66.991  1.00  0.00    -0.349 C  
HETATM   23  C   UNL     1     -10.290  18.614  66.120  1.00  0.00    -0.481 C  
HETATM   24  C   UNL     1     -10.268  19.788  68.322  1.00  0.00    -0.569 C  
ENDBRANCH  20  22
ENDBRANCH  19  20
ENDBRANCH  16  19
ENDBRANCH  15  16
ENDBRANCH  14  15
ENDBRANCH  11  14
BRANCH  12  25
HETATM   25  C   UNL     1     -10.987  15.741  70.288  1.00  0.00    -0.357 C  
HETATM   26  C   UNL     1     -11.168  14.725  71.384  1.00  0.00    -0.011 C  
HETATM   27  O   UNL     1     -11.367  16.901  70.450  1.00  0.00     0.060 OA 
ENDBRANCH  12  25
ENDBRANCH   6   8
ENDBRANCH   3   4
ENDBRANCH   2   3
TORSDOF 10
ENDMDL
MODEL       94
REMARK 921   NORMALIZED FREE ENERGY PREDICTED BY IDOCK:   -4.52 KCAL/MOL
REMARK 922        TOTAL FREE ENERGY PREDICTED BY IDOCK:   -8.20 KCAL/MOL
REMARK 923 INTER-LIGAND FREE ENERGY PREDICTED BY IDOCK:   -7.53 KCAL/MOL
REMARK 924 INTRA-LIGAND FREE ENERGY PREDICTED BY IDOCK:   -0.67 KCAL/MOL
REMARK 927      BINDING AFFINITY PREDICTED BY RF-SCORE:    0.00 PKD
ROOT
HETATM    1  C   UNL     1     -10.842  16.475  65.159  1.00  0.00    -0.247 C  
HETATM    2  C   UNL     1     -10.831  15.058  64.613  1.00  0.00    -0.290 C  
ENDROOT
BRANCH   2   3
HETATM    3  C   UNL     1     -12.241  14.489  64.525  1.00  0.00    -0.483 C  
BRANCH   3   4
HETATM    4  C   UNL     1     -12.332  13.172  65.261  1.00  0.00    -0.481 C  
HETATM    5  O   UNL     1     -13.182  12.346  64.942  1.00  0.00    -0.714 OA 
HETATM    6  N   UNL     1     -11.356  13.016  66.236  1.00  0.00    -0.305 N  
HETATM    7  H   UNL     1     -10.690  13.780  66.354  1.00  0.00     0.000 HD 
BRANCH   6   8
HETATM    8  C   UNL     1     -11.204  11.893  67.077  1.00  0.00    -0.323 A  
HETATM    9  C   UNL     1     -10.519  10.745  66.692  1.00  0.00    -0.302 A  
HETATM   10  C   UNL     1     -10.316   9.696  67.589  1.00  0.00    -0.290 A  
HETATM   11  C   UNL     1     -10.802   9.757  68.899  1.00  0.00    -0.192 A  
HETATM   12  C   UNL     1     -11.564  10.875  69.276  1.00  0.00    -0.388 A  
HETATM   13  C   UNL     1     -11.755  11.935  68.361  1.00  0.00    -0.387 A  
BRANCH  11  14
HETATM   14  O   UNL     1     -10.529   8.797  69.840  1.00  0.00    -0.211 OA 
BRANCH  14  15
HETATM   15  C   UNL     1     -10.571   7.427  69.407  1.00  0.00    -0.226 C  
BRANCH  15  16
HETATM   16  C   UNL     1      -9.227   6.752  69.714  1.00  0.00    -0.146 C  
HETATM   17  H   UNL     1      -7.391   6.861  69.027  1.00  0.00     0.000 HD 
HETATM   18  O   UNL     1      -8.223   7.278  68.837  1.00  0.00    -0.123 OA 
BRANCH  16  19
HETATM   19  C   UNL     1      -8.774   6.966  71.174  1.00  0.00    -0.135 C  
BRANCH  19  20
HETATM   20  N   UNL     1      -9.036   5.792  72.012  1.00  0.00    -0.138 NA 
HETATM   21  H   UNL     1      -8.166   5.419  72.390  1.00  0.00     0.000 HD 
BRANCH  20  22
HETATM   22  C   UNL     1     -10.006   6.040  73.088  1.00  0.00    -0.178 C  
HETATM   23  C   UNL     1     -10.228   7.536  73.351  1.00  0.00    -0.399 C  
HETATM   24  C   UNL     1     -11.334   5.400  72.681  1.00  0.00    -0.327 C  
ENDBRANCH  20  22
ENDBRANCH  19  20
ENDBRANCH  16  19
ENDBRANCH  15  16
ENDBRANCH  14  15
ENDBRANCH  11  14
BRANCH  12  25
HETATM   25  C   UNL     1     -12.163  11.068  70.632  1.00  0.00    -0.385 C  
HETATM   26  C   UNL     1     -12.523   9.895  71.504  1.00  0.00    -0.506 C  
HETATM   27  O   UNL     1     -12.401  12.216  71.009  1.00  0.00    -0.351 OA 
ENDBRANCH  12  25
ENDBRANCH   6   8
ENDBRANCH   3   4
ENDBRANCH   2   3
TORSDOF 10
ENDMDL
MODEL       95
REMARK 921   NORMALIZED FREE ENERGY PREDICTED BY IDOCK:   -4.52 KCAL/MOL
REMARK 922        TOTAL FREE ENERGY PREDICTED BY IDOCK:   -8.20 KCAL/MOL
REMARK 923 INTER-LIGAND FREE ENERGY PREDICTED BY IDOCK:   -7.51 KCAL/MOL
REMARK 924 INTRA-LIGAND FREE ENERGY PREDICTED BY IDOCK:   -0.69 KCAL/MOL
REMARK 927      BINDING AFFINITY PREDICTED BY RF-SCORE:    0.00 PKD
ROOT
HETATM    1  C   UNL     1      -9.941   5.598  68.005  1.00  0.00    -0.178 C  
HETATM    2  C   UNL     1      -9.624   5.643  66.520  1.00  0.00    -0.171 C  
ENDROOT
BRANCH   2   3
HETATM    3  C   UNL     1      -8.350   6.433  66.251  1.00  0.00    -0.123 C  
BRANCH   3   4
HETATM    4  C   UNL     1      -8.567   7.904  66.519  1.00  0.00    -0.142 C  
HETATM    5  O   UNL     1      -7.750   8.537  67.182  1.00  0.00    -0.095 OA 
HETATM    6  N   UNL     1      -9.704   8.414  65.907  1.00  0.00    -0.465 N  
HETATM    7  H   UNL     1     -10.263   7.768  65.350  1.00  0.00     0.000 HD 
BRANCH   6   8
HETATM    8  C   UNL     1     -10.155   9.749  65.988  1.00  0.00    -0.251 A  
HETATM    9  C   UNL     1     -10.129  10.624  64.907  1.00  0.00    -0.402 A  
HETATM   10  C   UNL     1     -10.669  11.907  65.009  1.00  0.00    -0.341 A  
HETATM   11  C   UNL     1     -11.243  12.360  66.202  1.00  0.00    -0.322 A  
HETATM   12  C   UNL     1     -11.203  11.517  67.323  1.00  0.00    -0.365 A  
HETATM   13  C   UNL     1     -10.661  10.216  67.204  1.00  0.00    -0.286 A  
BRANCH  11  14
HETATM   14  O   UNL     1     -11.880  13.570  66.308  1.00  0.00    -0.353 OA 
BRANCH  14  15
HETATM   15  C   UNL     1     -11.237  14.703  65.701  1.00  0.00    -0.342 C  
BRANCH  15  16
HETATM   16  C   UNL     1     -10.280  15.351  66.711  1.00  0.00    -0.271 C  
HETATM   17  H   UNL     1      -8.339  15.400  67.002  1.00  0.00     0.000 HD 
HETATM   18  O   UNL     1      -8.931  14.999  66.377  1.00  0.00    -0.280 OA 
BRANCH  16  19
HETATM   19  C   UNL     1     -10.400  16.888  66.744  1.00  0.00    -0.298 C  
BRANCH  19  20
HETATM   20  N   UNL     1      -9.373  17.541  65.926  1.00  0.00    -0.524 NA 
HETATM   21  H   UNL     1      -9.653  17.562  64.946  1.00  0.00     0.000 HD 
BRANCH  20  22
HETATM   22  C   UNL     1      -9.016  18.888  66.393  1.00  0.00    -0.310 C  
HETATM   23  C   UNL     1     -10.215  19.847  66.407  1.00  0.00    -0.617 C  
HETATM   24  C   UNL     1      -8.460  18.762  67.812  1.00  0.00    -0.298 C  
ENDBRANCH  20  22
ENDBRANCH  19  20
ENDBRANCH  16  19
ENDBRANCH  15  16
ENDBRANCH  14  15
ENDBRANCH  11  14
BRANCH  12  25
HETATM   25  C   UNL     1     -11.756  11.872  68.665  1.00  0.00    -0.323 C  
HETATM   26  C   UNL     1     -11.448  13.194  69.315  1.00  0.00    -0.348 C  
HETATM   27  O   UNL     1     -12.440  11.036  69.257  1.00  0.00    -0.400 OA 
ENDBRANCH  12  25
ENDBRANCH   6   8
ENDBRANCH   3   4
ENDBRANCH   2   3
TORSDOF 10
ENDMDL
MODEL       96
REMARK 921   NORMALIZED FREE ENERGY PREDICTED BY IDOCK:   -4.52 KCAL/MOL
REMARK 922        TOTAL FREE ENERGY PREDICTED BY IDOCK:   -8.19 KCAL/MOL
REMARK 923 INTER-LIGAND FREE ENERGY PREDICTED BY IDOCK:   -6.93 KCAL/MOL
REMARK 924 INTRA-LIGAND FREE ENERGY PREDICTED BY IDOCK:   -1.26 KCAL/MOL
REMARK 927      BINDING AFFINITY PREDICTED BY RF-SCORE:    0.00 PKD
ROOT
HETATM    1  C   UNL     1     -12.031  12.953  63.366  1.00  0.00    -0.612 C  
HETATM    2  C   UNL     1     -12.611  12.510  64.698  1.00  0.00    -0.507 C  
ENDROOT
BRANCH   2   3
HETATM    3  C   UNL     1     -12.629  13.656  65.701  1.00  0.00    -0.531 C  
BRANCH   3   4
HETATM    4  C   UNL     1     -11.878  13.277  66.957  1.00  0.00    -0.390 C  
HETATM    5  O   UNL     1     -11.719  14.103  67.851  1.00  0.00    -0.326 OA 
HETATM    6  N   UNL     1     -11.476  11.949  66.980  1.00  0.00    -0.328 N  
HETATM    7  H   UNL     1     -11.722  11.373  66.174  1.00  0.00     0.000 HD 
BRANCH   6   8
HETATM    8  C   UNL     1     -10.756  11.324  68.022  1.00  0.00    -0.203 A  
HETATM    9  C   UNL     1     -11.374  10.703  69.103  1.00  0.00    -0.338 A  
HETATM   10  C   UNL     1     -10.624  10.019  70.061  1.00  0.00    -0.344 A  
HETATM   11  C   UNL     1      -9.231   9.945  69.975  1.00  0.00    -0.183 A  
HETATM   12  C   UNL     1      -8.589  10.635  68.934  1.00  0.00    -0.158 A  
HETATM   13  C   UNL     1      -9.360  11.317  67.964  1.00  0.00    -0.166 A  
BRANCH  11  14
HETATM   14  O   UNL     1      -8.471   9.193  70.834  1.00  0.00    -0.192 OA 
BRANCH  14  15
HETATM   15  C   UNL     1      -8.907   7.847  71.085  1.00  0.00    -0.138 C  
BRANCH  15  16
HETATM   16  C   UNL     1      -9.056   7.631  72.598  1.00  0.00    -0.157 C  
HETATM   17  H   UNL     1      -8.349   8.464  74.229  1.00  0.00     0.000 HD 
HETATM   18  O   UNL     1      -8.257   8.597  73.293  1.00  0.00    -0.411 OA 
BRANCH  16  19
HETATM   19  C   UNL     1     -10.517   7.757  73.076  1.00  0.00    -0.369 C  
BRANCH  19  20
HETATM   20  N   UNL     1     -11.317   6.578  72.726  1.00  0.00    -0.418 NA 
HETATM   21  H   UNL     1     -11.553   6.043  73.562  1.00  0.00     0.000 HD 
BRANCH  20  22
HETATM   22  C   UNL     1     -12.526   6.894  71.953  1.00  0.00    -0.311 C  
HETATM   23  C   UNL     1     -13.031   8.322  72.202  1.00  0.00    -0.327 C  
HETATM   24  C   UNL     1     -12.190   6.733  70.470  1.00  0.00    -0.253 C  
ENDBRANCH  20  22
ENDBRANCH  19  20
ENDBRANCH  16  19
ENDBRANCH  15  16
ENDBRANCH  14  15
ENDBRANCH  11  14
BRANCH  12  25
HETATM   25  C   UNL     1      -7.109  10.663  68.727  1.00  0.00    -0.076 C  
HETATM   26  C   UNL     1      -6.211  11.496  69.602  1.00  0.00    -0.124 C  
HETATM   27  O   UNL     1      -6.636  10.020  67.789  1.00  0.00    -0.066 OA 
ENDBRANCH  12  25
ENDBRANCH   6   8
ENDBRANCH   3   4
ENDBRANCH   2   3
TORSDOF 10
ENDMDL
MODEL       97
REMARK 921   NORMALIZED FREE ENERGY PREDICTED BY IDOCK:   -4.52 KCAL/MOL
REMARK 922        TOTAL FREE ENERGY PREDICTED BY IDOCK:   -8.19 KCAL/MOL
REMARK 923 INTER-LIGAND FREE ENERGY PREDICTED BY IDOCK:   -7.42 KCAL/MOL
REMARK 924 INTRA-LIGAND FREE ENERGY PREDICTED BY IDOCK:   -0.77 KCAL/MOL
REMARK 927      BINDING AFFINITY PREDICTED BY RF-SCORE:    0.00 PKD
ROOT
HETATM    1  C   UNL     1      -7.420   5.891  66.079  1.00  0.00    -0.085 C  
HETATM    2  C   UNL     1      -8.867   6.350  66.124  1.00  0.00    -0.158 C  
ENDROOT
BRANCH   2   3
HETATM    3  C   UNL     1      -9.242   6.862  67.508  1.00  0.00    -0.124 C  
BRANCH   3   4
HETATM    4  C   UNL     1      -9.415   8.363  67.494  1.00  0.00    -0.149 C  
HETATM    5  O   UNL     1      -8.498   9.084  67.109  1.00  0.00    -0.113 OA 
HETATM    6  N   UNL     1     -10.679   8.777  67.889  1.00  0.00    -0.456 N  
HETATM    7  H   UNL     1     -11.350   8.050  68.141  1.00  0.00     0.000 HD 
BRANCH   6   8
HETATM    8  C   UNL     1     -11.119  10.115  67.975  1.00  0.00    -0.240 A  
HETATM    9  C   UNL     1     -11.404  10.743  69.184  1.00  0.00    -0.348 A  
HETATM   10  C   UNL     1     -11.748  12.095  69.227  1.00  0.00    -0.386 A  
HETATM   11  C   UNL     1     -11.829  12.860  68.059  1.00  0.00    -0.343 A  
HETATM   12  C   UNL     1     -11.622  12.220  66.826  1.00  0.00    -0.434 A  
HETATM   13  C   UNL     1     -11.265  10.852  66.797  1.00  0.00    -0.109 A  
BRANCH  11  14
HETATM   14  O   UNL     1     -12.056  14.213  68.070  1.00  0.00    -0.351 OA 
BRANCH  14  15
HETATM   15  C   UNL     1     -12.169  14.846  69.355  1.00  0.00    -0.205 C  
BRANCH  15  16
HETATM   16  C   UNL     1     -11.275  16.094  69.390  1.00  0.00    -0.335 C  
HETATM   17  H   UNL     1      -9.536  16.577  70.162  1.00  0.00     0.000 HD 
HETATM   18  O   UNL     1     -10.089  15.804  70.141  1.00  0.00    -0.264 OA 
BRANCH  16  19
HETATM   19  C   UNL     1     -10.869  16.574  67.981  1.00  0.00    -0.337 C  
BRANCH  19  20
HETATM   20  N   UNL     1     -10.128  17.839  68.020  1.00  0.00    -0.335 NA 
HETATM   21  H   UNL     1      -9.155  17.694  67.753  1.00  0.00     0.000 HD 
BRANCH  20  22
HETATM   22  C   UNL     1     -10.736  18.904  67.211  1.00  0.00    -0.449 C  
HETATM   23  C   UNL     1     -10.104  20.279  67.471  1.00  0.00    -0.519 C  
HETATM   24  C   UNL     1     -10.550  18.539  65.738  1.00  0.00    -0.265 C  
ENDBRANCH  20  22
ENDBRANCH  19  20
ENDBRANCH  16  19
ENDBRANCH  15  16
ENDBRANCH  14  15
ENDBRANCH  11  14
BRANCH  12  25
HETATM   25  C   UNL     1     -11.696  12.903  65.499  1.00  0.00    -0.383 C  
HETATM   26  C   UNL     1     -10.569  13.766  64.998  1.00  0.00    -0.402 C  
HETATM   27  O   UNL     1     -12.726  12.783  64.835  1.00  0.00    -0.629 OA 
ENDBRANCH  12  25
ENDBRANCH   6   8
ENDBRANCH   3   4
ENDBRANCH   2   3
TORSDOF 10
ENDMDL
MODEL       98
REMARK 921   NORMALIZED FREE ENERGY PREDICTED BY IDOCK:   -4.50 KCAL/MOL
REMARK 922        TOTAL FREE ENERGY PREDICTED BY IDOCK:   -8.16 KCAL/MOL
REMARK 923 INTER-LIGAND FREE ENERGY PREDICTED BY IDOCK:   -7.00 KCAL/MOL
REMARK 924 INTRA-LIGAND FREE ENERGY PREDICTED BY IDOCK:   -1.16 KCAL/MOL
REMARK 927      BINDING AFFINITY PREDICTED BY RF-SCORE:    0.00 PKD
ROOT
HETATM    1  C   UNL     1      -9.211   4.367  64.237  1.00  0.00    -0.145 C  
HETATM    2  C   UNL     1     -10.254   4.036  65.290  1.00  0.00    -0.149 C  
ENDROOT
BRANCH   2   3
HETATM    3  C   UNL     1      -9.642   4.008  66.684  1.00  0.00    -0.228 C  
BRANCH   3   4
HETATM    4  C   UNL     1      -9.336   5.410  67.160  1.00  0.00    -0.117 C  
HETATM    5  O   UNL     1      -8.171   5.766  67.315  1.00  0.00    -0.102 OA 
HETATM    6  N   UNL     1     -10.468   6.196  67.327  1.00  0.00    -0.219 N  
HETATM    7  H   UNL     1     -11.369   5.766  67.115  1.00  0.00     0.000 HD 
BRANCH   6   8
HETATM    8  C   UNL     1     -10.482   7.538  67.764  1.00  0.00    -0.223 A  
HETATM    9  C   UNL     1     -10.343   8.618  66.898  1.00  0.00    -0.355 A  
HETATM   10  C   UNL     1     -10.454   9.929  67.363  1.00  0.00    -0.325 A  
HETATM   11  C   UNL     1     -10.698  10.202  68.713  1.00  0.00    -0.220 A  
HETATM   12  C   UNL     1     -10.760   9.124  69.610  1.00  0.00    -0.236 A  
HETATM   13  C   UNL     1     -10.655   7.800  69.125  1.00  0.00    -0.193 A  
BRANCH  11  14
HETATM   14  O   UNL     1     -10.922  11.469  69.187  1.00  0.00    -0.220 OA 
BRANCH  14  15
HETATM   15  C   UNL     1     -12.000  12.209  68.591  1.00  0.00    -0.237 C  
BRANCH  15  16
HETATM   16  C   UNL     1     -11.505  13.609  68.201  1.00  0.00    -0.313 C  
HETATM   17  H   UNL     1      -9.767  14.504  68.021  1.00  0.00     0.000 HD 
HETATM   18  O   UNL     1     -10.074  13.638  68.262  1.00  0.00    -0.229 OA 
BRANCH  16  19
HETATM   19  C   UNL     1     -11.953  14.026  66.785  1.00  0.00    -0.444 C  
BRANCH  19  20
HETATM   20  N   UNL     1     -12.484  12.895  66.017  1.00  0.00    -0.491 NA 
HETATM   21  H   UNL     1     -13.420  13.103  65.672  1.00  0.00     0.000 HD 
BRANCH  20  22
HETATM   22  C   UNL     1     -11.608  12.465  64.918  1.00  0.00    -0.343 C  
HETATM   23  C   UNL     1     -12.392  12.039  63.669  1.00  0.00    -0.648 C  
HETATM   24  C   UNL     1     -10.694  13.637  64.559  1.00  0.00    -0.420 C  
ENDBRANCH  20  22
ENDBRANCH  19  20
ENDBRANCH  16  19
ENDBRANCH  15  16
ENDBRANCH  14  15
ENDBRANCH  11  14
BRANCH  12  25
HETATM   25  C   UNL     1     -10.993   9.264  71.080  1.00  0.00    -0.320 C  
HETATM   26  C   UNL     1     -12.332   9.684  71.624  1.00  0.00    -0.489 C  
HETATM   27  O   UNL     1     -10.047   9.070  71.844  1.00  0.00    -0.339 OA 
ENDBRANCH  12  25
ENDBRANCH   6   8
ENDBRANCH   3   4
ENDBRANCH   2   3
TORSDOF 10
ENDMDL
MODEL       99
REMARK 921   NORMALIZED FREE ENERGY PREDICTED BY IDOCK:   -4.50 KCAL/MOL
REMARK 922        TOTAL FREE ENERGY PREDICTED BY IDOCK:   -8.16 KCAL/MOL
REMARK 923 INTER-LIGAND FREE ENERGY PREDICTED BY IDOCK:   -7.22 KCAL/MOL
REMARK 924 INTRA-LIGAND FREE ENERGY PREDICTED BY IDOCK:   -0.94 KCAL/MOL
REMARK 927      BINDING AFFINITY PREDICTED BY RF-SCORE:    0.00 PKD
ROOT
HETATM    1  C   UNL     1      -8.853  18.129  66.577  1.00  0.00    -0.286 C  
HETATM    2  C   UNL     1     -10.173  17.387  66.692  1.00  0.00    -0.324 C  
ENDROOT
BRANCH   2   3
HETATM    3  C   UNL     1     -10.750  17.501  68.096  1.00  0.00    -0.330 C  
BRANCH   3   4
HETATM    4  C   UNL     1     -10.608  16.193  68.839  1.00  0.00    -0.275 C  
HETATM    5  O   UNL     1      -9.618  15.984  69.534  1.00  0.00    -0.254 OA 
HETATM    6  N   UNL     1     -11.699  15.349  68.684  1.00  0.00    -0.426 N  
HETATM    7  H   UNL     1     -12.469  15.685  68.105  1.00  0.00     0.000 HD 
BRANCH   6   8
HETATM    8  C   UNL     1     -11.837  14.067  69.257  1.00  0.00    -0.344 A  
HETATM    9  C   UNL     1     -12.475  13.846  70.474  1.00  0.00    -0.422 A  
HETATM   10  C   UNL     1     -12.668  12.551  70.958  1.00  0.00    -0.316 A  
HETATM   11  C   UNL     1     -12.218  11.435  70.245  1.00  0.00    -0.349 A  
HETATM   12  C   UNL     1     -11.502  11.648  69.056  1.00  0.00    -0.356 A  
HETATM   13  C   UNL     1     -11.322  12.964  68.571  1.00  0.00    -0.324 A  
BRANCH  11  14
HETATM   14  O   UNL     1     -12.485  10.147  70.633  1.00  0.00    -0.303 OA 
BRANCH  14  15
HETATM   15  C   UNL     1     -11.666   9.596  71.678  1.00  0.00    -0.369 C  
BRANCH  15  16
HETATM   16  C   UNL     1     -12.211   8.218  72.081  1.00  0.00    -0.364 C  
HETATM   17  H   UNL     1     -13.222   6.778  71.210  1.00  0.00     0.000 HD 
HETATM   18  O   UNL     1     -12.885   7.631  70.961  1.00  0.00    -0.220 OA 
BRANCH  16  19
HETATM   19  C   UNL     1     -11.103   7.256  72.556  1.00  0.00    -0.293 C  
BRANCH  19  20
HETATM   20  N   UNL     1     -10.050   7.085  71.550  1.00  0.00    -0.188 NA 
HETATM   21  H   UNL     1      -9.196   7.562  71.839  1.00  0.00     0.000 HD 
BRANCH  20  22
HETATM   22  C   UNL     1      -9.773   5.680  71.220  1.00  0.00    -0.167 C  
HETATM   23  C   UNL     1     -10.357   4.703  72.250  1.00  0.00    -0.251 C  
HETATM   24  C   UNL     1     -10.388   5.389  69.850  1.00  0.00    -0.377 C  
ENDBRANCH  20  22
ENDBRANCH  19  20
ENDBRANCH  16  19
ENDBRANCH  15  16
ENDBRANCH  14  15
ENDBRANCH  11  14
BRANCH  12  25
HETATM   25  C   UNL     1     -10.945  10.556  68.200  1.00  0.00    -0.277 C  
HETATM   26  C   UNL     1      -9.744   9.759  68.632  1.00  0.00    -0.162 C  
HETATM   27  O   UNL     1     -11.465  10.348  67.103  1.00  0.00    -0.250 OA 
ENDBRANCH  12  25
ENDBRANCH   6   8
ENDBRANCH   3   4
ENDBRANCH   2   3
TORSDOF 10
ENDMDL
MODEL      100
REMARK 921   NORMALIZED FREE ENERGY PREDICTED BY IDOCK:   -4.50 KCAL/MOL
REMARK 922        TOTAL FREE ENERGY PREDICTED BY IDOCK:   -8.16 KCAL/MOL
REMARK 923 INTER-LIGAND FREE ENERGY PREDICTED BY IDOCK:   -6.72 KCAL/MOL
REMARK 924 INTRA-LIGAND FREE ENERGY PREDICTED BY IDOCK:   -1.44 KCAL/MOL
REMARK 927      BINDING AFFINITY PREDICTED BY RF-SCORE:    0.00 PKD
ROOT
HETATM    1  C   UNL     1      -9.333   5.361  72.622  1.00  0.00    -0.152 C  
HETATM    2  C   UNL     1      -9.481   6.827  72.989  1.00  0.00    -0.159 C  
ENDROOT
BRANCH   2   3
HETATM    3  C   UNL     1     -10.927   7.286  72.858  1.00  0.00    -0.381 C  
BRANCH   3   4
HETATM    4  C   UNL     1     -11.208   7.764  71.452  1.00  0.00    -0.246 C  
HETATM    5  O   UNL     1     -12.363   7.802  71.034  1.00  0.00    -0.277 OA 
HETATM    6  N   UNL     1     -10.072   8.177  70.771  1.00  0.00    -0.188 N  
HETATM    7  H   UNL     1      -9.184   8.123  71.271  1.00  0.00     0.000 HD 
BRANCH   6   8
HETATM    8  C   UNL     1     -10.036   8.664  69.446  1.00  0.00    -0.197 A  
HETATM    9  C   UNL     1     -10.241   7.852  68.335  1.00  0.00    -0.232 A  
HETATM   10  C   UNL     1     -10.287   8.394  67.049  1.00  0.00    -0.385 A  
HETATM   11  C   UNL     1     -10.117   9.766  66.834  1.00  0.00    -0.226 A  
HETATM   12  C   UNL     1      -9.830  10.584  67.938  1.00  0.00    -0.181 A  
HETATM   13  C   UNL     1      -9.795  10.024  69.236  1.00  0.00    -0.227 A  
BRANCH  11  14
HETATM   14  O   UNL     1     -10.265  10.348  65.601  1.00  0.00    -0.267 OA 
BRANCH  14  15
HETATM   15  C   UNL     1      -9.163  10.229  64.686  1.00  0.00    -0.244 C  
BRANCH  15  16
HETATM   16  C   UNL     1      -9.420  11.115  63.458  1.00  0.00    -0.276 C  
HETATM   17  H   UNL     1      -9.931  10.834  61.583  1.00  0.00     0.000 HD 
HETATM   18  O   UNL     1      -9.771  10.286  62.343  1.00  0.00    -0.229 OA 
BRANCH  16  19
HETATM   19  C   UNL     1     -10.550  12.141  63.691  1.00  0.00    -0.461 C  
BRANCH  19  20
HETATM   20  N   UNL     1     -10.151  13.200  64.623  1.00  0.00    -0.586 NA 
HETATM   21  H   UNL     1      -9.193  13.499  64.440  1.00  0.00     0.000 HD 
BRANCH  20  22
HETATM   22  C   UNL     1     -11.062  14.354  64.629  1.00  0.00    -0.354 C  
HETATM   23  C   UNL     1     -12.472  13.992  65.114  1.00  0.00    -0.472 C  
HETATM   24  C   UNL     1     -10.470  15.415  65.557  1.00  0.00    -0.402 C  
ENDBRANCH  20  22
ENDBRANCH  19  20
ENDBRANCH  16  19
ENDBRANCH  15  16
ENDBRANCH  14  15
ENDBRANCH  11  14
BRANCH  12  25
HETATM   25  C   UNL     1      -9.606  12.059  67.858  1.00  0.00    -0.196 C  
HETATM   26  C   UNL     1      -8.218  12.642  67.857  1.00  0.00    -0.170 C  
HETATM   27  O   UNL     1     -10.589  12.801  67.838  1.00  0.00    -0.212 OA 
ENDBRANCH  12  25
ENDBRANCH   6   8
ENDBRANCH   3   4
ENDBRANCH   2   3
TORSDOF 10
ENDMDL
MODEL      101
REMARK 921   NORMALIZED FREE ENERGY PREDICTED BY IDOCK:   -4.49 KCAL/MOL
REMARK 922        TOTAL FREE ENERGY PREDICTED BY IDOCK:   -8.15 KCAL/MOL
REMARK 923 INTER-LIGAND FREE ENERGY PREDICTED BY IDOCK:   -6.78 KCAL/MOL
REMARK 924 INTRA-LIGAND FREE ENERGY PREDICTED BY IDOCK:   -1.37 KCAL/MOL
REMARK 927      BINDING AFFINITY PREDICTED BY RF-SCORE:    0.00 PKD
ROOT
HETATM    1  C   UNL     1     -12.445  12.177  63.517  1.00  0.00    -0.666 C  
HETATM    2  C   UNL     1     -10.956  11.884  63.472  1.00  0.00    -0.505 C  
ENDROOT
BRANCH   2   3
HETATM    3  C   UNL     1     -10.559  10.875  64.541  1.00  0.00    -0.335 C  
BRANCH   3   4
HETATM    4  C   UNL     1     -10.204  11.576  65.832  1.00  0.00    -0.244 C  
HETATM    5  O   UNL     1     -10.444  11.040  66.910  1.00  0.00    -0.225 OA 
HETATM    6  N   UNL     1      -9.564  12.793  65.641  1.00  0.00    -0.457 N  
HETATM    7  H   UNL     1      -9.397  13.085  64.678  1.00  0.00     0.000 HD 
BRANCH   6   8
HETATM    8  C   UNL     1      -9.125  13.662  66.663  1.00  0.00    -0.174 A  
HETATM    9  C   UNL     1      -7.805  13.710  67.101  1.00  0.00    -0.028 A  
HETATM   10  C   UNL     1      -7.398  14.649  68.050  1.00  0.00    -0.142 A  
HETATM   11  C   UNL     1      -8.302  15.563  68.600  1.00  0.00    -0.172 A  
HETATM   12  C   UNL     1      -9.652  15.472  68.227  1.00  0.00    -0.201 A  
HETATM   13  C   UNL     1     -10.051  14.523  67.258  1.00  0.00    -0.247 A  
BRANCH  11  14
HETATM   14  O   UNL     1      -7.918  16.568  69.451  1.00  0.00    -0.176 OA 
BRANCH  14  15
HETATM   15  C   UNL     1      -6.577  17.066  69.313  1.00  0.00    -0.233 C  
BRANCH  15  16
HETATM   16  C   UNL     1      -6.581  18.594  69.461  1.00  0.00    -0.180 C  
HETATM   17  H   UNL     1      -5.578  19.925  70.498  1.00  0.00     0.000 HD 
HETATM   18  O   UNL     1      -5.576  18.979  70.407  1.00  0.00    -0.230 OA 
BRANCH  16  19
HETATM   19  C   UNL     1      -6.314  19.321  68.126  1.00  0.00    -0.223 C  
BRANCH  19  20
HETATM   20  N   UNL     1      -7.447  20.156  67.715  1.00  0.00    -0.290 NA 
HETATM   21  H   UNL     1      -7.190  20.748  66.925  1.00  0.00     0.000 HD 
BRANCH  20  22
HETATM   22  C   UNL     1      -8.665  19.390  67.415  1.00  0.00    -0.301 C  
HETATM   23  C   UNL     1      -9.839  20.286  66.997  1.00  0.00    -0.607 C  
HETATM   24  C   UNL     1      -8.344  18.423  66.275  1.00  0.00    -0.231 C  
ENDBRANCH  20  22
ENDBRANCH  19  20
ENDBRANCH  16  19
ENDBRANCH  15  16
ENDBRANCH  14  15
ENDBRANCH  11  14
BRANCH  12  25
HETATM   25  C   UNL     1     -10.732  16.366  68.747  1.00  0.00    -0.321 C  
HETATM   26  C   UNL     1     -11.273  16.211  70.143  1.00  0.00    -0.374 C  
HETATM   27  O   UNL     1     -11.208  17.211  67.989  1.00  0.00    -0.224 OA 
ENDBRANCH  12  25
ENDBRANCH   6   8
ENDBRANCH   3   4
ENDBRANCH   2   3
TORSDOF 10
ENDMDL
MODEL      102
REMARK 921   NORMALIZED FREE ENERGY PREDICTED BY IDOCK:   -4.44 KCAL/MOL
REMARK 922        TOTAL FREE ENERGY PREDICTED BY IDOCK:   -8.07 KCAL/MOL
REMARK 923 INTER-LIGAND FREE ENERGY PREDICTED BY IDOCK:   -6.93 KCAL/MOL
REMARK 924 INTRA-LIGAND FREE ENERGY PREDICTED BY IDOCK:   -1.14 KCAL/MOL
REMARK 927      BINDING AFFINITY PREDICTED BY RF-SCORE:    0.00 PKD
ROOT
HETATM    1  C   UNL     1     -11.234   7.682  71.688  1.00  0.00    -0.282 C  
HETATM    2  C   UNL     1     -10.454   6.517  71.106  1.00  0.00    -0.257 C  
ENDROOT
BRANCH   2   3
HETATM    3  C   UNL     1     -10.611   6.448  69.592  1.00  0.00    -0.309 C  
BRANCH   3   4
HETATM    4  C   UNL     1     -10.103   7.716  68.945  1.00  0.00    -0.197 C  
HETATM    5  O   UNL     1      -8.961   8.106  69.168  1.00  0.00    -0.143 OA 
HETATM    6  N   UNL     1     -11.020   8.301  68.082  1.00  0.00    -0.445 N  
HETATM    7  H   UNL     1     -11.919   7.831  67.970  1.00  0.00     0.000 HD 
BRANCH   6   8
HETATM    8  C   UNL     1     -10.819   9.489  67.348  1.00  0.00    -0.145 A  
HETATM    9  C   UNL     1     -11.225  10.739  67.804  1.00  0.00    -0.385 A  
HETATM   10  C   UNL     1     -10.924  11.897  67.086  1.00  0.00    -0.319 A  
HETATM   11  C   UNL     1     -10.215  11.840  65.881  1.00  0.00    -0.237 A  
HETATM   12  C   UNL     1      -9.869  10.579  65.370  1.00  0.00    -0.335 A  
HETATM   13  C   UNL     1     -10.172   9.414  66.111  1.00  0.00    -0.264 A  
BRANCH  11  14
HETATM   14  O   UNL     1      -9.806  12.961  65.205  1.00  0.00    -0.210 OA 
BRANCH  14  15
HETATM   15  C   UNL     1     -10.832  13.799  64.647  1.00  0.00    -0.406 C  
BRANCH  15  16
HETATM   16  C   UNL     1     -10.574  15.259  65.049  1.00  0.00    -0.418 C  
HETATM   17  H   UNL     1     -11.184  17.027  64.452  1.00  0.00     0.000 HD 
HETATM   18  O   UNL     1     -11.343  16.124  64.203  1.00  0.00    -0.657 OA 
BRANCH  16  19
HETATM   19  C   UNL     1     -10.942  15.544  66.520  1.00  0.00    -0.243 C  
BRANCH  19  20
HETATM   20  N   UNL     1      -9.880  15.136  67.445  1.00  0.00    -0.223 NA 
HETATM   21  H   UNL     1      -9.133  14.654  66.946  1.00  0.00     0.000 HD 
BRANCH  20  22
HETATM   22  C   UNL     1      -9.340  16.243  68.247  1.00  0.00    -0.204 C  
HETATM   23  C   UNL     1      -8.344  17.109  67.463  1.00  0.00    -0.199 C  
HETATM   24  C   UNL     1     -10.513  17.113  68.699  1.00  0.00    -0.366 C  
ENDBRANCH  20  22
ENDBRANCH  19  20
ENDBRANCH  16  19
ENDBRANCH  15  16
ENDBRANCH  14  15
ENDBRANCH  11  14
BRANCH  12  25
HETATM   25  C   UNL     1      -9.131  10.363  64.088  1.00  0.00    -0.242 C  
HETATM   26  C   UNL     1      -7.637  10.185  64.065  1.00  0.00    -0.128 C  
HETATM   27  O   UNL     1      -9.769  10.379  63.035  1.00  0.00    -0.318 OA 
ENDBRANCH  12  25
ENDBRANCH   6   8
ENDBRANCH   3   4
ENDBRANCH   2   3
TORSDOF 10
ENDMDL
MODEL      103
REMARK 921   NORMALIZED FREE ENERGY PREDICTED BY IDOCK:   -4.44 KCAL/MOL
REMARK 922        TOTAL FREE ENERGY PREDICTED BY IDOCK:   -8.07 KCAL/MOL
REMARK 923 INTER-LIGAND FREE ENERGY PREDICTED BY IDOCK:   -6.89 KCAL/MOL
REMARK 924 INTRA-LIGAND FREE ENERGY PREDICTED BY IDOCK:   -1.18 KCAL/MOL
REMARK 927      BINDING AFFINITY PREDICTED BY RF-SCORE:    0.00 PKD
ROOT
HETATM    1  C   UNL     1      -8.256   8.314  73.126  1.00  0.00    -0.233 C  
HETATM    2  C   UNL     1      -9.150   8.010  71.937  1.00  0.00    -0.210 C  
ENDROOT
BRANCH   2   3
HETATM    3  C   UNL     1     -10.621   8.172  72.296  1.00  0.00    -0.378 C  
BRANCH   3   4
HETATM    4  C   UNL     1     -11.301   9.126  71.341  1.00  0.00    -0.344 C  
HETATM    5  O   UNL     1     -12.496   9.378  71.470  1.00  0.00    -0.323 OA 
HETATM    6  N   UNL     1     -10.438   9.681  70.406  1.00  0.00    -0.273 N  
HETATM    7  H   UNL     1      -9.457   9.402  70.455  1.00  0.00     0.000 HD 
BRANCH   6   8
HETATM    8  C   UNL     1     -10.797  10.596  69.394  1.00  0.00    -0.246 A  
HETATM    9  C   UNL     1     -10.959  10.228  68.062  1.00  0.00    -0.345 A  
HETATM   10  C   UNL     1     -11.403  11.148  67.112  1.00  0.00    -0.257 A  
HETATM   11  C   UNL     1     -11.689  12.472  67.462  1.00  0.00    -0.374 A  
HETATM   12  C   UNL     1     -11.453  12.877  68.785  1.00  0.00    -0.345 A  
HETATM   13  C   UNL     1     -11.011  11.933  69.741  1.00  0.00     0.092 A  
BRANCH  11  14
HETATM   14  O   UNL     1     -12.231  13.374  66.582  1.00  0.00    -0.388 OA 
BRANCH  14  15
HETATM   15  C   UNL     1     -12.593  12.881  65.281  1.00  0.00    -0.439 C  
BRANCH  15  16
HETATM   16  C   UNL     1     -11.678  13.512  64.223  1.00  0.00    -0.416 C  
HETATM   17  H   UNL     1     -10.505  15.082  64.110  1.00  0.00     0.000 HD 
HETATM   18  O   UNL     1     -11.072  14.692  64.765  1.00  0.00    -0.383 OA 
BRANCH  16  19
HETATM   19  C   UNL     1     -10.565  12.553  63.751  1.00  0.00    -0.436 C  
BRANCH  19  20
HETATM   20  N   UNL     1      -9.467  12.461  64.718  1.00  0.00    -0.423 NA 
HETATM   21  H   UNL     1      -9.816  12.567  65.670  1.00  0.00     0.000 HD 
BRANCH  20  22
HETATM   22  C   UNL     1      -8.670  11.232  64.591  1.00  0.00     0.251 C  
HETATM   23  C   UNL     1      -8.005  10.819  65.911  1.00  0.00    -0.140 C  
HETATM   24  C   UNL     1      -9.604  10.113  64.130  1.00  0.00    -0.336 C  
ENDBRANCH  20  22
ENDBRANCH  19  20
ENDBRANCH  16  19
ENDBRANCH  15  16
ENDBRANCH  14  15
ENDBRANCH  11  14
BRANCH  12  25
HETATM   25  C   UNL     1     -11.692  14.260  69.298  1.00  0.00    -0.321 C  
HETATM   26  C   UNL     1     -12.702  14.531  70.381  1.00  0.00    -0.378 C  
HETATM   27  O   UNL     1     -11.074  15.192  68.782  1.00  0.00    -0.243 OA 
ENDBRANCH  12  25
ENDBRANCH   6   8
ENDBRANCH   3   4
ENDBRANCH   2   3
TORSDOF 10
ENDMDL
MODEL      104
REMARK 921   NORMALIZED FREE ENERGY PREDICTED BY IDOCK:   -4.42 KCAL/MOL
REMARK 922        TOTAL FREE ENERGY PREDICTED BY IDOCK:   -8.03 KCAL/MOL
REMARK 923 INTER-LIGAND FREE ENERGY PREDICTED BY IDOCK:   -6.72 KCAL/MOL
REMARK 924 INTRA-LIGAND FREE ENERGY PREDICTED BY IDOCK:   -1.31 KCAL/MOL
REMARK 927      BINDING AFFINITY PREDICTED BY RF-SCORE:    0.00 PKD
ROOT
HETATM    1  C   UNL     1     -10.659  19.852  67.465  1.00  0.00    -0.492 C  
HETATM    2  C   UNL     1     -10.067  19.540  66.102  1.00  0.00    -0.557 C  
ENDROOT
BRANCH   2   3
HETATM    3  C   UNL     1      -9.040  18.419  66.189  1.00  0.00    -0.123 C  
BRANCH   3   4
HETATM    4  C   UNL     1      -9.724  17.073  66.255  1.00  0.00    -0.283 C  
HETATM    5  O   UNL     1     -10.242  16.596  65.249  1.00  0.00    -0.600 OA 
HETATM    6  N   UNL     1      -9.639  16.471  67.503  1.00  0.00    -0.230 N  
HETATM    7  H   UNL     1      -9.135  16.978  68.231  1.00  0.00     0.000 HD 
BRANCH   6   8
HETATM    8  C   UNL     1     -10.189  15.219  67.853  1.00  0.00    -0.235 A  
HETATM    9  C   UNL     1     -11.474  15.072  68.366  1.00  0.00    -0.340 A  
HETATM   10  C   UNL     1     -12.008  13.807  68.612  1.00  0.00    -0.401 A  
HETATM   11  C   UNL     1     -11.268  12.646  68.363  1.00  0.00    -0.279 A  
HETATM   12  C   UNL     1      -9.943  12.782  67.922  1.00  0.00    -0.229 A  
HETATM   13  C   UNL     1      -9.416  14.070  67.667  1.00  0.00    -0.210 A  
BRANCH  11  14
HETATM   14  O   UNL     1     -11.796  11.386  68.488  1.00  0.00    -0.416 OA 
BRANCH  14  15
HETATM   15  C   UNL     1     -12.426  11.063  69.739  1.00  0.00    -0.183 C  
BRANCH  15  16
HETATM   16  C   UNL     1     -11.445  10.271  70.615  1.00  0.00    -0.349 C  
HETATM   17  H   UNL     1     -11.525   9.298  72.319  1.00  0.00     0.000 HD 
HETATM   18  O   UNL     1     -12.132   9.788  71.777  1.00  0.00    -0.390 OA 
BRANCH  16  19
HETATM   19  C   UNL     1     -10.819   9.072  69.872  1.00  0.00    -0.218 C  
BRANCH  19  20
HETATM   20  N   UNL     1      -9.420   8.854  70.253  1.00  0.00    -0.176 NA 
HETATM   21  H   UNL     1      -9.147   9.492  71.000  1.00  0.00     0.000 HD 
BRANCH  20  22
HETATM   22  C   UNL     1      -9.119   7.464  70.622  1.00  0.00    -0.156 C  
HETATM   23  C   UNL     1      -8.617   7.330  72.067  1.00  0.00    -0.117 C  
HETATM   24  C   UNL     1     -10.400   6.646  70.460  1.00  0.00    -0.231 C  
ENDBRANCH  20  22
ENDBRANCH  19  20
ENDBRANCH  16  19
ENDBRANCH  15  16
ENDBRANCH  14  15
ENDBRANCH  11  14
BRANCH  12  25
HETATM   25  C   UNL     1      -9.028  11.635  67.635  1.00  0.00    -0.166 C  
HETATM   26  C   UNL     1      -8.929  11.038  66.256  1.00  0.00    -0.195 C  
HETATM   27  O   UNL     1      -8.384  11.152  68.566  1.00  0.00    -0.141 OA 
ENDBRANCH  12  25
ENDBRANCH   6   8
ENDBRANCH   3   4
ENDBRANCH   2   3
TORSDOF 10
ENDMDL
MODEL      105
REMARK 921   NORMALIZED FREE ENERGY PREDICTED BY IDOCK:   -4.39 KCAL/MOL
REMARK 922        TOTAL FREE ENERGY PREDICTED BY IDOCK:   -7.99 KCAL/MOL
REMARK 923 INTER-LIGAND FREE ENERGY PREDICTED BY IDOCK:   -6.50 KCAL/MOL
REMARK 924 INTRA-LIGAND FREE ENERGY PREDICTED BY IDOCK:   -1.48 KCAL/MOL
REMARK 927      BINDING AFFINITY PREDICTED BY RF-SCORE:    0.00 PKD
ROOT
HETATM    1  C   UNL     1      -8.338   4.769  67.984  1.00  0.00    -0.102 C  
HETATM    2  C   UNL     1      -9.622   4.252  68.608  1.00  0.00    -0.210 C  
ENDROOT
BRANCH   2   3
HETATM    3  C   UNL     1     -10.147   5.213  69.667  1.00  0.00    -0.332 C  
BRANCH   3   4
HETATM    4  C   UNL     1     -10.545   6.530  69.042  1.00  0.00    -0.245 C  
HETATM    5  O   UNL     1     -11.235   6.546  68.027  1.00  0.00    -0.281 OA 
HETATM    6  N   UNL     1     -10.104   7.635  69.757  1.00  0.00    -0.192 N  
HETATM    7  H   UNL     1      -9.574   7.457  70.610  1.00  0.00     0.000 HD 
BRANCH   6   8
HETATM    8  C   UNL     1     -10.325   8.985  69.407  1.00  0.00    -0.213 A  
HETATM    9  C   UNL     1     -11.532   9.638  69.631  1.00  0.00    -0.045 A  
HETATM   10  C   UNL     1     -11.675  10.998  69.352  1.00  0.00    -0.394 A  
HETATM   11  C   UNL     1     -10.617  11.746  68.827  1.00  0.00    -0.206 A  
HETATM   12  C   UNL     1      -9.418  11.082  68.520  1.00  0.00    -0.188 A  
HETATM   13  C   UNL     1      -9.283   9.705  68.817  1.00  0.00    -0.141 A  
BRANCH  11  14
HETATM   14  O   UNL     1     -10.684  13.103  68.642  1.00  0.00    -0.247 OA 
BRANCH  14  15
HETATM   15  C   UNL     1     -11.987  13.669  68.419  1.00  0.00    -0.356 C  
BRANCH  15  16
HETATM   16  C   UNL     1     -12.047  14.271  67.008  1.00  0.00    -0.390 C  
HETATM   17  H   UNL     1     -10.914  15.440  65.911  1.00  0.00     0.000 HD 
HETATM   18  O   UNL     1     -10.877  15.067  66.784  1.00  0.00    -0.307 OA 
BRANCH  16  19
HETATM   19  C   UNL     1     -12.136  13.195  65.905  1.00  0.00    -0.444 C  
BRANCH  19  20
HETATM   20  N   UNL     1     -10.820  12.860  65.351  1.00  0.00    -0.278 NA 
HETATM   21  H   UNL     1     -10.396  12.092  65.870  1.00  0.00     0.000 HD 
BRANCH  20  22
HETATM   22  C   UNL     1     -10.845  12.564  63.912  1.00  0.00    -0.431 C  
HETATM   23  C   UNL     1      -9.873  11.441  63.523  1.00  0.00    -0.404 C  
HETATM   24  C   UNL     1     -12.268  12.144  63.543  1.00  0.00    -0.670 C  
ENDBRANCH  20  22
ENDBRANCH  19  20
ENDBRANCH  16  19
ENDBRANCH  15  16
ENDBRANCH  14  15
ENDBRANCH  11  14
BRANCH  12  25
HETATM   25  C   UNL     1      -8.212  11.745  67.938  1.00  0.00    -0.147 C  
HETATM   26  C   UNL     1      -7.045  12.145  68.800  1.00  0.00    -0.110 C  
HETATM   27  O   UNL     1      -8.209  12.002  66.734  1.00  0.00    -0.171 OA 
ENDBRANCH  12  25
ENDBRANCH   6   8
ENDBRANCH   3   4
ENDBRANCH   2   3
TORSDOF 10
ENDMDL
MODEL      106
REMARK 921   NORMALIZED FREE ENERGY PREDICTED BY IDOCK:   -4.38 KCAL/MOL
REMARK 922        TOTAL FREE ENERGY PREDICTED BY IDOCK:   -7.97 KCAL/MOL
REMARK 923 INTER-LIGAND FREE ENERGY PREDICTED BY IDOCK:   -6.60 KCAL/MOL
REMARK 924 INTRA-LIGAND FREE ENERGY PREDICTED BY IDOCK:   -1.37 KCAL/MOL
REMARK 927      BINDING AFFINITY PREDICTED BY RF-SCORE:    0.00 PKD
ROOT
HETATM    1  C   UNL     1      -6.712   8.933  62.649  1.00  0.00    -0.094 C  
HETATM    2  C   UNL     1      -8.087   8.762  63.271  1.00  0.00    -0.170 C  
ENDROOT
BRANCH   2   3
HETATM    3  C   UNL     1      -9.129   9.606  62.550  1.00  0.00    -0.283 C  
BRANCH   3   4
HETATM    4  C   UNL     1      -9.518  10.803  63.387  1.00  0.00    -0.316 C  
HETATM    5  O   UNL     1      -9.775  11.875  62.846  1.00  0.00    -0.349 OA 
HETATM    6  N   UNL     1      -9.595  10.525  64.745  1.00  0.00    -0.257 N  
HETATM    7  H   UNL     1      -9.391   9.569  65.037  1.00  0.00     0.000 HD 
BRANCH   6   8
HETATM    8  C   UNL     1      -9.930  11.450  65.757  1.00  0.00    -0.230 A  
HETATM    9  C   UNL     1     -11.229  11.628  66.221  1.00  0.00    -0.332 A  
HETATM   10  C   UNL     1     -11.500  12.488  67.287  1.00  0.00    -0.416 A  
HETATM   11  C   UNL     1     -10.478  13.207  67.915  1.00  0.00    -0.240 A  
HETATM   12  C   UNL     1      -9.175  13.099  67.405  1.00  0.00    -0.213 A  
HETATM   13  C   UNL     1      -8.912  12.217  66.331  1.00  0.00    -0.138 A  
BRANCH  11  14
HETATM   14  O   UNL     1     -10.688  13.976  69.032  1.00  0.00    -0.240 OA 
BRANCH  14  15
HETATM   15  C   UNL     1     -11.984  14.580  69.176  1.00  0.00    -0.309 C  
BRANCH  15  16
HETATM   16  C   UNL     1     -11.841  15.934  69.885  1.00  0.00    -0.300 C  
HETATM   17  H   UNL     1     -11.595  16.554  71.732  1.00  0.00     0.000 HD 
HETATM   18  O   UNL     1     -11.685  15.716  71.293  1.00  0.00    -0.342 OA 
BRANCH  16  19
HETATM   19  C   UNL     1     -10.637  16.750  69.370  1.00  0.00    -0.318 C  
BRANCH  19  20
HETATM   20  N   UNL     1     -10.663  16.916  67.914  1.00  0.00    -0.355 NA 
HETATM   21  H   UNL     1     -11.622  16.921  67.569  1.00  0.00     0.000 HD 
BRANCH  20  22
HETATM   22  C   UNL     1      -9.935  18.103  67.442  1.00  0.00    -0.323 C  
HETATM   23  C   UNL     1     -10.849  19.322  67.257  1.00  0.00    -0.554 C  
HETATM   24  C   UNL     1      -8.860  18.436  68.477  1.00  0.00    -0.336 C  
ENDBRANCH  20  22
ENDBRANCH  19  20
ENDBRANCH  16  19
ENDBRANCH  15  16
ENDBRANCH  14  15
ENDBRANCH  11  14
BRANCH  12  25
HETATM   25  C   UNL     1      -7.990  13.821  67.960  1.00  0.00    -0.156 C  
HETATM   26  C   UNL     1      -7.516  15.121  67.368  1.00  0.00    -0.239 C  
HETATM   27  O   UNL     1      -7.373  13.304  68.893  1.00  0.00    -0.094 OA 
ENDBRANCH  12  25
ENDBRANCH   6   8
ENDBRANCH   3   4
ENDBRANCH   2   3
TORSDOF 10
ENDMDL
MODEL      107
REMARK 921   NORMALIZED FREE ENERGY PREDICTED BY IDOCK:   -4.37 KCAL/MOL
REMARK 922        TOTAL FREE ENERGY PREDICTED BY IDOCK:   -7.95 KCAL/MOL
REMARK 923 INTER-LIGAND FREE ENERGY PREDICTED BY IDOCK:   -7.14 KCAL/MOL
REMARK 924 INTRA-LIGAND FREE ENERGY PREDICTED BY IDOCK:   -0.81 KCAL/MOL
REMARK 927      BINDING AFFINITY PREDICTED BY RF-SCORE:    0.00 PKD
ROOT
HETATM    1  C   UNL     1     -12.854  14.979  73.234  1.00  0.00    -0.647 C  
HETATM    2  C   UNL     1     -13.830  14.766  72.090  1.00  0.00    -0.578 C  
ENDROOT
BRANCH   2   3
HETATM    3  C   UNL     1     -13.485  13.513  71.295  1.00  0.00    -0.153 C  
BRANCH   3   4
HETATM    4  C   UNL     1     -12.326  13.776  70.362  1.00  0.00    -0.353 C  
HETATM    5  O   UNL     1     -11.598  12.852  70.008  1.00  0.00    -0.231 OA 
HETATM    6  N   UNL     1     -12.241  15.098  69.946  1.00  0.00    -0.426 N  
HETATM    7  H   UNL     1     -12.950  15.743  70.296  1.00  0.00     0.000 HD 
BRANCH   6   8
HETATM    8  C   UNL     1     -11.260  15.628  69.080  1.00  0.00    -0.315 A  
HETATM    9  C   UNL     1     -10.035  16.110  69.530  1.00  0.00    -0.222 A  
HETATM   10  C   UNL     1      -9.060  16.541  68.629  1.00  0.00    -0.239 A  
HETATM   11  C   UNL     1      -9.284  16.513  67.249  1.00  0.00    -0.216 A  
HETATM   12  C   UNL     1     -10.545  16.105  66.786  1.00  0.00    -0.277 A  
HETATM   13  C   UNL     1     -11.522  15.662  67.708  1.00  0.00    -0.209 A  
BRANCH  11  14
HETATM   14  O   UNL     1      -8.313  16.824  66.331  1.00  0.00    -0.256 OA 
BRANCH  14  15
HETATM   15  C   UNL     1      -7.340  17.809  66.716  1.00  0.00    -0.206 C  
BRANCH  15  16
HETATM   16  C   UNL     1      -8.045  19.145  66.987  1.00  0.00    -0.262 C  
HETATM   17  H   UNL     1      -7.964  20.543  68.363  1.00  0.00     0.000 HD 
HETATM   18  O   UNL     1      -7.528  19.716  68.196  1.00  0.00    -0.288 OA 
BRANCH  16  19
HETATM   19  C   UNL     1      -7.860  20.159  65.839  1.00  0.00    -0.192 C  
BRANCH  19  20
HETATM   20  N   UNL     1      -7.180  19.567  64.682  1.00  0.00     0.183 NA 
HETATM   21  H   UNL     1      -7.845  19.372  63.935  1.00  0.00     0.000 HD 
BRANCH  20  22
HETATM   22  C   UNL     1      -6.058  20.374  64.182  1.00  0.00    -0.276 C  
HETATM   23  C   UNL     1      -5.160  20.902  65.309  1.00  0.00    -0.226 C  
HETATM   24  C   UNL     1      -5.225  19.494  63.250  1.00  0.00    -0.307 C  
ENDBRANCH  20  22
ENDBRANCH  19  20
ENDBRANCH  16  19
ENDBRANCH  15  16
ENDBRANCH  14  15
ENDBRANCH  11  14
BRANCH  12  25
HETATM   25  C   UNL     1     -10.935  16.044  65.344  1.00  0.00    -0.253 C  
HETATM   26  C   UNL     1     -10.939  14.742  64.588  1.00  0.00    -0.332 C  
HETATM   27  O   UNL     1     -11.212  17.096  64.767  1.00  0.00    -0.860 OA 
ENDBRANCH  12  25
ENDBRANCH   6   8
ENDBRANCH   3   4
ENDBRANCH   2   3
TORSDOF 10
ENDMDL
MODEL      108
REMARK 921   NORMALIZED FREE ENERGY PREDICTED BY IDOCK:   -4.36 KCAL/MOL
REMARK 922        TOTAL FREE ENERGY PREDICTED BY IDOCK:   -7.95 KCAL/MOL
REMARK 923 INTER-LIGAND FREE ENERGY PREDICTED BY IDOCK:   -7.46 KCAL/MOL
REMARK 924 INTRA-LIGAND FREE ENERGY PREDICTED BY IDOCK:   -0.49 KCAL/MOL
REMARK 927      BINDING AFFINITY PREDICTED BY RF-SCORE:    0.00 PKD
ROOT
HETATM    1  C   UNL     1      -9.162   2.532  69.921  1.00  0.00    -0.195 C  
HETATM    2  C   UNL     1      -8.504   3.788  70.464  1.00  0.00    -0.100 C  
ENDROOT
BRANCH   2   3
HETATM    3  C   UNL     1      -9.403   4.492  71.472  1.00  0.00    -0.203 C  
BRANCH   3   4
HETATM    4  C   UNL     1     -10.106   5.666  70.831  1.00  0.00    -0.203 C  
HETATM    5  O   UNL     1     -10.994   5.476  70.004  1.00  0.00    -0.301 OA 
HETATM    6  N   UNL     1      -9.680   6.895  71.315  1.00  0.00    -0.172 N  
HETATM    7  H   UNL     1      -8.959   6.887  72.037  1.00  0.00     0.000 HD 
BRANCH   6   8
HETATM    8  C   UNL     1     -10.157   8.156  70.896  1.00  0.00    -0.188 A  
HETATM    9  C   UNL     1      -9.545   8.902  69.894  1.00  0.00    -0.185 A  
HETATM   10  C   UNL     1     -10.105  10.102  69.449  1.00  0.00    -0.250 A  
HETATM   11  C   UNL     1     -11.289  10.598  70.002  1.00  0.00    -0.324 A  
HETATM   12  C   UNL     1     -11.874   9.896  71.068  1.00  0.00    -0.463 A  
HETATM   13  C   UNL     1     -11.302   8.678  71.504  1.00  0.00    -0.358 A  
BRANCH  11  14
HETATM   14  O   UNL     1     -11.926  11.713  69.518  1.00  0.00    -0.307 OA 
BRANCH  14  15
HETATM   15  C   UNL     1     -11.179  12.558  68.627  1.00  0.00    -0.278 C  
BRANCH  15  16
HETATM   16  C   UNL     1     -12.030  13.777  68.246  1.00  0.00    -0.357 C  
HETATM   17  H   UNL     1     -12.362  15.567  68.981  1.00  0.00     0.000 HD 
HETATM   18  O   UNL     1     -11.835  14.812  69.218  1.00  0.00    -0.296 OA 
BRANCH  16  19
HETATM   19  C   UNL     1     -11.680  14.333  66.849  1.00  0.00    -0.408 C  
BRANCH  19  20
HETATM   20  N   UNL     1     -10.716  13.484  66.141  1.00  0.00    -0.286 NA 
HETATM   21  H   UNL     1     -10.768  12.523  66.479  1.00  0.00     0.000 HD 
BRANCH  20  22
HETATM   22  C   UNL     1     -10.854  13.529  64.679  1.00  0.00    -0.405 C  
HETATM   23  C   UNL     1     -11.163  12.154  64.071  1.00  0.00    -0.458 C  
HETATM   24  C   UNL     1     -11.994  14.491  64.343  1.00  0.00    -0.467 C  
ENDBRANCH  20  22
ENDBRANCH  19  20
ENDBRANCH  16  19
ENDBRANCH  15  16
ENDBRANCH  14  15
ENDBRANCH  11  14
BRANCH  12  25
HETATM   25  C   UNL     1     -13.125  10.316  71.769  1.00  0.00    -0.465 C  
HETATM   26  C   UNL     1     -14.212   9.326  72.092  1.00  0.00    -0.283 C  
HETATM   27  O   UNL     1     -13.273  11.508  72.040  1.00  0.00    -0.509 OA 
ENDBRANCH  12  25
ENDBRANCH   6   8
ENDBRANCH   3   4
ENDBRANCH   2   3
TORSDOF 10
ENDMDL
MODEL      109
REMARK 921   NORMALIZED FREE ENERGY PREDICTED BY IDOCK:   -4.35 KCAL/MOL
REMARK 922        TOTAL FREE ENERGY PREDICTED BY IDOCK:   -7.92 KCAL/MOL
REMARK 923 INTER-LIGAND FREE ENERGY PREDICTED BY IDOCK:   -6.56 KCAL/MOL
REMARK 924 INTRA-LIGAND FREE ENERGY PREDICTED BY IDOCK:   -1.36 KCAL/MOL
REMARK 927      BINDING AFFINITY PREDICTED BY RF-SCORE:    0.00 PKD
ROOT
HETATM    1  C   UNL     1     -10.289   6.067  73.525  1.00  0.00    -0.255 C  
HETATM    2  C   UNL     1     -11.397   6.493  72.578  1.00  0.00    -0.299 C  
ENDROOT
BRANCH   2   3
HETATM    3  C   UNL     1     -11.480   8.010  72.471  1.00  0.00    -0.471 C  
BRANCH   3   4
HETATM    4  C   UNL     1     -11.269   8.457  71.043  1.00  0.00    -0.266 C  
HETATM    5  O   UNL     1     -11.254   7.630  70.135  1.00  0.00    -0.254 OA 
HETATM    6  N   UNL     1     -11.163   9.834  70.905  1.00  0.00    -0.332 N  
HETATM    7  H   UNL     1     -11.239  10.394  71.755  1.00  0.00     0.000 HD 
BRANCH   6   8
HETATM    8  C   UNL     1     -10.959  10.527  69.693  1.00  0.00    -0.283 A  
HETATM    9  C   UNL     1     -11.999  10.877  68.837  1.00  0.00    -0.277 A  
HETATM   10  C   UNL     1     -11.760  11.642  67.694  1.00  0.00    -0.300 A  
HETATM   11  C   UNL     1     -10.471  12.073  67.366  1.00  0.00    -0.216 A  
HETATM   12  C   UNL     1      -9.402  11.660  68.177  1.00  0.00    -0.188 A  
HETATM   13  C   UNL     1      -9.658  10.892  69.337  1.00  0.00     0.009 A  
BRANCH  11  14
HETATM   14  O   UNL     1     -10.213  12.915  66.314  1.00  0.00    -0.265 OA 
BRANCH  14  15
HETATM   15  C   UNL     1     -10.988  14.123  66.239  1.00  0.00    -0.303 C  
BRANCH  15  16
HETATM   16  C   UNL     1     -10.255  15.248  66.984  1.00  0.00    -0.260 C  
HETATM   17  H   UNL     1      -9.294  16.888  66.493  1.00  0.00     0.000 HD 
HETATM   18  O   UNL     1      -9.747  16.192  66.032  1.00  0.00    -0.301 OA 
BRANCH  16  19
HETATM   19  C   UNL     1     -11.165  15.990  67.985  1.00  0.00    -0.303 C  
BRANCH  19  20
HETATM   20  N   UNL     1     -12.148  15.097  68.606  1.00  0.00    -0.586 NA 
HETATM   21  H   UNL     1     -12.032  14.143  68.267  1.00  0.00     0.000 HD 
BRANCH  20  22
HETATM   22  C   UNL     1     -12.129  15.131  70.075  1.00  0.00    -0.345 C  
HETATM   23  C   UNL     1     -12.549  13.795  70.704  1.00  0.00    -0.386 C  
HETATM   24  C   UNL     1     -10.706  15.468  70.520  1.00  0.00    -0.309 C  
ENDBRANCH  20  22
ENDBRANCH  19  20
ENDBRANCH  16  19
ENDBRANCH  15  16
ENDBRANCH  14  15
ENDBRANCH  11  14
BRANCH  12  25
HETATM   25  C   UNL     1      -7.973  12.024  67.939  1.00  0.00    -0.147 C  
HETATM   26  C   UNL     1      -7.383  13.290  68.502  1.00  0.00    -0.115 C  
HETATM   27  O   UNL     1      -7.290  11.286  67.229  1.00  0.00    -0.107 OA 
ENDBRANCH  12  25
ENDBRANCH   6   8
ENDBRANCH   3   4
ENDBRANCH   2   3
TORSDOF 10
ENDMDL
MODEL      110
REMARK 921   NORMALIZED FREE ENERGY PREDICTED BY IDOCK:   -4.34 KCAL/MOL
REMARK 922        TOTAL FREE ENERGY PREDICTED BY IDOCK:   -7.92 KCAL/MOL
REMARK 923 INTER-LIGAND FREE ENERGY PREDICTED BY IDOCK:   -6.90 KCAL/MOL
REMARK 924 INTRA-LIGAND FREE ENERGY PREDICTED BY IDOCK:   -1.01 KCAL/MOL
REMARK 927      BINDING AFFINITY PREDICTED BY RF-SCORE:    0.00 PKD
ROOT
HETATM    1  C   UNL     1     -11.280   8.549  72.143  1.00  0.00    -0.432 C  
HETATM    2  C   UNL     1     -11.262   9.622  71.068  1.00  0.00    -0.445 C  
ENDROOT
BRANCH   2   3
HETATM    3  C   UNL     1     -10.892   9.039  69.711  1.00  0.00    -0.215 C  
BRANCH   3   4
HETATM    4  C   UNL     1     -10.732  10.136  68.684  1.00  0.00    -0.222 C  
HETATM    5  O   UNL     1     -10.521   9.853  67.508  1.00  0.00    -0.220 OA 
HETATM    6  N   UNL     1     -10.904  11.411  69.207  1.00  0.00    -0.337 N  
HETATM    7  H   UNL     1     -11.118  11.480  70.203  1.00  0.00     0.000 HD 
BRANCH   6   8
HETATM    8  C   UNL     1     -10.808  12.618  68.483  1.00  0.00    -0.252 A  
HETATM    9  C   UNL     1     -11.893  13.202  67.836  1.00  0.00    -0.390 A  
HETATM   10  C   UNL     1     -11.771  14.443  67.209  1.00  0.00    -0.429 A  
HETATM   11  C   UNL     1     -10.556  15.135  67.200  1.00  0.00    -0.295 A  
HETATM   12  C   UNL     1      -9.434  14.521  67.779  1.00  0.00    -0.210 A  
HETATM   13  C   UNL     1      -9.572  13.267  68.419  1.00  0.00    -0.185 A  
BRANCH  11  14
HETATM   14  O   UNL     1     -10.426  16.402  66.691  1.00  0.00    -0.295 OA 
BRANCH  14  15
HETATM   15  C   UNL     1     -10.669  17.497  67.590  1.00  0.00    -0.306 C  
BRANCH  15  16
HETATM   16  C   UNL     1      -9.889  18.731  67.116  1.00  0.00    -0.316 C  
HETATM   17  H   UNL     1     -10.331  20.538  66.489  1.00  0.00     0.000 HD 
HETATM   18  O   UNL     1     -10.813  19.774  66.782  1.00  0.00    -0.472 OA 
BRANCH  16  19
HETATM   19  C   UNL     1      -8.905  19.258  68.181  1.00  0.00    -0.330 C  
BRANCH  19  20
HETATM   20  N   UNL     1      -7.972  20.247  67.631  1.00  0.00    -0.297 NA 
HETATM   21  H   UNL     1      -8.326  21.193  67.771  1.00  0.00     0.000 HD 
BRANCH  20  22
HETATM   22  C   UNL     1      -6.604  20.122  68.154  1.00  0.00    -0.292 C  
HETATM   23  C   UNL     1      -6.558  19.457  69.536  1.00  0.00    -0.346 C  
HETATM   24  C   UNL     1      -5.798  19.278  67.166  1.00  0.00    -0.174 C  
ENDBRANCH  20  22
ENDBRANCH  19  20
ENDBRANCH  16  19
ENDBRANCH  15  16
ENDBRANCH  14  15
ENDBRANCH  11  14
BRANCH  12  25
HETATM   25  C   UNL     1      -8.070  15.130  67.826  1.00  0.00    -0.146 C  
HETATM   26  C   UNL     1      -7.594  15.893  69.033  1.00  0.00    -0.202 C  
HETATM   27  O   UNL     1      -7.351  15.034  66.831  1.00  0.00    -0.098 OA 
ENDBRANCH  12  25
ENDBRANCH   6   8
ENDBRANCH   3   4
ENDBRANCH   2   3
TORSDOF 10
ENDMDL
MODEL      111
REMARK 921   NORMALIZED FREE ENERGY PREDICTED BY IDOCK:   -4.33 KCAL/MOL
REMARK 922        TOTAL FREE ENERGY PREDICTED BY IDOCK:   -7.89 KCAL/MOL
REMARK 923 INTER-LIGAND FREE ENERGY PREDICTED BY IDOCK:   -7.01 KCAL/MOL
REMARK 924 INTRA-LIGAND FREE ENERGY PREDICTED BY IDOCK:   -0.87 KCAL/MOL
REMARK 927      BINDING AFFINITY PREDICTED BY RF-SCORE:    0.00 PKD
ROOT
HETATM    1  C   UNL     1     -10.772   6.007  68.536  1.00  0.00    -0.354 C  
HETATM    2  C   UNL     1     -10.964   6.873  67.303  1.00  0.00    -0.406 C  
ENDROOT
BRANCH   2   3
HETATM    3  C   UNL     1      -9.630   7.204  66.648  1.00  0.00    -0.226 C  
BRANCH   3   4
HETATM    4  C   UNL     1      -9.562   8.670  66.286  1.00  0.00    -0.252 C  
HETATM    5  O   UNL     1      -8.973   9.027  65.270  1.00  0.00    -0.196 OA 
HETATM    6  N   UNL     1     -10.258   9.488  67.166  1.00  0.00    -0.224 N  
HETATM    7  H   UNL     1     -10.735   9.034  67.945  1.00  0.00     0.000 HD 
BRANCH   6   8
HETATM    8  C   UNL     1     -10.362  10.893  67.077  1.00  0.00    -0.231 A  
HETATM    9  C   UNL     1      -9.586  11.759  67.841  1.00  0.00    -0.187 A  
HETATM   10  C   UNL     1      -9.659  13.141  67.654  1.00  0.00    -0.210 A  
HETATM   11  C   UNL     1     -10.520  13.700  66.705  1.00  0.00    -0.272 A  
HETATM   12  C   UNL     1     -11.367  12.842  65.985  1.00  0.00    -0.363 A  
HETATM   13  C   UNL     1     -11.277  11.443  66.176  1.00  0.00    -0.203 A  
BRANCH  11  14
HETATM   14  O   UNL     1     -10.540  15.041  66.417  1.00  0.00    -0.295 OA 
BRANCH  14  15
HETATM   15  C   UNL     1      -9.320  15.623  65.929  1.00  0.00    -0.321 C  
BRANCH  15  16
HETATM   16  C   UNL     1      -9.299  17.121  66.265  1.00  0.00    -0.234 C  
HETATM   17  H   UNL     1     -10.632  18.523  66.596  1.00  0.00     0.000 HD 
HETATM   18  O   UNL     1     -10.645  17.597  66.388  1.00  0.00    -0.308 OA 
BRANCH  16  19
HETATM   19  C   UNL     1      -8.541  17.426  67.574  1.00  0.00    -0.218 C  
BRANCH  19  20
HETATM   20  N   UNL     1      -7.210  17.988  67.325  1.00  0.00    -0.191 NA 
HETATM   21  H   UNL     1      -7.220  19.002  67.437  1.00  0.00     0.000 HD 
BRANCH  20  22
HETATM   22  C   UNL     1      -6.152  17.386  68.149  1.00  0.00    -0.158 C  
HETATM   23  C   UNL     1      -6.695  16.356  69.149  1.00  0.00    -0.205 C  
HETATM   24  C   UNL     1      -5.160  16.698  67.211  1.00  0.00    -0.154 C  
ENDBRANCH  20  22
ENDBRANCH  19  20
ENDBRANCH  16  19
ENDBRANCH  15  16
ENDBRANCH  14  15
ENDBRANCH  11  14
BRANCH  12  25
HETATM   25  C   UNL     1     -12.350  13.297  64.955  1.00  0.00    -0.448 C  
HETATM   26  C   UNL     1     -12.153  12.992  63.494  1.00  0.00    -0.617 C  
HETATM   27  O   UNL     1     -13.312  13.972  65.322  1.00  0.00    -0.741 OA 
ENDBRANCH  12  25
ENDBRANCH   6   8
ENDBRANCH   3   4
ENDBRANCH   2   3
TORSDOF 10
ENDMDL
MODEL      112
REMARK 921   NORMALIZED FREE ENERGY PREDICTED BY IDOCK:   -4.33 KCAL/MOL
REMARK 922        TOTAL FREE ENERGY PREDICTED BY IDOCK:   -7.89 KCAL/MOL
REMARK 923 INTER-LIGAND FREE ENERGY PREDICTED BY IDOCK:   -6.41 KCAL/MOL
REMARK 924 INTRA-LIGAND FREE ENERGY PREDICTED BY IDOCK:   -1.47 KCAL/MOL
REMARK 927      BINDING AFFINITY PREDICTED BY RF-SCORE:    0.00 PKD
ROOT
HETATM    1  C   UNL     1     -13.301  15.558  73.015  1.00  0.00    -0.650 C  
HETATM    2  C   UNL     1     -11.988  15.724  72.269  1.00  0.00    -0.592 C  
ENDROOT
BRANCH   2   3
HETATM    3  C   UNL     1     -12.214  15.809  70.765  1.00  0.00    -0.441 C  
BRANCH   3   4
HETATM    4  C   UNL     1     -11.522  14.668  70.056  1.00  0.00    -0.265 C  
HETATM    5  O   UNL     1     -10.392  14.821  69.601  1.00  0.00    -0.172 OA 
HETATM    6  N   UNL     1     -12.263  13.495  70.044  1.00  0.00    -0.329 N  
HETATM    7  H   UNL     1     -13.174  13.514  70.504  1.00  0.00     0.000 HD 
BRANCH   6   8
HETATM    8  C   UNL     1     -11.868  12.276  69.451  1.00  0.00    -0.310 A  
HETATM    9  C   UNL     1     -11.777  12.099  68.074  1.00  0.00    -0.409 A  
HETATM   10  C   UNL     1     -11.294  10.906  67.535  1.00  0.00    -0.309 A  
HETATM   11  C   UNL     1     -10.898   9.846  68.357  1.00  0.00    -0.221 A  
HETATM   12  C   UNL     1     -11.061   9.982  69.745  1.00  0.00    -0.319 A  
HETATM   13  C   UNL     1     -11.542  11.199  70.280  1.00  0.00    -0.388 A  
BRANCH  11  14
HETATM   14  O   UNL     1     -10.318   8.703  67.870  1.00  0.00    -0.215 OA 
BRANCH  14  15
HETATM   15  C   UNL     1     -10.026   8.666  66.463  1.00  0.00    -0.282 C  
BRANCH  15  16
HETATM   16  C   UNL     1      -8.615   8.102  66.248  1.00  0.00    -0.144 C  
HETATM   17  H   UNL     1      -7.369   7.921  64.741  1.00  0.00     0.000 HD 
HETATM   18  O   UNL     1      -8.243   8.269  64.873  1.00  0.00    -0.146 OA 
BRANCH  16  19
HETATM   19  C   UNL     1      -7.558   8.790  67.137  1.00  0.00    -0.088 C  
BRANCH  19  20
HETATM   20  N   UNL     1      -7.458   8.168  68.461  1.00  0.00    -0.096 NA 
HETATM   21  H   UNL     1      -8.191   8.517  69.078  1.00  0.00     0.000 HD 
BRANCH  20  22
HETATM   22  C   UNL     1      -7.465   6.699  68.424  1.00  0.00    -0.095 C  
HETATM   23  C   UNL     1      -6.061   6.097  68.568  1.00  0.00    -0.024 C  
HETATM   24  C   UNL     1      -8.343   6.204  69.574  1.00  0.00    -0.120 C  
ENDBRANCH  20  22
ENDBRANCH  19  20
ENDBRANCH  16  19
ENDBRANCH  15  16
ENDBRANCH  14  15
ENDBRANCH  11  14
BRANCH  12  25
HETATM   25  C   UNL     1     -10.701   8.929  70.743  1.00  0.00    -0.233 C  
HETATM   26  C   UNL     1     -11.681   7.856  71.137  1.00  0.00    -0.306 C  
HETATM   27  O   UNL     1      -9.593   8.982  71.277  1.00  0.00    -0.260 OA 
ENDBRANCH  12  25
ENDBRANCH   6   8
ENDBRANCH   3   4
ENDBRANCH   2   3
TORSDOF 10
ENDMDL
MODEL      113
REMARK 921   NORMALIZED FREE ENERGY PREDICTED BY IDOCK:   -4.31 KCAL/MOL
REMARK 922        TOTAL FREE ENERGY PREDICTED BY IDOCK:   -7.86 KCAL/MOL
REMARK 923 INTER-LIGAND FREE ENERGY PREDICTED BY IDOCK:   -7.43 KCAL/MOL
REMARK 924 INTRA-LIGAND FREE ENERGY PREDICTED BY IDOCK:   -0.43 KCAL/MOL
REMARK 927      BINDING AFFINITY PREDICTED BY RF-SCORE:    0.00 PKD
ROOT
HETATM    1  C   UNL     1     -10.395  20.393  65.842  1.00  0.00    -0.178 C  
HETATM    2  C   UNL     1      -9.707  19.563  66.912  1.00  0.00    -0.457 C  
ENDROOT
BRANCH   2   3
HETATM    3  C   UNL     1     -10.637  18.491  67.463  1.00  0.00    -0.461 C  
BRANCH   3   4
HETATM    4  C   UNL     1     -10.404  17.172  66.763  1.00  0.00    -0.302 C  
HETATM    5  O   UNL     1     -10.093  17.151  65.576  1.00  0.00    -0.576 OA 
HETATM    6  N   UNL     1     -10.525  16.073  67.603  1.00  0.00    -0.286 N  
HETATM    7  H   UNL     1     -10.748  16.257  68.581  1.00  0.00     0.000 HD 
BRANCH   6   8
HETATM    8  C   UNL     1     -10.366  14.723  67.222  1.00  0.00    -0.247 A  
HETATM    9  C   UNL     1      -9.463  13.863  67.839  1.00  0.00    -0.212 A  
HETATM   10  C   UNL     1      -9.404  12.513  67.490  1.00  0.00    -0.187 A  
HETATM   11  C   UNL     1     -10.241  11.983  66.502  1.00  0.00    -0.206 A  
HETATM   12  C   UNL     1     -11.099  12.855  65.815  1.00  0.00    -0.312 A  
HETATM   13  C   UNL     1     -11.156  14.219  66.185  1.00  0.00    -0.324 A  
BRANCH  11  14
HETATM   14  O   UNL     1     -10.289  10.643  66.209  1.00  0.00    -0.242 OA 
BRANCH  14  15
HETATM   15  C   UNL     1      -9.109   9.870  66.486  1.00  0.00    -0.152 C  
BRANCH  15  16
HETATM   16  C   UNL     1      -9.479   8.671  67.369  1.00  0.00    -0.150 C  
HETATM   17  H   UNL     1     -11.091   8.020  68.282  1.00  0.00     0.000 HD 
HETATM   18  O   UNL     1     -10.862   8.763  67.735  1.00  0.00    -0.167 OA 
BRANCH  16  19
HETATM   19  C   UNL     1      -9.239   7.318  66.667  1.00  0.00    -0.157 C  
BRANCH  19  20
HETATM   20  N   UNL     1     -10.491   6.684  66.243  1.00  0.00    -0.428 NA 
HETATM   21  H   UNL     1     -10.638   6.811  65.242  1.00  0.00     0.000 HD 
BRANCH  20  22
HETATM   22  C   UNL     1     -10.584   5.263  66.605  1.00  0.00    -0.270 C  
HETATM   23  C   UNL     1     -10.237   4.331  65.436  1.00  0.00    -0.235 C  
HETATM   24  C   UNL     1      -9.611   5.006  67.756  1.00  0.00    -0.178 C  
ENDBRANCH  20  22
ENDBRANCH  19  20
ENDBRANCH  16  19
ENDBRANCH  15  16
ENDBRANCH  14  15
ENDBRANCH  11  14
BRANCH  12  25
HETATM   25  C   UNL     1     -12.032  12.436  64.726  1.00  0.00    -0.398 C  
HETATM   26  C   UNL     1     -11.524  11.789  63.465  1.00  0.00    -0.489 C  
HETATM   27  O   UNL     1     -13.233  12.673  64.860  1.00  0.00    -0.819 OA 
ENDBRANCH  12  25
ENDBRANCH   6   8
ENDBRANCH   3   4
ENDBRANCH   2   3
TORSDOF 10
ENDMDL
MODEL      114
REMARK 921   NORMALIZED FREE ENERGY PREDICTED BY IDOCK:   -4.29 KCAL/MOL
REMARK 922        TOTAL FREE ENERGY PREDICTED BY IDOCK:   -7.83 KCAL/MOL
REMARK 923 INTER-LIGAND FREE ENERGY PREDICTED BY IDOCK:   -6.78 KCAL/MOL
REMARK 924 INTRA-LIGAND FREE ENERGY PREDICTED BY IDOCK:   -1.04 KCAL/MOL
REMARK 927      BINDING AFFINITY PREDICTED BY RF-SCORE:    0.00 PKD
ROOT
HETATM    1  C   UNL     1      -9.572  11.362  62.958  1.00  0.00    -0.397 C  
HETATM    2  C   UNL     1     -10.467  10.995  64.129  1.00  0.00    -0.434 C  
ENDROOT
BRANCH   2   3
HETATM    3  C   UNL     1      -9.902  11.523  65.442  1.00  0.00    -0.271 C  
BRANCH   3   4
HETATM    4  C   UNL     1     -10.099  10.514  66.550  1.00  0.00    -0.225 C  
HETATM    5  O   UNL     1     -10.379   9.350  66.280  1.00  0.00    -0.240 OA 
HETATM    6  N   UNL     1      -9.876  11.036  67.817  1.00  0.00    -0.171 N  
HETATM    7  H   UNL     1      -9.607  12.019  67.875  1.00  0.00     0.000 HD 
BRANCH   6   8
HETATM    8  C   UNL     1      -9.991  10.327  69.032  1.00  0.00    -0.213 A  
HETATM    9  C   UNL     1      -8.909   9.717  69.658  1.00  0.00    -0.212 A  
HETATM   10  C   UNL     1      -9.052   9.105  70.904  1.00  0.00    -0.316 A  
HETATM   11  C   UNL     1     -10.287   9.074  71.559  1.00  0.00    -0.342 A  
HETATM   12  C   UNL     1     -11.404   9.615  70.903  1.00  0.00    -0.431 A  
HETATM   13  C   UNL     1     -11.244  10.241  69.645  1.00  0.00    -0.322 A  
BRANCH  11  14
HETATM   14  O   UNL     1     -10.444   8.580  72.829  1.00  0.00    -0.250 OA 
BRANCH  14  15
HETATM   15  C   UNL     1     -10.945   7.238  72.952  1.00  0.00    -0.337 C  
BRANCH  15  16
HETATM   16  C   UNL     1      -9.883   6.248  72.452  1.00  0.00    -0.164 C  
HETATM   17  H   UNL     1      -8.667   4.937  73.262  1.00  0.00     0.000 HD 
HETATM   18  O   UNL     1      -9.324   5.550  73.572  1.00  0.00    -0.137 OA 
BRANCH  16  19
HETATM   19  C   UNL     1     -10.453   5.217  71.456  1.00  0.00    -0.210 C  
BRANCH  19  20
HETATM   20  N   UNL     1     -11.057   5.857  70.283  1.00  0.00    -0.325 NA 
HETATM   21  H   UNL     1     -11.484   6.747  70.538  1.00  0.00     0.000 HD 
BRANCH  20  22
HETATM   22  C   UNL     1     -10.125   6.030  69.160  1.00  0.00    -0.181 C  
HETATM   23  C   UNL     1      -9.310   4.763  68.867  1.00  0.00    -0.190 C  
HETATM   24  C   UNL     1     -10.944   6.397  67.921  1.00  0.00    -0.416 C  
ENDBRANCH  20  22
ENDBRANCH  19  20
ENDBRANCH  16  19
ENDBRANCH  15  16
ENDBRANCH  14  15
ENDBRANCH  11  14
BRANCH  12  25
HETATM   25  C   UNL     1     -12.787   9.635  71.470  1.00  0.00    -0.392 C  
HETATM   26  C   UNL     1     -13.331  10.854  72.165  1.00  0.00    -0.294 C  
HETATM   27  O   UNL     1     -13.465   8.610  71.397  1.00  0.00    -0.311 OA 
ENDBRANCH  12  25
ENDBRANCH   6   8
ENDBRANCH   3   4
ENDBRANCH   2   3
TORSDOF 10
ENDMDL
MODEL      115
REMARK 921   NORMALIZED FREE ENERGY PREDICTED BY IDOCK:   -4.28 KCAL/MOL
REMARK 922        TOTAL FREE ENERGY PREDICTED BY IDOCK:   -7.81 KCAL/MOL
REMARK 923 INTER-LIGAND FREE ENERGY PREDICTED BY IDOCK:   -6.70 KCAL/MOL
REMARK 924 INTRA-LIGAND FREE ENERGY PREDICTED BY IDOCK:   -1.11 KCAL/MOL
REMARK 927      BINDING AFFINITY PREDICTED BY RF-SCORE:    0.00 PKD
ROOT
HETATM    1  C   UNL     1     -10.587  16.354  65.911  1.00  0.00    -0.294 C  
HETATM    2  C   UNL     1     -10.938  15.419  64.768  1.00  0.00    -0.411 C  
ENDROOT
BRANCH   2   3
HETATM    3  C   UNL     1     -12.310  14.788  64.971  1.00  0.00    -0.209 C  
BRANCH   3   4
HETATM    4  C   UNL     1     -12.187  13.293  65.158  1.00  0.00    -0.443 C  
HETATM    5  O   UNL     1     -13.116  12.555  64.844  1.00  0.00    -0.833 OA 
HETATM    6  N   UNL     1     -10.947  12.897  65.642  1.00  0.00    -0.268 N  
HETATM    7  H   UNL     1     -10.259  13.631  65.816  1.00  0.00     0.000 HD 
BRANCH   6   8
HETATM    8  C   UNL     1     -10.555  11.569  65.915  1.00  0.00    -0.268 A  
HETATM    9  C   UNL     1     -11.012  10.857  67.019  1.00  0.00    -0.310 A  
HETATM   10  C   UNL     1     -10.669   9.516  67.200  1.00  0.00    -0.252 A  
HETATM   11  C   UNL     1      -9.847   8.848  66.286  1.00  0.00    -0.285 A  
HETATM   12  C   UNL     1      -9.314   9.577  65.211  1.00  0.00    -0.317 A  
HETATM   13  C   UNL     1      -9.677  10.933  65.034  1.00  0.00    -0.319 A  
BRANCH  11  14
HETATM   14  O   UNL     1      -9.578   7.506  66.370  1.00  0.00    -0.182 OA 
BRANCH  14  15
HETATM   15  C   UNL     1     -10.538   6.688  67.061  1.00  0.00    -0.333 C  
BRANCH  15  16
HETATM   16  C   UNL     1      -9.828   5.472  67.672  1.00  0.00    -0.144 C  
HETATM   17  H   UNL     1      -9.980   4.416  69.320  1.00  0.00     0.000 HD 
HETATM   18  O   UNL     1     -10.420   5.169  68.942  1.00  0.00    -0.165 OA 
BRANCH  16  19
HETATM   19  C   UNL     1      -9.910   4.222  66.773  1.00  0.00    -0.205 C  
BRANCH  19  20
HETATM   20  N   UNL     1     -10.677   4.470  65.548  1.00  0.00    -0.653 NA 
HETATM   21  H   UNL     1     -10.920   5.457  65.470  1.00  0.00     0.000 HD 
BRANCH  20  22
HETATM   22  C   UNL     1     -10.007   4.002  64.327  1.00  0.00    -0.173 C  
HETATM   23  C   UNL     1      -8.746   4.812  63.996  1.00  0.00    -0.138 C  
HETATM   24  C   UNL     1      -9.621   2.537  64.535  1.00  0.00    -0.106 C  
ENDBRANCH  20  22
ENDBRANCH  19  20
ENDBRANCH  16  19
ENDBRANCH  15  16
ENDBRANCH  14  15
ENDBRANCH  11  14
BRANCH  12  25
HETATM   25  C   UNL     1      -8.409   9.004  64.170  1.00  0.00    -0.173 C  
HETATM   26  C   UNL     1      -6.991   8.612  64.494  1.00  0.00    -0.081 C  
HETATM   27  O   UNL     1      -8.832   8.897  63.019  1.00  0.00    -0.136 OA 
ENDBRANCH  12  25
ENDBRANCH   6   8
ENDBRANCH   3   4
ENDBRANCH   2   3
TORSDOF 10
ENDMDL
MODEL      116
REMARK 921   NORMALIZED FREE ENERGY PREDICTED BY IDOCK:   -4.27 KCAL/MOL
REMARK 922        TOTAL FREE ENERGY PREDICTED BY IDOCK:   -7.79 KCAL/MOL
REMARK 923 INTER-LIGAND FREE ENERGY PREDICTED BY IDOCK:   -6.60 KCAL/MOL
REMARK 924 INTRA-LIGAND FREE ENERGY PREDICTED BY IDOCK:   -1.19 KCAL/MOL
REMARK 927      BINDING AFFINITY PREDICTED BY RF-SCORE:    0.00 PKD
ROOT
HETATM    1  C   UNL     1      -6.172   4.540  63.795  1.00  0.00    -0.022 C  
HETATM    2  C   UNL     1      -6.480   5.888  64.422  1.00  0.00    -0.033 C  
ENDROOT
BRANCH   2   3
HETATM    3  C   UNL     1      -7.678   6.548  63.753  1.00  0.00    -0.108 C  
BRANCH   3   4
HETATM    4  C   UNL     1      -7.721   8.025  64.071  1.00  0.00    -0.137 C  
HETATM    5  O   UNL     1      -7.048   8.816  63.416  1.00  0.00    -0.089 OA 
HETATM    6  N   UNL     1      -8.604   8.344  65.093  1.00  0.00    -0.294 N  
HETATM    7  H   UNL     1      -9.126   7.576  65.514  1.00  0.00     0.000 HD 
BRANCH   6   8
HETATM    8  C   UNL     1      -8.844   9.639  65.601  1.00  0.00    -0.159 A  
HETATM    9  C   UNL     1      -8.006  10.258  66.523  1.00  0.00    -0.118 A  
HETATM   10  C   UNL     1      -8.233  11.575  66.928  1.00  0.00    -0.167 A  
HETATM   11  C   UNL     1      -9.313  12.310  66.431  1.00  0.00    -0.219 A  
HETATM   12  C   UNL     1     -10.212  11.672  65.562  1.00  0.00    -0.302 A  
HETATM   13  C   UNL     1      -9.966  10.341  65.152  1.00  0.00    -0.395 A  
BRANCH  11  14
HETATM   14  O   UNL     1      -9.505  13.638  66.720  1.00  0.00    -0.254 OA 
BRANCH  14  15
HETATM   15  C   UNL     1      -9.438  14.022  68.104  1.00  0.00    -0.215 C  
BRANCH  15  16
HETATM   16  C   UNL     1     -10.797  14.586  68.543  1.00  0.00    -0.249 C  
HETATM   17  H   UNL     1     -12.167  15.759  67.769  1.00  0.00     0.000 HD 
HETATM   18  O   UNL     1     -11.326  15.411  67.497  1.00  0.00    -0.328 OA 
BRANCH  16  19
HETATM   19  C   UNL     1     -11.821  13.480  68.874  1.00  0.00    -0.345 C  
BRANCH  19  20
HETATM   20  N   UNL     1     -11.820  13.132  70.298  1.00  0.00    -0.525 NA 
HETATM   21  H   UNL     1     -12.594  13.587  70.780  1.00  0.00     0.000 HD 
BRANCH  20  22
HETATM   22  C   UNL     1     -11.829  11.685  70.551  1.00  0.00    -0.231 C  
HETATM   23  C   UNL     1     -13.031  11.239  71.395  1.00  0.00    -0.482 C  
HETATM   24  C   UNL     1     -11.875  10.971  69.200  1.00  0.00    -0.407 C  
ENDBRANCH  20  22
ENDBRANCH  19  20
ENDBRANCH  16  19
ENDBRANCH  15  16
ENDBRANCH  14  15
ENDBRANCH  11  14
BRANCH  12  25
HETATM   25  C   UNL     1     -11.419  12.324  64.969  1.00  0.00    -0.336 C  
HETATM   26  C   UNL     1     -11.465  12.714  63.516  1.00  0.00    -0.557 C  
HETATM   27  O   UNL     1     -12.369  12.581  65.709  1.00  0.00    -0.627 OA 
ENDBRANCH  12  25
ENDBRANCH   6   8
ENDBRANCH   3   4
ENDBRANCH   2   3
TORSDOF 10
ENDMDL
MODEL      117
REMARK 921   NORMALIZED FREE ENERGY PREDICTED BY IDOCK:   -4.23 KCAL/MOL
REMARK 922        TOTAL FREE ENERGY PREDICTED BY IDOCK:   -7.73 KCAL/MOL
REMARK 923 INTER-LIGAND FREE ENERGY PREDICTED BY IDOCK:   -6.56 KCAL/MOL
REMARK 924 INTRA-LIGAND FREE ENERGY PREDICTED BY IDOCK:   -1.17 KCAL/MOL
REMARK 927      BINDING AFFINITY PREDICTED BY RF-SCORE:    0.00 PKD
ROOT
HETATM    1  C   UNL     1     -13.994  15.421  72.019  1.00  0.00    -0.640 C  
HETATM    2  C   UNL     1     -13.733  14.167  71.204  1.00  0.00    -0.206 C  
ENDROOT
BRANCH   2   3
HETATM    3  C   UNL     1     -13.497  12.961  72.103  1.00  0.00    -0.619 C  
BRANCH   3   4
HETATM    4  C   UNL     1     -12.678  11.913  71.387  1.00  0.00    -0.290 C  
HETATM    5  O   UNL     1     -12.650  10.759  71.808  1.00  0.00    -0.376 OA 
HETATM    6  N   UNL     1     -12.057  12.387  70.239  1.00  0.00    -0.399 N  
HETATM    7  H   UNL     1     -12.211  13.365  69.997  1.00  0.00     0.000 HD 
BRANCH   6   8
HETATM    8  C   UNL     1     -11.229  11.633  69.379  1.00  0.00    -0.246 A  
HETATM    9  C   UNL     1     -11.661  10.479  68.732  1.00  0.00    -0.252 A  
HETATM   10  C   UNL     1     -10.837   9.818  67.820  1.00  0.00    -0.306 A  
HETATM   11  C   UNL     1      -9.549  10.284  67.535  1.00  0.00    -0.156 A  
HETATM   12  C   UNL     1      -9.072  11.400  68.241  1.00  0.00    -0.179 A  
HETATM   13  C   UNL     1      -9.920  12.067  69.156  1.00  0.00     0.241 A  
BRANCH  11  14
HETATM   14  O   UNL     1      -8.754   9.726  66.567  1.00  0.00    -0.126 OA 
BRANCH  14  15
HETATM   15  C   UNL     1      -9.347   9.515  65.274  1.00  0.00    -0.253 C  
BRANCH  15  16
HETATM   16  C   UNL     1      -8.768  10.527  64.276  1.00  0.00    -0.176 C  
HETATM   17  H   UNL     1      -7.160  10.661  63.157  1.00  0.00     0.000 HD 
HETATM   18  O   UNL     1      -7.518  10.035  63.776  1.00  0.00    -0.137 OA 
BRANCH  16  19
HETATM   19  C   UNL     1      -9.712  10.793  63.084  1.00  0.00    -0.357 C  
BRANCH  19  20
HETATM   20  N   UNL     1     -11.078  11.101  63.518  1.00  0.00    -0.662 NA 
HETATM   21  H   UNL     1     -11.396  10.425  64.212  1.00  0.00     0.000 HD 
BRANCH  20  22
HETATM   22  C   UNL     1     -11.244  12.473  64.016  1.00  0.00    -0.403 C  
HETATM   23  C   UNL     1     -12.249  13.286  63.188  1.00  0.00    -0.221 C  
HETATM   24  C   UNL     1     -11.736  12.393  65.461  1.00  0.00    -0.459 C  
ENDBRANCH  20  22
ENDBRANCH  19  20
ENDBRANCH  16  19
ENDBRANCH  15  16
ENDBRANCH  14  15
ENDBRANCH  11  14
BRANCH  12  25
HETATM   25  C   UNL     1      -7.714  11.996  68.057  1.00  0.00    -0.132 C  
HETATM   26  C   UNL     1      -6.499  11.392  68.708  1.00  0.00    -0.056 C  
HETATM   27  O   UNL     1      -7.612  13.027  67.392  1.00  0.00    -0.154 OA 
ENDBRANCH  12  25
ENDBRANCH   6   8
ENDBRANCH   3   4
ENDBRANCH   2   3
TORSDOF 10
ENDMDL
MODEL      118
REMARK 921   NORMALIZED FREE ENERGY PREDICTED BY IDOCK:   -4.22 KCAL/MOL
REMARK 922        TOTAL FREE ENERGY PREDICTED BY IDOCK:   -7.71 KCAL/MOL
REMARK 923 INTER-LIGAND FREE ENERGY PREDICTED BY IDOCK:   -6.42 KCAL/MOL
REMARK 924 INTRA-LIGAND FREE ENERGY PREDICTED BY IDOCK:   -1.29 KCAL/MOL
REMARK 927      BINDING AFFINITY PREDICTED BY RF-SCORE:    0.00 PKD
ROOT
HETATM    1  C   UNL     1     -10.657  18.892  66.624  1.00  0.00    -0.469 C  
HETATM    2  C   UNL     1     -10.426  17.408  66.844  1.00  0.00    -0.279 C  
ENDROOT
BRANCH   2   3
HETATM    3  C   UNL     1     -10.531  16.632  65.537  1.00  0.00    -0.285 C  
BRANCH   3   4
HETATM    4  C   UNL     1     -10.597  15.146  65.803  1.00  0.00    -0.351 C  
HETATM    5  O   UNL     1     -10.816  14.365  64.881  1.00  0.00    -0.376 OA 
HETATM    6  N   UNL     1     -10.338  14.810  67.125  1.00  0.00    -0.253 N  
HETATM    7  H   UNL     1     -10.131  15.574  67.768  1.00  0.00     0.000 HD 
BRANCH   6   8
HETATM    8  C   UNL     1     -10.337  13.502  67.657  1.00  0.00    -0.239 A  
HETATM    9  C   UNL     1     -11.501  12.828  68.012  1.00  0.00    -0.364 A  
HETATM   10  C   UNL     1     -11.457  11.503  68.449  1.00  0.00    -0.364 A  
HETATM   11  C   UNL     1     -10.245  10.814  68.556  1.00  0.00    -0.178 A  
HETATM   12  C   UNL     1      -9.057  11.508  68.278  1.00  0.00    -0.185 A  
HETATM   13  C   UNL     1      -9.114  12.847  67.828  1.00  0.00    -0.197 A  
BRANCH  11  14
HETATM   14  O   UNL     1     -10.172   9.482  68.875  1.00  0.00    -0.185 OA 
BRANCH  14  15
HETATM   15  C   UNL     1     -10.530   8.542  67.848  1.00  0.00    -0.201 C  
BRANCH  15  16
HETATM   16  C   UNL     1      -9.748   7.237  68.055  1.00  0.00    -0.141 C  
HETATM   17  H   UNL     1      -8.034   6.718  68.860  1.00  0.00     0.000 HD 
HETATM   18  O   UNL     1      -8.518   7.526  68.731  1.00  0.00    -0.128 OA 
BRANCH  16  19
HETATM   19  C   UNL     1     -10.537   6.196  68.877  1.00  0.00    -0.276 C  
BRANCH  19  20
HETATM   20  N   UNL     1     -11.753   6.763  69.468  1.00  0.00    -0.637 NA 
HETATM   21  H   UNL     1     -12.553   6.155  69.296  1.00  0.00     0.000 HD 
BRANCH  20  22
HETATM   22  C   UNL     1     -11.627   7.065  70.901  1.00  0.00    -0.328 C  
HETATM   23  C   UNL     1     -12.964   6.955  71.648  1.00  0.00    -0.359 C  
HETATM   24  C   UNL     1     -10.634   6.071  71.505  1.00  0.00    -0.295 C  
ENDBRANCH  20  22
ENDBRANCH  19  20
ENDBRANCH  16  19
ENDBRANCH  15  16
ENDBRANCH  14  15
ENDBRANCH  11  14
BRANCH  12  25
HETATM   25  C   UNL     1      -7.690  10.909  68.369  1.00  0.00    -0.116 C  
HETATM   26  C   UNL     1      -6.945  10.852  69.675  1.00  0.00    -0.128 C  
HETATM   27  O   UNL     1      -7.160  10.499  67.335  1.00  0.00    -0.087 OA 
ENDBRANCH  12  25
ENDBRANCH   6   8
ENDBRANCH   3   4
ENDBRANCH   2   3
TORSDOF 10
ENDMDL
MODEL      119
REMARK 921   NORMALIZED FREE ENERGY PREDICTED BY IDOCK:   -4.21 KCAL/MOL
REMARK 922        TOTAL FREE ENERGY PREDICTED BY IDOCK:   -7.71 KCAL/MOL
REMARK 923 INTER-LIGAND FREE ENERGY PREDICTED BY IDOCK:   -7.15 KCAL/MOL
REMARK 924 INTRA-LIGAND FREE ENERGY PREDICTED BY IDOCK:   -0.56 KCAL/MOL
REMARK 927      BINDING AFFINITY PREDICTED BY RF-SCORE:    0.00 PKD
ROOT
HETATM    1  C   UNL     1     -10.446   4.355  74.023  1.00  0.00    -0.307 C  
HETATM    2  C   UNL     1     -10.517   5.862  74.198  1.00  0.00    -0.253 C  
ENDROOT
BRANCH   2   3
HETATM    3  C   UNL     1      -9.182   6.519  73.875  1.00  0.00    -0.172 C  
BRANCH   3   4
HETATM    4  C   UNL     1      -9.392   7.806  73.110  1.00  0.00    -0.255 C  
HETATM    5  O   UNL     1      -8.551   8.698  73.163  1.00  0.00    -0.393 OA 
HETATM    6  N   UNL     1     -10.554   7.812  72.350  1.00  0.00    -0.254 N  
HETATM    7  H   UNL     1     -11.134   6.973  72.378  1.00  0.00     0.000 HD 
BRANCH   6   8
HETATM    8  C   UNL     1     -11.004   8.879  71.543  1.00  0.00    -0.328 A  
HETATM    9  C   UNL     1     -12.185   9.572  71.792  1.00  0.00    -0.465 A  
HETATM   10  C   UNL     1     -12.544  10.679  71.021  1.00  0.00    -0.516 A  
HETATM   11  C   UNL     1     -11.738  11.120  69.967  1.00  0.00    -0.356 A  
HETATM   12  C   UNL     1     -10.586  10.382  69.653  1.00  0.00    -0.289 A  
HETATM   13  C   UNL     1     -10.228   9.268  70.448  1.00  0.00    -0.284 A  
BRANCH  11  14
HETATM   14  O   UNL     1     -12.001  12.265  69.258  1.00  0.00    -0.296 OA 
BRANCH  14  15
HETATM   15  C   UNL     1     -11.827  13.515  69.947  1.00  0.00    -0.316 C  
BRANCH  15  16
HETATM   16  C   UNL     1     -11.109  14.510  69.025  1.00  0.00    -0.262 C  
HETATM   17  H   UNL     1     -11.641  15.885  67.728  1.00  0.00     0.000 HD 
HETATM   18  O   UNL     1     -12.085  15.269  68.298  1.00  0.00    -0.212 OA 
BRANCH  16  19
HETATM   19  C   UNL     1     -10.196  15.485  69.797  1.00  0.00    -0.294 C  
BRANCH  19  20
HETATM   20  N   UNL     1     -10.626  16.879  69.653  1.00  0.00    -0.276 NA 
HETATM   21  H   UNL     1     -10.539  17.376  70.540  1.00  0.00     0.000 HD 
BRANCH  20  22
HETATM   22  C   UNL     1      -9.928  17.603  68.582  1.00  0.00    -0.367 C  
HETATM   23  C   UNL     1     -10.032  19.127  68.733  1.00  0.00    -0.493 C  
HETATM   24  C   UNL     1      -8.455  17.196  68.620  1.00  0.00    -0.258 C  
ENDBRANCH  20  22
ENDBRANCH  19  20
ENDBRANCH  16  19
ENDBRANCH  15  16
ENDBRANCH  14  15
ENDBRANCH  11  14
BRANCH  12  25
HETATM   25  C   UNL     1      -9.643  10.721  68.544  1.00  0.00    -0.183 C  
HETATM   26  C   UNL     1      -8.237  11.180  68.824  1.00  0.00    -0.135 C  
HETATM   27  O   UNL     1     -10.055  10.662  67.386  1.00  0.00    -0.182 OA 
ENDBRANCH  12  25
ENDBRANCH   6   8
ENDBRANCH   3   4
ENDBRANCH   2   3
TORSDOF 10
ENDMDL
MODEL      120
REMARK 921   NORMALIZED FREE ENERGY PREDICTED BY IDOCK:   -4.20 KCAL/MOL
REMARK 922        TOTAL FREE ENERGY PREDICTED BY IDOCK:   -7.69 KCAL/MOL
REMARK 923 INTER-LIGAND FREE ENERGY PREDICTED BY IDOCK:   -7.05 KCAL/MOL
REMARK 924 INTRA-LIGAND FREE ENERGY PREDICTED BY IDOCK:   -0.64 KCAL/MOL
REMARK 927      BINDING AFFINITY PREDICTED BY RF-SCORE:    0.00 PKD
ROOT
HETATM    1  C   UNL     1     -14.055  15.782  72.584  1.00  0.00    -0.482 C  
HETATM    2  C   UNL     1     -13.277  14.502  72.833  1.00  0.00    -0.612 C  
ENDROOT
BRANCH   2   3
HETATM    3  C   UNL     1     -14.019  13.289  72.286  1.00  0.00    -0.559 C  
BRANCH   3   4
HETATM    4  C   UNL     1     -13.058  12.334  71.617  1.00  0.00    -0.306 C  
HETATM    5  O   UNL     1     -12.261  12.748  70.780  1.00  0.00    -0.367 OA 
HETATM    6  N   UNL     1     -13.156  11.032  72.089  1.00  0.00    -0.526 N  
HETATM    7  H   UNL     1     -13.844  10.852  72.821  1.00  0.00     0.000 HD 
BRANCH   6   8
HETATM    8  C   UNL     1     -12.389   9.934  71.643  1.00  0.00    -0.406 A  
HETATM    9  C   UNL     1     -12.448   8.678  72.238  1.00  0.00    -0.460 A  
HETATM   10  C   UNL     1     -11.739   7.599  71.707  1.00  0.00    -0.319 A  
HETATM   11  C   UNL     1     -10.939   7.746  70.569  1.00  0.00    -0.245 A  
HETATM   12  C   UNL     1     -10.808   9.025  70.007  1.00  0.00    -0.247 A  
HETATM   13  C   UNL     1     -11.538  10.109  70.549  1.00  0.00    -0.411 A  
BRANCH  11  14
HETATM   14  O   UNL     1     -10.317   6.688  69.956  1.00  0.00    -0.189 OA 
BRANCH  14  15
HETATM   15  C   UNL     1      -9.011   6.329  70.437  1.00  0.00    -0.154 C  
BRANCH  15  16
HETATM   16  C   UNL     1      -8.839   4.805  70.358  1.00  0.00    -0.103 C  
HETATM   17  H   UNL     1     -10.013   3.234  70.441  1.00  0.00     0.000 HD 
HETATM   18  O   UNL     1     -10.120   4.177  70.491  1.00  0.00    -0.170 OA 
BRANCH  16  19
HETATM   19  C   UNL     1      -8.195   4.348  69.032  1.00  0.00    -0.079 C  
BRANCH  19  20
HETATM   20  N   UNL     1      -8.486   5.269  67.929  1.00  0.00    -0.101 NA 
HETATM   21  H   UNL     1      -7.646   5.775  67.651  1.00  0.00     0.000 HD 
BRANCH  20  22
HETATM   22  C   UNL     1      -9.109   4.619  66.767  1.00  0.00    -0.120 C  
HETATM   23  C   UNL     1      -9.270   3.104  66.953  1.00  0.00    -0.187 C  
HETATM   24  C   UNL     1     -10.487   5.247  66.559  1.00  0.00    -0.354 C  
ENDBRANCH  20  22
ENDBRANCH  19  20
ENDBRANCH  16  19
ENDBRANCH  15  16
ENDBRANCH  14  15
ENDBRANCH  11  14
BRANCH  12  25
HETATM   25  C   UNL     1      -9.975   9.336  68.806  1.00  0.00    -0.181 C  
HETATM   26  C   UNL     1     -10.502   9.129  67.411  1.00  0.00    -0.339 C  
HETATM   27  O   UNL     1      -8.820   9.727  68.979  1.00  0.00    -0.137 OA 
ENDBRANCH  12  25
ENDBRANCH   6   8
ENDBRANCH   3   4
ENDBRANCH   2   3
TORSDOF 10
ENDMDL
MODEL      121
REMARK 921   NORMALIZED FREE ENERGY PREDICTED BY IDOCK:   -4.20 KCAL/MOL
REMARK 922        TOTAL FREE ENERGY PREDICTED BY IDOCK:   -7.69 KCAL/MOL
REMARK 923 INTER-LIGAND FREE ENERGY PREDICTED BY IDOCK:   -6.61 KCAL/MOL
REMARK 924 INTRA-LIGAND FREE ENERGY PREDICTED BY IDOCK:   -1.08 KCAL/MOL
REMARK 927      BINDING AFFINITY PREDICTED BY RF-SCORE:    0.00 PKD
ROOT
HETATM    1  C   UNL     1     -10.729  19.988  65.874  1.00  0.00    -0.379 C  
HETATM    2  C   UNL     1      -9.782  20.338  67.009  1.00  0.00    -0.598 C  
ENDROOT
BRANCH   2   3
HETATM    3  C   UNL     1      -8.413  19.703  66.802  1.00  0.00    -0.344 C  
BRANCH   3   4
HETATM    4  C   UNL     1      -8.534  18.201  66.691  1.00  0.00    -0.264 C  
HETATM    5  O   UNL     1      -8.211  17.632  65.651  1.00  0.00    -0.501 OA 
HETATM    6  N   UNL     1      -8.972  17.594  67.860  1.00  0.00    -0.245 N  
HETATM    7  H   UNL     1      -9.160  18.202  68.658  1.00  0.00     0.000 HD 
BRANCH   6   8
HETATM    8  C   UNL     1      -9.179  16.210  68.043  1.00  0.00    -0.195 A  
HETATM    9  C   UNL     1     -10.440  15.622  68.007  1.00  0.00    -0.263 A  
HETATM   10  C   UNL     1     -10.589  14.238  68.102  1.00  0.00    -0.246 A  
HETATM   11  C   UNL     1      -9.481  13.397  68.247  1.00  0.00    -0.209 A  
HETATM   12  C   UNL     1      -8.210  13.983  68.365  1.00  0.00    -0.150 A  
HETATM   13  C   UNL     1      -8.071  15.386  68.258  1.00  0.00    -0.136 A  
BRANCH  11  14
HETATM   14  O   UNL     1      -9.578  12.029  68.233  1.00  0.00    -0.197 OA 
BRANCH  14  15
HETATM   15  C   UNL     1     -10.617  11.455  67.422  1.00  0.00    -0.218 C  
BRANCH  15  16
HETATM   16  C   UNL     1     -11.049  10.110  68.023  1.00  0.00    -0.240 C  
HETATM   17  H   UNL     1     -10.921   8.218  67.514  1.00  0.00     0.000 HD 
HETATM   18  O   UNL     1     -10.653   9.051  67.142  1.00  0.00    -0.272 OA 
BRANCH  16  19
HETATM   19  C   UNL     1     -10.436   9.856  69.416  1.00  0.00    -0.231 C  
BRANCH  19  20
HETATM   20  N   UNL     1     -11.153  10.573  70.475  1.00  0.00    -0.427 NA 
HETATM   21  H   UNL     1     -11.914  11.127  70.083  1.00  0.00     0.000 HD 
BRANCH  20  22
HETATM   22  C   UNL     1     -11.647   9.699  71.548  1.00  0.00    -0.381 C  
HETATM   23  C   UNL     1     -13.165   9.481  71.482  1.00  0.00    -0.468 C  
HETATM   24  C   UNL     1     -10.941   8.349  71.418  1.00  0.00    -0.311 C  
ENDBRANCH  20  22
ENDBRANCH  19  20
ENDBRANCH  16  19
ENDBRANCH  15  16
ENDBRANCH  14  15
ENDBRANCH  11  14
BRANCH  12  25
HETATM   25  C   UNL     1      -6.941  13.214  68.544  1.00  0.00    -0.103 C  
HETATM   26  C   UNL     1      -6.210  13.204  69.860  1.00  0.00    -0.094 C  
HETATM   27  O   UNL     1      -6.474  12.619  67.572  1.00  0.00    -0.133 OA 
ENDBRANCH  12  25
ENDBRANCH   6   8
ENDBRANCH   3   4
ENDBRANCH   2   3
TORSDOF 10
ENDMDL
MODEL      122
REMARK 921   NORMALIZED FREE ENERGY PREDICTED BY IDOCK:   -4.20 KCAL/MOL
REMARK 922        TOTAL FREE ENERGY PREDICTED BY IDOCK:   -7.68 KCAL/MOL
REMARK 923 INTER-LIGAND FREE ENERGY PREDICTED BY IDOCK:   -6.51 KCAL/MOL
REMARK 924 INTRA-LIGAND FREE ENERGY PREDICTED BY IDOCK:   -1.17 KCAL/MOL
REMARK 927      BINDING AFFINITY PREDICTED BY RF-SCORE:    0.00 PKD
ROOT
HETATM    1  C   UNL     1      -9.711  17.118  66.680  1.00  0.00    -0.285 C  
HETATM    2  C   UNL     1      -9.262  15.847  65.979  1.00  0.00    -0.372 C  
ENDROOT
BRANCH   2   3
HETATM    3  C   UNL     1     -10.296  15.384  64.961  1.00  0.00    -0.362 C  
BRANCH   3   4
HETATM    4  C   UNL     1     -10.614  13.919  65.154  1.00  0.00    -0.379 C  
HETATM    5  O   UNL     1     -11.462  13.375  64.451  1.00  0.00    -0.355 OA 
HETATM    6  N   UNL     1      -9.830  13.306  66.122  1.00  0.00    -0.295 N  
HETATM    7  H   UNL     1      -9.134  13.886  66.592  1.00  0.00     0.000 HD 
BRANCH   6   8
HETATM    8  C   UNL     1      -9.911  11.953  66.512  1.00  0.00    -0.206 A  
HETATM    9  C   UNL     1     -10.947  11.451  67.294  1.00  0.00    -0.336 A  
HETATM   10  C   UNL     1     -11.034  10.087  67.580  1.00  0.00    -0.297 A  
HETATM   11  C   UNL     1     -10.080   9.183  67.101  1.00  0.00    -0.236 A  
HETATM   12  C   UNL     1      -8.987   9.687  66.379  1.00  0.00    -0.179 A  
HETATM   13  C   UNL     1      -8.915  11.069  66.088  1.00  0.00    -0.203 A  
BRANCH  11  14
HETATM   14  O   UNL     1     -10.192   7.826  67.269  1.00  0.00    -0.217 OA 
BRANCH  14  15
HETATM   15  C   UNL     1      -9.746   7.283  68.522  1.00  0.00    -0.149 C  
BRANCH  15  16
HETATM   16  C   UNL     1     -10.646   6.103  68.917  1.00  0.00    -0.276 C  
HETATM   17  H   UNL     1     -10.400   4.342  69.749  1.00  0.00     0.000 HD 
HETATM   18  O   UNL     1      -9.843   5.072  69.505  1.00  0.00    -0.173 OA 
BRANCH  16  19
HETATM   19  C   UNL     1     -11.750   6.506  69.916  1.00  0.00    -0.283 C  
BRANCH  19  20
HETATM   20  N   UNL     1     -11.727   7.940  70.219  1.00  0.00    -0.474 NA 
HETATM   21  H   UNL     1     -12.545   8.405  69.825  1.00  0.00     0.000 HD 
BRANCH  20  22
HETATM   22  C   UNL     1     -11.601   8.239  71.652  1.00  0.00    -0.284 C  
HETATM   23  C   UNL     1     -10.263   8.904  72.003  1.00  0.00    -0.363 C  
HETATM   24  C   UNL     1     -12.744   9.179  72.039  1.00  0.00    -0.473 C  
ENDBRANCH  20  22
ENDBRANCH  19  20
ENDBRANCH  16  19
ENDBRANCH  15  16
ENDBRANCH  14  15
ENDBRANCH  11  14
BRANCH  12  25
HETATM   25  C   UNL     1      -7.884   8.846  65.824  1.00  0.00    -0.099 C  
HETATM   26  C   UNL     1      -8.016   8.159  64.491  1.00  0.00    -0.142 C  
HETATM   27  O   UNL     1      -6.870   8.685  66.505  1.00  0.00    -0.069 OA 
ENDBRANCH  12  25
ENDBRANCH   6   8
ENDBRANCH   3   4
ENDBRANCH   2   3
TORSDOF 10
ENDMDL
MODEL      123
REMARK 921   NORMALIZED FREE ENERGY PREDICTED BY IDOCK:   -4.19 KCAL/MOL
REMARK 922        TOTAL FREE ENERGY PREDICTED BY IDOCK:   -7.67 KCAL/MOL
REMARK 923 INTER-LIGAND FREE ENERGY PREDICTED BY IDOCK:   -6.74 KCAL/MOL
REMARK 924 INTRA-LIGAND FREE ENERGY PREDICTED BY IDOCK:   -0.93 KCAL/MOL
REMARK 927      BINDING AFFINITY PREDICTED BY RF-SCORE:    0.00 PKD
ROOT
HETATM    1  C   UNL     1      -7.295   3.492  68.100  1.00  0.00    -0.051 C  
HETATM    2  C   UNL     1      -8.011   4.820  68.266  1.00  0.00    -0.085 C  
ENDROOT
BRANCH   2   3
HETATM    3  C   UNL     1      -9.514   4.666  68.071  1.00  0.00    -0.191 C  
BRANCH   3   4
HETATM    4  C   UNL     1     -10.076   5.841  67.305  1.00  0.00    -0.176 C  
HETATM    5  O   UNL     1     -11.033   5.683  66.552  1.00  0.00    -0.252 OA 
HETATM    6  N   UNL     1      -9.444   7.042  67.594  1.00  0.00    -0.121 N  
HETATM    7  H   UNL     1      -8.687   7.017  68.278  1.00  0.00     0.000 HD 
BRANCH   6   8
HETATM    8  C   UNL     1      -9.756   8.296  67.025  1.00  0.00    -0.211 A  
HETATM    9  C   UNL     1     -10.493   9.268  67.693  1.00  0.00    -0.325 A  
HETATM   10  C   UNL     1     -10.700  10.527  67.127  1.00  0.00    -0.323 A  
HETATM   11  C   UNL     1     -10.184  10.849  65.867  1.00  0.00    -0.257 A  
HETATM   12  C   UNL     1      -9.508   9.851  65.148  1.00  0.00    -0.338 A  
HETATM   13  C   UNL     1      -9.297   8.582  65.737  1.00  0.00    -0.187 A  
BRANCH  11  14
HETATM   14  O   UNL     1     -10.273  12.107  65.327  1.00  0.00    -0.263 OA 
BRANCH  14  15
HETATM   15  C   UNL     1     -11.566  12.531  64.866  1.00  0.00    -0.341 C  
BRANCH  15  16
HETATM   16  C   UNL     1     -11.829  13.970  65.333  1.00  0.00    -0.359 C  
HETATM   17  H   UNL     1     -13.405  15.071  65.731  1.00  0.00     0.000 HD 
HETATM   18  O   UNL     1     -13.242  14.181  65.441  1.00  0.00    -0.741 OA 
BRANCH  16  19
HETATM   19  C   UNL     1     -11.173  14.282  66.694  1.00  0.00    -0.334 C  
BRANCH  19  20
HETATM   20  N   UNL     1     -12.111  14.124  67.810  1.00  0.00    -0.545 NA 
HETATM   21  H   UNL     1     -12.572  13.216  67.767  1.00  0.00     0.000 HD 
BRANCH  20  22
HETATM   22  C   UNL     1     -11.499  14.333  69.129  1.00  0.00    -0.291 C  
HETATM   23  C   UNL     1     -11.112  15.798  69.377  1.00  0.00    -0.314 C  
HETATM   24  C   UNL     1     -12.509  13.896  70.191  1.00  0.00    -0.355 C  
ENDBRANCH  20  22
ENDBRANCH  19  20
ENDBRANCH  16  19
ENDBRANCH  15  16
ENDBRANCH  14  15
ENDBRANCH  11  14
BRANCH  12  25
HETATM   25  C   UNL     1      -8.922  10.043  63.787  1.00  0.00    -0.247 C  
HETATM   26  C   UNL     1      -7.432  10.054  63.569  1.00  0.00    -0.140 C  
HETATM   27  O   UNL     1      -9.687  10.241  62.842  1.00  0.00    -0.298 OA 
ENDBRANCH  12  25
ENDBRANCH   6   8
ENDBRANCH   3   4
ENDBRANCH   2   3
TORSDOF 10
ENDMDL
MODEL      124
REMARK 921   NORMALIZED FREE ENERGY PREDICTED BY IDOCK:   -4.15 KCAL/MOL
REMARK 922        TOTAL FREE ENERGY PREDICTED BY IDOCK:   -7.60 KCAL/MOL
REMARK 923 INTER-LIGAND FREE ENERGY PREDICTED BY IDOCK:   -6.88 KCAL/MOL
REMARK 924 INTRA-LIGAND FREE ENERGY PREDICTED BY IDOCK:   -0.72 KCAL/MOL
REMARK 927      BINDING AFFINITY PREDICTED BY RF-SCORE:    0.00 PKD
ROOT
HETATM    1  C   UNL     1     -10.590  16.279  65.924  1.00  0.00    -0.307 C  
HETATM    2  C   UNL     1     -10.584  15.163  64.894  1.00  0.00    -0.392 C  
ENDROOT
BRANCH   2   3
HETATM    3  C   UNL     1     -11.989  14.630  64.647  1.00  0.00    -0.472 C  
BRANCH   3   4
HETATM    4  C   UNL     1     -12.119  13.213  65.155  1.00  0.00    -0.421 C  
HETATM    5  O   UNL     1     -13.073  12.521  64.812  1.00  0.00    -0.853 OA 
HETATM    6  N   UNL     1     -11.057  12.814  65.955  1.00  0.00    -0.278 N  
HETATM    7  H   UNL     1     -10.313  13.494  66.115  1.00  0.00     0.000 HD 
BRANCH   6   8
HETATM    8  C   UNL     1     -10.916  11.550  66.567  1.00  0.00    -0.293 A  
HETATM    9  C   UNL     1     -10.478  10.421  65.882  1.00  0.00    -0.196 A  
HETATM   10  C   UNL     1     -10.267   9.213  66.549  1.00  0.00    -0.322 A  
HETATM   11  C   UNL     1     -10.498   9.094  67.924  1.00  0.00    -0.237 A  
HETATM   12  C   UNL     1     -11.017  10.203  68.612  1.00  0.00    -0.273 A  
HETATM   13  C   UNL     1     -11.218  11.423  67.926  1.00  0.00    -0.352 A  
BRANCH  11  14
HETATM   14  O   UNL     1     -10.199   7.958  68.632  1.00  0.00    -0.197 OA 
BRANCH  14  15
HETATM   15  C   UNL     1      -8.807   7.664  68.839  1.00  0.00    -0.135 C  
BRANCH  15  16
HETATM   16  C   UNL     1      -8.674   6.380  69.670  1.00  0.00    -0.138 C  
HETATM   17  H   UNL     1      -8.277   5.931  71.539  1.00  0.00     0.000 HD 
HETATM   18  O   UNL     1      -8.359   6.725  71.025  1.00  0.00    -0.124 OA 
BRANCH  16  19
HETATM   19  C   UNL     1      -9.961   5.529  69.659  1.00  0.00    -0.214 C  
BRANCH  19  20
HETATM   20  N   UNL     1      -9.878   4.413  68.711  1.00  0.00    -0.123 NA 
HETATM   21  H   UNL     1      -9.600   4.744  67.788  1.00  0.00     0.000 HD 
BRANCH  20  22
HETATM   22  C   UNL     1      -8.998   3.324  69.158  1.00  0.00    -0.120 C  
HETATM   23  C   UNL     1      -9.414   2.748  70.519  1.00  0.00    -0.202 C  
HETATM   24  C   UNL     1      -9.053   2.214  68.108  1.00  0.00    -0.215 C  
ENDBRANCH  20  22
ENDBRANCH  19  20
ENDBRANCH  16  19
ENDBRANCH  15  16
ENDBRANCH  14  15
ENDBRANCH  11  14
BRANCH  12  25
HETATM   25  C   UNL     1     -11.331  10.216  70.072  1.00  0.00    -0.287 C  
HETATM   26  C   UNL     1     -12.671  10.677  70.581  1.00  0.00    -0.445 C  
HETATM   27  O   UNL     1     -10.450   9.883  70.865  1.00  0.00    -0.286 OA 
ENDBRANCH  12  25
ENDBRANCH   6   8
ENDBRANCH   3   4
ENDBRANCH   2   3
TORSDOF 10
ENDMDL
MODEL      125
REMARK 921   NORMALIZED FREE ENERGY PREDICTED BY IDOCK:   -4.14 KCAL/MOL
REMARK 922        TOTAL FREE ENERGY PREDICTED BY IDOCK:   -7.59 KCAL/MOL
REMARK 923 INTER-LIGAND FREE ENERGY PREDICTED BY IDOCK:   -6.63 KCAL/MOL
REMARK 924 INTRA-LIGAND FREE ENERGY PREDICTED BY IDOCK:   -0.96 KCAL/MOL
REMARK 927      BINDING AFFINITY PREDICTED BY RF-SCORE:    0.00 PKD
ROOT
HETATM    1  C   UNL     1     -14.029  15.859  72.502  1.00  0.00    -0.424 C  
HETATM    2  C   UNL     1     -13.189  14.624  72.773  1.00  0.00    -0.591 C  
ENDROOT
BRANCH   2   3
HETATM    3  C   UNL     1     -13.910  13.357  72.334  1.00  0.00    -0.665 C  
BRANCH   3   4
HETATM    4  C   UNL     1     -12.970  12.439  71.589  1.00  0.00    -0.305 C  
HETATM    5  O   UNL     1     -12.139  12.905  70.814  1.00  0.00    -0.328 OA 
HETATM    6  N   UNL     1     -13.125  11.100  71.922  1.00  0.00    -0.478 N  
HETATM    7  H   UNL     1     -13.835  10.874  72.619  1.00  0.00     0.000 HD 
BRANCH   6   8
HETATM    8  C   UNL     1     -12.388  10.025  71.381  1.00  0.00    -0.415 A  
HETATM    9  C   UNL     1     -11.882  10.030  70.085  1.00  0.00    -0.245 A  
HETATM   10  C   UNL     1     -11.082   8.984  69.623  1.00  0.00    -0.080 A  
HETATM   11  C   UNL     1     -10.771   7.893  70.441  1.00  0.00    -0.233 A  
HETATM   12  C   UNL     1     -11.340   7.837  71.723  1.00  0.00    -0.302 A  
HETATM   13  C   UNL     1     -12.142   8.907  72.183  1.00  0.00    -0.430 A  
BRANCH  11  14
HETATM   14  O   UNL     1      -9.900   6.903  70.061  1.00  0.00    -0.173 OA 
BRANCH  14  15
HETATM   15  C   UNL     1     -10.420   5.866  69.212  1.00  0.00    -0.274 C  
BRANCH  15  16
HETATM   16  C   UNL     1      -9.271   4.953  68.760  1.00  0.00    -0.119 C  
HETATM   17  H   UNL     1      -7.319   5.095  68.603  1.00  0.00     0.000 HD 
HETATM   18  O   UNL     1      -8.030   5.660  68.882  1.00  0.00    -0.094 OA 
BRANCH  16  19
HETATM   19  C   UNL     1      -9.187   3.652  69.584  1.00  0.00    -0.151 C  
BRANCH  19  20
HETATM   20  N   UNL     1      -9.435   3.883  71.011  1.00  0.00    -0.153 NA 
HETATM   21  H   UNL     1     -10.221   3.319  71.335  1.00  0.00     0.000 HD 
BRANCH  20  22
HETATM   22  C   UNL     1      -8.255   3.663  71.858  1.00  0.00    -0.071 C  
HETATM   23  C   UNL     1      -7.045   3.149  71.065  1.00  0.00    -0.033 C  
HETATM   24  C   UNL     1      -7.893   4.996  72.514  1.00  0.00    -0.097 C  
ENDBRANCH  20  22
ENDBRANCH  19  20
ENDBRANCH  16  19
ENDBRANCH  15  16
ENDBRANCH  14  15
ENDBRANCH  11  14
BRANCH  12  25
HETATM   25  C   UNL     1     -11.114   6.727  72.697  1.00  0.00    -0.265 C  
HETATM   26  C   UNL     1     -10.191   6.892  73.875  1.00  0.00    -0.401 C  
HETATM   27  O   UNL     1     -11.669   5.646  72.493  1.00  0.00    -0.297 OA 
ENDBRANCH  12  25
ENDBRANCH   6   8
ENDBRANCH   3   4
ENDBRANCH   2   3
TORSDOF 10
ENDMDL
MODEL      126
REMARK 921   NORMALIZED FREE ENERGY PREDICTED BY IDOCK:   -4.12 KCAL/MOL
REMARK 922        TOTAL FREE ENERGY PREDICTED BY IDOCK:   -7.56 KCAL/MOL
REMARK 923 INTER-LIGAND FREE ENERGY PREDICTED BY IDOCK:   -6.28 KCAL/MOL
REMARK 924 INTRA-LIGAND FREE ENERGY PREDICTED BY IDOCK:   -1.29 KCAL/MOL
REMARK 927      BINDING AFFINITY PREDICTED BY RF-SCORE:    0.00 PKD
ROOT
HETATM    1  C   UNL     1     -13.439  15.522  72.432  1.00  0.00    -0.606 C  
HETATM    2  C   UNL     1     -12.935  14.276  71.726  1.00  0.00    -0.430 C  
ENDROOT
BRANCH   2   3
HETATM    3  C   UNL     1     -13.399  13.012  72.437  1.00  0.00    -0.563 C  
BRANCH   3   4
HETATM    4  C   UNL     1     -12.935  11.780  71.693  1.00  0.00    -0.362 C  
HETATM    5  O   UNL     1     -13.273  10.664  72.080  1.00  0.00    -0.473 OA 
HETATM    6  N   UNL     1     -12.181  12.069  70.564  1.00  0.00    -0.361 N  
HETATM    7  H   UNL     1     -12.021  13.053  70.350  1.00  0.00     0.000 HD 
BRANCH   6   8
HETATM    8  C   UNL     1     -11.616  11.119  69.686  1.00  0.00    -0.326 A  
HETATM    9  C   UNL     1     -11.800  11.159  68.307  1.00  0.00    -0.260 A  
HETATM   10  C   UNL     1     -11.148  10.253  67.470  1.00  0.00    -0.302 A  
HETATM   11  C   UNL     1     -10.299   9.269  67.987  1.00  0.00    -0.221 A  
HETATM   12  C   UNL     1     -10.168   9.166  69.381  1.00  0.00    -0.212 A  
HETATM   13  C   UNL     1     -10.827  10.096  70.219  1.00  0.00    -0.370 A  
BRANCH  11  14
HETATM   14  O   UNL     1      -9.558   8.433  67.192  1.00  0.00    -0.158 OA 
BRANCH  14  15
HETATM   15  C   UNL     1      -8.589   9.045  66.324  1.00  0.00    -0.128 C  
BRANCH  15  16
HETATM   16  C   UNL     1      -7.440   9.619  67.165  1.00  0.00    -0.088 C  
HETATM   17  H   UNL     1      -5.749   8.952  67.906  1.00  0.00     0.000 HD 
HETATM   18  O   UNL     1      -6.460   8.596  67.386  1.00  0.00    -0.056 OA 
BRANCH  16  19
HETATM   19  C   UNL     1      -6.757  10.828  66.493  1.00  0.00    -0.126 C  
BRANCH  19  20
HETATM   20  N   UNL     1      -7.555  12.052  66.612  1.00  0.00    -0.374 NA 
HETATM   21  H   UNL     1      -8.393  11.992  66.035  1.00  0.00     0.000 HD 
BRANCH  20  22
HETATM   22  C   UNL     1      -7.902  12.396  67.998  1.00  0.00    -0.141 C  
HETATM   23  C   UNL     1      -6.682  12.825  68.825  1.00  0.00    -0.093 C  
HETATM   24  C   UNL     1      -8.909  13.547  67.958  1.00  0.00    -0.181 C  
ENDBRANCH  20  22
ENDBRANCH  19  20
ENDBRANCH  16  19
ENDBRANCH  15  16
ENDBRANCH  14  15
ENDBRANCH  11  14
BRANCH  12  25
HETATM   25  C   UNL     1      -9.315   8.155  70.075  1.00  0.00    -0.159 C  
HETATM   26  C   UNL     1      -9.805   6.753  70.321  1.00  0.00    -0.185 C  
HETATM   27  O   UNL     1      -8.209   8.505  70.488  1.00  0.00    -0.100 OA 
ENDBRANCH  12  25
ENDBRANCH   6   8
ENDBRANCH   3   4
ENDBRANCH   2   3
TORSDOF 10
ENDMDL
MODEL      127
REMARK 921   NORMALIZED FREE ENERGY PREDICTED BY IDOCK:   -4.12 KCAL/MOL
REMARK 922        TOTAL FREE ENERGY PREDICTED BY IDOCK:   -7.56 KCAL/MOL
REMARK 923 INTER-LIGAND FREE ENERGY PREDICTED BY IDOCK:   -6.33 KCAL/MOL
REMARK 924 INTRA-LIGAND FREE ENERGY PREDICTED BY IDOCK:   -1.23 KCAL/MOL
REMARK 927      BINDING AFFINITY PREDICTED BY RF-SCORE:    0.00 PKD
ROOT
HETATM    1  C   UNL     1     -10.904   6.296  68.444  1.00  0.00    -0.394 C  
HETATM    2  C   UNL     1     -10.662   6.998  67.119  1.00  0.00    -0.433 C  
ENDROOT
BRANCH   2   3
HETATM    3  C   UNL     1      -9.215   7.452  66.991  1.00  0.00    -0.169 C  
BRANCH   3   4
HETATM    4  C   UNL     1      -9.144   8.932  66.695  1.00  0.00    -0.156 C  
HETATM    5  O   UNL     1      -8.056   9.476  66.532  1.00  0.00    -0.110 OA 
HETATM    6  N   UNL     1     -10.391   9.532  66.583  1.00  0.00    -0.233 N  
HETATM    7  H   UNL     1     -11.209   8.934  66.704  1.00  0.00     0.000 HD 
BRANCH   6   8
HETATM    8  C   UNL     1     -10.627  10.898  66.317  1.00  0.00    -0.214 A  
HETATM    9  C   UNL     1     -10.868  11.390  65.037  1.00  0.00    -0.311 A  
HETATM   10  C   UNL     1     -11.187  12.734  64.833  1.00  0.00    -0.331 A  
HETATM   11  C   UNL     1     -11.262  13.631  65.903  1.00  0.00    -0.304 A  
HETATM   12  C   UNL     1     -10.943  13.166  67.188  1.00  0.00    -0.289 A  
HETATM   13  C   UNL     1     -10.630  11.801  67.384  1.00  0.00    -0.258 A  
BRANCH  11  14
HETATM   14  O   UNL     1     -11.678  14.930  65.756  1.00  0.00    -0.296 OA 
BRANCH  14  15
HETATM   15  C   UNL     1     -10.935  15.755  64.842  1.00  0.00    -0.427 C  
BRANCH  15  16
HETATM   16  C   UNL     1     -10.129  16.795  65.632  1.00  0.00    -0.189 C  
HETATM   17  H   UNL     1     -10.357  17.801  67.303  1.00  0.00     0.000 HD 
HETATM   18  O   UNL     1     -10.856  17.158  66.814  1.00  0.00    -0.152 OA 
BRANCH  16  19
HETATM   19  C   UNL     1      -8.734  16.280  66.044  1.00  0.00    -0.250 C  
BRANCH  19  20
HETATM   20  N   UNL     1      -7.765  17.369  66.197  1.00  0.00    -0.431 NA 
HETATM   21  H   UNL     1      -8.231  18.275  66.148  1.00  0.00     0.000 HD 
BRANCH  20  22
HETATM   22  C   UNL     1      -6.952  17.268  67.417  1.00  0.00    -0.161 C  
HETATM   23  C   UNL     1      -5.573  17.924  67.266  1.00  0.00    -0.154 C  
HETATM   24  C   UNL     1      -7.714  17.960  68.548  1.00  0.00    -0.299 C  
ENDBRANCH  20  22
ENDBRANCH  19  20
ENDBRANCH  16  19
ENDBRANCH  15  16
ENDBRANCH  14  15
ENDBRANCH  11  14
BRANCH  12  25
HETATM   25  C   UNL     1     -10.960  14.013  68.420  1.00  0.00    -0.252 C  
HETATM   26  C   UNL     1      -9.710  14.673  68.935  1.00  0.00    -0.196 C  
HETATM   27  O   UNL     1     -12.020  14.126  69.038  1.00  0.00    -0.325 OA 
ENDBRANCH  12  25
ENDBRANCH   6   8
ENDBRANCH   3   4
ENDBRANCH   2   3
TORSDOF 10
ENDMDL
MODEL      128
REMARK 921   NORMALIZED FREE ENERGY PREDICTED BY IDOCK:   -4.12 KCAL/MOL
REMARK 922        TOTAL FREE ENERGY PREDICTED BY IDOCK:   -7.55 KCAL/MOL
REMARK 923 INTER-LIGAND FREE ENERGY PREDICTED BY IDOCK:   -6.10 KCAL/MOL
REMARK 924 INTRA-LIGAND FREE ENERGY PREDICTED BY IDOCK:   -1.45 KCAL/MOL
REMARK 927      BINDING AFFINITY PREDICTED BY RF-SCORE:    0.00 PKD
ROOT
HETATM    1  C   UNL     1     -12.142  12.275  63.437  1.00  0.00    -0.615 C  
HETATM    2  C   UNL     1     -12.710  12.919  64.690  1.00  0.00    -0.403 C  
ENDROOT
BRANCH   2   3
HETATM    3  C   UNL     1     -11.601  13.361  65.635  1.00  0.00    -0.350 C  
BRANCH   3   4
HETATM    4  C   UNL     1     -11.471  12.397  66.792  1.00  0.00    -0.362 C  
HETATM    5  O   UNL     1     -12.270  12.442  67.723  1.00  0.00    -0.395 OA 
HETATM    6  N   UNL     1     -10.436  11.485  66.637  1.00  0.00    -0.229 N  
HETATM    7  H   UNL     1      -9.883  11.549  65.782  1.00  0.00     0.000 HD 
BRANCH   6   8
HETATM    8  C   UNL     1     -10.082  10.477  67.559  1.00  0.00    -0.189 A  
HETATM    9  C   UNL     1      -9.615  10.752  68.841  1.00  0.00    -0.204 A  
HETATM   10  C   UNL     1      -9.363   9.723  69.750  1.00  0.00    -0.249 A  
HETATM   11  C   UNL     1      -9.560   8.383  69.401  1.00  0.00    -0.170 A  
HETATM   12  C   UNL     1      -9.953   8.087  68.086  1.00  0.00    -0.217 A  
HETATM   13  C   UNL     1     -10.214   9.139  67.177  1.00  0.00    -0.329 A  
BRANCH  11  14
HETATM   14  O   UNL     1      -9.429   7.354  70.298  1.00  0.00    -0.165 OA 
BRANCH  14  15
HETATM   15  C   UNL     1     -10.054   7.522  71.581  1.00  0.00    -0.180 C  
BRANCH  15  16
HETATM   16  C   UNL     1     -11.102   6.419  71.788  1.00  0.00    -0.265 C  
HETATM   17  H   UNL     1     -12.754   5.842  70.897  1.00  0.00     0.000 HD 
HETATM   18  O   UNL     1     -12.106   6.525  70.770  1.00  0.00    -0.362 OA 
BRANCH  16  19
HETATM   19  C   UNL     1     -10.491   5.003  71.740  1.00  0.00    -0.176 C  
BRANCH  19  20
HETATM   20  N   UNL     1     -10.132   4.600  70.376  1.00  0.00    -0.232 NA 
HETATM   21  H   UNL     1      -9.891   5.415  69.813  1.00  0.00     0.000 HD 
BRANCH  20  22
HETATM   22  C   UNL     1      -9.062   3.595  70.320  1.00  0.00    -0.130 C  
HETATM   23  C   UNL     1      -9.339   2.493  69.289  1.00  0.00    -0.183 C  
HETATM   24  C   UNL     1      -7.763   4.311  69.951  1.00  0.00    -0.053 C  
ENDBRANCH  20  22
ENDBRANCH  19  20
ENDBRANCH  16  19
ENDBRANCH  15  16
ENDBRANCH  14  15
ENDBRANCH  11  14
BRANCH  12  25
HETATM   25  C   UNL     1     -10.182   6.705  67.566  1.00  0.00    -0.181 C  
HETATM   26  C   UNL     1      -9.255   6.084  66.556  1.00  0.00    -0.158 C  
HETATM   27  O   UNL     1     -11.180   6.092  67.948  1.00  0.00    -0.304 OA 
ENDBRANCH  12  25
ENDBRANCH   6   8
ENDBRANCH   3   4
ENDBRANCH   2   3
TORSDOF 10
ENDMDL
MODEL      129
REMARK 921   NORMALIZED FREE ENERGY PREDICTED BY IDOCK:   -4.11 KCAL/MOL
REMARK 922        TOTAL FREE ENERGY PREDICTED BY IDOCK:   -7.54 KCAL/MOL
REMARK 923 INTER-LIGAND FREE ENERGY PREDICTED BY IDOCK:   -6.60 KCAL/MOL
REMARK 924 INTRA-LIGAND FREE ENERGY PREDICTED BY IDOCK:   -0.94 KCAL/MOL
REMARK 927      BINDING AFFINITY PREDICTED BY RF-SCORE:    0.00 PKD
ROOT
HETATM    1  C   UNL     1     -11.046   2.932  73.565  1.00  0.00    -0.316 C  
HETATM    2  C   UNL     1     -10.515   4.354  73.512  1.00  0.00    -0.268 C  
ENDROOT
BRANCH   2   3
HETATM    3  C   UNL     1     -11.365   5.228  72.600  1.00  0.00    -0.296 C  
BRANCH   3   4
HETATM    4  C   UNL     1     -10.643   5.506  71.302  1.00  0.00    -0.236 C  
HETATM    5  O   UNL     1      -9.760   4.746  70.914  1.00  0.00    -0.164 OA 
HETATM    6  N   UNL     1     -11.121   6.624  70.633  1.00  0.00    -0.277 N  
HETATM    7  H   UNL     1     -11.893   7.132  71.066  1.00  0.00     0.000 HD 
BRANCH   6   8
HETATM    8  C   UNL     1     -10.634   7.121  69.405  1.00  0.00    -0.233 A  
HETATM    9  C   UNL     1     -11.134   6.714  68.172  1.00  0.00    -0.287 A  
HETATM   10  C   UNL     1     -10.683   7.299  66.987  1.00  0.00    -0.406 A  
HETATM   11  C   UNL     1      -9.710   8.303  66.998  1.00  0.00    -0.211 A  
HETATM   12  C   UNL     1      -9.139   8.666  68.229  1.00  0.00    -0.141 A  
HETATM   13  C   UNL     1      -9.610   8.072  69.423  1.00  0.00    -0.160 A  
BRANCH  11  14
HETATM   14  O   UNL     1      -9.323   8.977  65.868  1.00  0.00    -0.212 OA 
BRANCH  14  15
HETATM   15  C   UNL     1     -10.058  10.164  65.530  1.00  0.00    -0.268 C  
BRANCH  15  16
HETATM   16  C   UNL     1      -9.197  11.060  64.629  1.00  0.00    -0.168 C  
HETATM   17  H   UNL     1      -7.653  10.817  63.440  1.00  0.00     0.000 HD 
HETATM   18  O   UNL     1      -8.186  10.263  63.998  1.00  0.00    -0.159 OA 
BRANCH  16  19
HETATM   19  C   UNL     1     -10.021  11.776  63.539  1.00  0.00    -0.408 C  
BRANCH  19  20
HETATM   20  N   UNL     1     -10.385  13.142  63.928  1.00  0.00    -0.677 NA 
HETATM   21  H   UNL     1     -10.094  13.809  63.214  1.00  0.00     0.000 HD 
BRANCH  20  22
HETATM   22  C   UNL     1     -11.812  13.305  64.239  1.00  0.00    -0.417 C  
HETATM   23  C   UNL     1     -12.665  12.129  63.743  1.00  0.00    -0.525 C  
HETATM   24  C   UNL     1     -11.951  13.418  65.758  1.00  0.00    -0.447 C  
ENDBRANCH  20  22
ENDBRANCH  19  20
ENDBRANCH  16  19
ENDBRANCH  15  16
ENDBRANCH  14  15
ENDBRANCH  11  14
BRANCH  12  25
HETATM   25  C   UNL     1      -8.078   9.705  68.392  1.00  0.00    -0.104 C  
HETATM   26  C   UNL     1      -8.423  11.136  68.702  1.00  0.00    -0.153 C  
HETATM   27  O   UNL     1      -6.903   9.374  68.222  1.00  0.00    -0.062 OA 
ENDBRANCH  12  25
ENDBRANCH   6   8
ENDBRANCH   3   4
ENDBRANCH   2   3
TORSDOF 10
ENDMDL
MODEL      130
REMARK 921   NORMALIZED FREE ENERGY PREDICTED BY IDOCK:   -4.06 KCAL/MOL
REMARK 922        TOTAL FREE ENERGY PREDICTED BY IDOCK:   -7.46 KCAL/MOL
REMARK 923 INTER-LIGAND FREE ENERGY PREDICTED BY IDOCK:   -6.80 KCAL/MOL
REMARK 924 INTRA-LIGAND FREE ENERGY PREDICTED BY IDOCK:   -0.66 KCAL/MOL
REMARK 927      BINDING AFFINITY PREDICTED BY RF-SCORE:    0.00 PKD
ROOT
HETATM    1  C   UNL     1     -13.147  16.110  73.490  1.00  0.00    -0.594 C  
HETATM    2  C   UNL     1     -13.188  14.658  73.049  1.00  0.00    -0.587 C  
ENDROOT
BRANCH   2   3
HETATM    3  C   UNL     1     -13.586  14.536  71.584  1.00  0.00    -0.469 C  
BRANCH   3   4
HETATM    4  C   UNL     1     -12.649  13.603  70.852  1.00  0.00    -0.346 C  
HETATM    5  O   UNL     1     -11.729  14.057  70.178  1.00  0.00    -0.279 OA 
HETATM    6  N   UNL     1     -12.919  12.260  71.080  1.00  0.00    -0.213 N  
HETATM    7  H   UNL     1     -13.697  12.041  71.703  1.00  0.00     0.000 HD 
BRANCH   6   8
HETATM    8  C   UNL     1     -12.212  11.172  70.526  1.00  0.00    -0.384 A  
HETATM    9  C   UNL     1     -11.827  11.121  69.190  1.00  0.00    -0.419 A  
HETATM   10  C   UNL     1     -11.050  10.067  68.707  1.00  0.00    -0.219 A  
HETATM   11  C   UNL     1     -10.643   9.023  69.544  1.00  0.00    -0.225 A  
HETATM   12  C   UNL     1     -11.091   9.021  70.874  1.00  0.00    -0.343 A  
HETATM   13  C   UNL     1     -11.870  10.100  71.354  1.00  0.00    -0.414 A  
BRANCH  11  14
HETATM   14  O   UNL     1      -9.790   8.030  69.134  1.00  0.00    -0.171 OA 
BRANCH  14  15
HETATM   15  C   UNL     1      -8.613   8.434  68.415  1.00  0.00    -0.139 C  
BRANCH  15  16
HETATM   16  C   UNL     1      -8.365   7.463  67.252  1.00  0.00    -0.119 C  
HETATM   17  H   UNL     1      -8.741   5.573  66.873  1.00  0.00     0.000 HD 
HETATM   18  O   UNL     1      -8.894   6.174  67.592  1.00  0.00    -0.106 OA 
BRANCH  16  19
HETATM   19  C   UNL     1      -9.014   7.935  65.934  1.00  0.00    -0.123 C  
BRANCH  19  20
HETATM   20  N   UNL     1      -9.385   9.353  65.978  1.00  0.00    -0.200 NA 
HETATM   21  H   UNL     1      -9.236   9.736  66.911  1.00  0.00     0.000 HD 
BRANCH  20  22
HETATM   22  C   UNL     1      -8.704  10.172  64.965  1.00  0.00    -0.173 C  
HETATM   23  C   UNL     1      -7.458   9.485  64.389  1.00  0.00    -0.118 C  
HETATM   24  C   UNL     1      -9.696  10.442  63.833  1.00  0.00    -0.367 C  
ENDBRANCH  20  22
ENDBRANCH  19  20
ENDBRANCH  16  19
ENDBRANCH  15  16
ENDBRANCH  14  15
ENDBRANCH  11  14
BRANCH  12  25
HETATM   25  C   UNL     1     -10.754   7.964  71.876  1.00  0.00    -0.237 C  
HETATM   26  C   UNL     1     -11.646   6.769  72.084  1.00  0.00    -0.324 C  
HETATM   27  O   UNL     1      -9.746   8.113  72.568  1.00  0.00    -0.229 OA 
ENDBRANCH  12  25
ENDBRANCH   6   8
ENDBRANCH   3   4
ENDBRANCH   2   3
TORSDOF 10
ENDMDL
MODEL      131
REMARK 921   NORMALIZED FREE ENERGY PREDICTED BY IDOCK:   -4.05 KCAL/MOL
REMARK 922        TOTAL FREE ENERGY PREDICTED BY IDOCK:   -7.45 KCAL/MOL
REMARK 923 INTER-LIGAND FREE ENERGY PREDICTED BY IDOCK:   -6.87 KCAL/MOL
REMARK 924 INTRA-LIGAND FREE ENERGY PREDICTED BY IDOCK:   -0.57 KCAL/MOL
REMARK 927      BINDING AFFINITY PREDICTED BY RF-SCORE:    0.00 PKD
ROOT
HETATM    1  C   UNL     1      -6.665  20.148  65.138  1.00  0.00    -0.333 C  
HETATM    2  C   UNL     1      -6.441  20.866  66.457  1.00  0.00    -0.333 C  
ENDROOT
BRANCH   2   3
HETATM    3  C   UNL     1      -7.714  20.900  67.291  1.00  0.00    -0.276 C  
BRANCH   3   4
HETATM    4  C   UNL     1      -7.923  19.582  68.000  1.00  0.00    -0.307 C  
HETATM    5  O   UNL     1      -7.256  19.305  68.993  1.00  0.00    -0.340 OA 
HETATM    6  N   UNL     1      -8.939  18.814  67.448  1.00  0.00    -0.271 N  
HETATM    7  H   UNL     1      -9.433  19.202  66.645  1.00  0.00     0.000 HD 
BRANCH   6   8
HETATM    8  C   UNL     1      -9.347  17.541  67.901  1.00  0.00    -0.265 A  
HETATM    9  C   UNL     1     -10.623  17.287  68.396  1.00  0.00    -0.368 A  
HETATM   10  C   UNL     1     -11.011  15.993  68.748  1.00  0.00    -0.320 A  
HETATM   11  C   UNL     1     -10.131  14.913  68.625  1.00  0.00    -0.237 A  
HETATM   12  C   UNL     1      -8.817  15.168  68.202  1.00  0.00    -0.169 A  
HETATM   13  C   UNL     1      -8.438  16.481  67.841  1.00  0.00    -0.182 A  
BRANCH  11  14
HETATM   14  O   UNL     1     -10.510  13.615  68.855  1.00  0.00    -0.226 OA 
BRANCH  14  15
HETATM   15  C   UNL     1     -11.768  13.193  68.302  1.00  0.00    -0.349 C  
BRANCH  15  16
HETATM   16  C   UNL     1     -11.569  11.891  67.513  1.00  0.00    -0.304 C  
HETATM   17  H   UNL     1     -10.413  11.278  66.049  1.00  0.00     0.000 HD 
HETATM   18  O   UNL     1     -10.537  12.084  66.537  1.00  0.00    -0.223 OA 
BRANCH  16  19
HETATM   19  C   UNL     1     -11.183  10.701  68.417  1.00  0.00    -0.288 C  
BRANCH  19  20
HETATM   20  N   UNL     1     -11.126  11.077  69.833  1.00  0.00    -0.420 NA 
HETATM   21  H   UNL     1     -11.175  12.090  69.938  1.00  0.00     0.000 HD 
BRANCH  20  22
HETATM   22  C   UNL     1     -12.148  10.420  70.659  1.00  0.00    -0.348 C  
HETATM   23  C   UNL     1     -11.554   9.380  71.620  1.00  0.00    -0.466 C  
HETATM   24  C   UNL     1     -12.863  11.501  71.472  1.00  0.00    -0.485 C  
ENDBRANCH  20  22
ENDBRANCH  19  20
ENDBRANCH  16  19
ENDBRANCH  15  16
ENDBRANCH  14  15
ENDBRANCH  11  14
BRANCH  12  25
HETATM   25  C   UNL     1      -7.764  14.119  68.044  1.00  0.00    -0.147 C  
HETATM   26  C   UNL     1      -7.858  12.800  68.763  1.00  0.00     0.040 C  
HETATM   27  O   UNL     1      -6.784  14.373  67.342  1.00  0.00    -0.256 OA 
ENDBRANCH  12  25
ENDBRANCH   6   8
ENDBRANCH   3   4
ENDBRANCH   2   3
TORSDOF 10
ENDMDL
MODEL      132
REMARK 921   NORMALIZED FREE ENERGY PREDICTED BY IDOCK:   -3.98 KCAL/MOL
REMARK 922        TOTAL FREE ENERGY PREDICTED BY IDOCK:   -7.34 KCAL/MOL
REMARK 923 INTER-LIGAND FREE ENERGY PREDICTED BY IDOCK:   -6.50 KCAL/MOL
REMARK 924 INTRA-LIGAND FREE ENERGY PREDICTED BY IDOCK:   -0.85 KCAL/MOL
REMARK 927      BINDING AFFINITY PREDICTED BY RF-SCORE:    0.00 PKD
ROOT
HETATM    1  C   UNL     1      -9.305  20.629  67.263  1.00  0.00    -0.480 C  
HETATM    2  C   UNL     1      -8.719  19.549  68.155  1.00  0.00    -0.368 C  
ENDROOT
BRANCH   2   3
HETATM    3  C   UNL     1      -9.798  18.595  68.650  1.00  0.00    -0.427 C  
BRANCH   3   4
HETATM    4  C   UNL     1      -9.689  17.259  67.951  1.00  0.00    -0.273 C  
HETATM    5  O   UNL     1      -9.850  17.185  66.736  1.00  0.00    -0.261 OA 
HETATM    6  N   UNL     1      -9.350  16.217  68.803  1.00  0.00    -0.218 N  
HETATM    7  H   UNL     1      -9.208  16.447  69.787  1.00  0.00     0.000 HD 
BRANCH   6   8
HETATM    8  C   UNL     1      -9.186  14.866  68.427  1.00  0.00    -0.189 A  
HETATM    9  C   UNL     1      -7.983  14.182  68.569  1.00  0.00    -0.145 A  
HETATM   10  C   UNL     1      -7.891  12.822  68.268  1.00  0.00    -0.141 A  
HETATM   11  C   UNL     1      -9.000  12.105  67.806  1.00  0.00    -0.179 A  
HETATM   12  C   UNL     1     -10.198  12.801  67.582  1.00  0.00    -0.219 A  
HETATM   13  C   UNL     1     -10.281  14.177  67.898  1.00  0.00    -0.235 A  
BRANCH  11  14
HETATM   14  O   UNL     1      -8.977  10.748  67.605  1.00  0.00    -0.138 OA 
BRANCH  14  15
HETATM   15  C   UNL     1      -8.412  10.279  66.370  1.00  0.00    -0.130 C  
BRANCH  15  16
HETATM   16  C   UNL     1      -9.099   8.970  65.958  1.00  0.00    -0.208 C  
HETATM   17  H   UNL     1      -9.091   7.791  64.388  1.00  0.00     0.000 HD 
HETATM   18  O   UNL     1      -8.666   8.602  64.642  1.00  0.00    -0.141 OA 
BRANCH  16  19
HETATM   19  C   UNL     1      -8.795   7.807  66.926  1.00  0.00    -0.131 C  
BRANCH  19  20
HETATM   20  N   UNL     1      -9.759   7.739  68.029  1.00  0.00    -0.150 NA 
HETATM   21  H   UNL     1     -10.284   8.610  68.103  1.00  0.00     0.000 HD 
BRANCH  20  22
HETATM   22  C   UNL     1     -10.670   6.589  67.945  1.00  0.00    -0.287 C  
HETATM   23  C   UNL     1      -9.980   5.325  67.413  1.00  0.00    -0.206 C  
HETATM   24  C   UNL     1     -11.207   6.312  69.350  1.00  0.00    -0.489 C  
ENDBRANCH  20  22
ENDBRANCH  19  20
ENDBRANCH  16  19
ENDBRANCH  15  16
ENDBRANCH  14  15
ENDBRANCH  11  14
BRANCH  12  25
HETATM   25  C   UNL     1     -11.455  12.173  67.072  1.00  0.00    -0.350 C  
HETATM   26  C   UNL     1     -11.985  12.485  65.698  1.00  0.00    -0.492 C  
HETATM   27  O   UNL     1     -12.080  11.422  67.821  1.00  0.00    -0.637 OA 
ENDBRANCH  12  25
ENDBRANCH   6   8
ENDBRANCH   3   4
ENDBRANCH   2   3
TORSDOF 10
ENDMDL
MODEL      133
REMARK 921   NORMALIZED FREE ENERGY PREDICTED BY IDOCK:   -3.98 KCAL/MOL
REMARK 922        TOTAL FREE ENERGY PREDICTED BY IDOCK:   -7.34 KCAL/MOL
REMARK 923 INTER-LIGAND FREE ENERGY PREDICTED BY IDOCK:   -6.13 KCAL/MOL
REMARK 924 INTRA-LIGAND FREE ENERGY PREDICTED BY IDOCK:   -1.20 KCAL/MOL
REMARK 927      BINDING AFFINITY PREDICTED BY RF-SCORE:    0.00 PKD
ROOT
HETATM    1  C   UNL     1      -8.400   5.445  62.486  1.00  0.00    -0.114 C  
HETATM    2  C   UNL     1      -8.190   4.277  63.434  1.00  0.00    -0.095 C  
ENDROOT
BRANCH   2   3
HETATM    3  C   UNL     1      -9.452   3.983  64.235  1.00  0.00    -0.162 C  
BRANCH   3   4
HETATM    4  C   UNL     1      -9.381   4.631  65.599  1.00  0.00    -0.160 C  
HETATM    5  O   UNL     1      -8.484   4.326  66.380  1.00  0.00    -0.111 OA 
HETATM    6  N   UNL     1     -10.364   5.589  65.806  1.00  0.00    -0.420 N  
HETATM    7  H   UNL     1     -11.016   5.760  65.040  1.00  0.00     0.000 HD 
BRANCH   6   8
HETATM    8  C   UNL     1     -10.540   6.347  66.984  1.00  0.00    -0.327 A  
HETATM    9  C   UNL     1     -10.884   5.778  68.206  1.00  0.00    -0.249 A  
HETATM   10  C   UNL     1     -10.959   6.555  69.363  1.00  0.00    -0.395 A  
HETATM   11  C   UNL     1     -10.702   7.929  69.332  1.00  0.00    -0.168 A  
HETATM   12  C   UNL     1     -10.433   8.530  68.092  1.00  0.00    -0.236 A  
HETATM   13  C   UNL     1     -10.351   7.730  66.928  1.00  0.00    -0.396 A  
BRANCH  11  14
HETATM   14  O   UNL     1     -10.658   8.704  70.463  1.00  0.00    -0.205 OA 
BRANCH  14  15
HETATM   15  C   UNL     1     -11.906   9.232  70.943  1.00  0.00    -0.282 C  
BRANCH  15  16
HETATM   16  C   UNL     1     -12.397   8.388  72.127  1.00  0.00    -0.370 C  
HETATM   17  H   UNL     1     -13.641   6.890  72.387  1.00  0.00     0.000 HD 
HETATM   18  O   UNL     1     -13.337   7.414  71.654  1.00  0.00    -0.362 OA 
BRANCH  16  19
HETATM   19  C   UNL     1     -11.249   7.660  72.855  1.00  0.00    -0.372 C  
BRANCH  19  20
HETATM   20  N   UNL     1     -11.487   6.217  72.961  1.00  0.00    -0.486 NA 
HETATM   21  H   UNL     1     -12.037   5.884  72.170  1.00  0.00     0.000 HD 
BRANCH  20  22
HETATM   22  C   UNL     1     -10.258   5.425  73.109  1.00  0.00    -0.190 C  
HETATM   23  C   UNL     1     -10.180   4.261  72.111  1.00  0.00    -0.234 C  
HETATM   24  C   UNL     1      -9.068   6.358  72.881  1.00  0.00    -0.132 C  
ENDBRANCH  20  22
ENDBRANCH  19  20
ENDBRANCH  16  19
ENDBRANCH  15  16
ENDBRANCH  14  15
ENDBRANCH  11  14
BRANCH  12  25
HETATM   25  C   UNL     1     -10.161   9.987  67.902  1.00  0.00    -0.169 C  
HETATM   26  C   UNL     1     -11.278  10.971  67.680  1.00  0.00    -0.373 C  
HETATM   27  O   UNL     1      -8.989  10.366  67.885  1.00  0.00    -0.127 OA 
ENDBRANCH  12  25
ENDBRANCH   6   8
ENDBRANCH   3   4
ENDBRANCH   2   3
TORSDOF 10
ENDMDL
MODEL      134
REMARK 921   NORMALIZED FREE ENERGY PREDICTED BY IDOCK:   -3.98 KCAL/MOL
REMARK 922        TOTAL FREE ENERGY PREDICTED BY IDOCK:   -7.34 KCAL/MOL
REMARK 923 INTER-LIGAND FREE ENERGY PREDICTED BY IDOCK:   -5.53 KCAL/MOL
REMARK 924 INTRA-LIGAND FREE ENERGY PREDICTED BY IDOCK:   -1.81 KCAL/MOL
REMARK 927      BINDING AFFINITY PREDICTED BY RF-SCORE:    0.00 PKD
ROOT
HETATM    1  C   UNL     1     -11.625  15.165  64.837  1.00  0.00    -0.336 C  
HETATM    2  C   UNL     1     -11.750  14.167  65.974  1.00  0.00    -0.389 C  
ENDROOT
BRANCH   2   3
HETATM    3  C   UNL     1     -12.134  12.786  65.458  1.00  0.00    -0.517 C  
BRANCH   3   4
HETATM    4  C   UNL     1     -11.010  11.802  65.681  1.00  0.00    -0.295 C  
HETATM    5  O   UNL     1     -10.069  11.753  64.893  1.00  0.00    -0.246 OA 
HETATM    6  N   UNL     1     -11.150  11.057  66.844  1.00  0.00    -0.260 N  
HETATM    7  H   UNL     1     -11.971  11.244  67.420  1.00  0.00     0.000 HD 
BRANCH   6   8
HETATM    8  C   UNL     1     -10.256  10.065  67.300  1.00  0.00    -0.222 A  
HETATM    9  C   UNL     1     -10.047   8.866  66.624  1.00  0.00    -0.357 A  
HETATM   10  C   UNL     1      -9.086   7.954  67.064  1.00  0.00    -0.162 A  
HETATM   11  C   UNL     1      -8.312   8.207  68.200  1.00  0.00    -0.129 A  
HETATM   12  C   UNL     1      -8.569   9.374  68.937  1.00  0.00    -0.131 A  
HETATM   13  C   UNL     1      -9.538  10.295  68.476  1.00  0.00    -0.165 A  
BRANCH  11  14
HETATM   14  O   UNL     1      -7.286   7.388  68.599  1.00  0.00    -0.090 OA 
BRANCH  14  15
HETATM   15  C   UNL     1      -7.535   5.972  68.581  1.00  0.00    -0.087 C  
BRANCH  15  16
HETATM   16  C   UNL     1      -7.501   5.430  70.017  1.00  0.00    -0.069 C  
HETATM   17  H   UNL     1      -6.662   5.949  71.714  1.00  0.00     0.000 HD 
HETATM   18  O   UNL     1      -6.682   6.284  70.826  1.00  0.00    -0.057 OA 
BRANCH  16  19
HETATM   19  C   UNL     1      -8.905   5.339  70.651  1.00  0.00    -0.130 C  
BRANCH  19  20
HETATM   20  N   UNL     1      -9.352   6.626  71.192  1.00  0.00    -0.163 NA 
HETATM   21  H   UNL     1      -8.748   7.381  70.869  1.00  0.00     0.000 HD 
BRANCH  20  22
HETATM   22  C   UNL     1     -10.761   6.930  70.904  1.00  0.00    -0.230 C  
HETATM   23  C   UNL     1     -11.219   6.377  69.547  1.00  0.00    -0.477 C  
HETATM   24  C   UNL     1     -11.612   6.307  72.011  1.00  0.00    -0.372 C  
ENDBRANCH  20  22
ENDBRANCH  19  20
ENDBRANCH  16  19
ENDBRANCH  15  16
ENDBRANCH  14  15
ENDBRANCH  11  14
BRANCH  12  25
HETATM   25  C   UNL     1      -7.837   9.765  70.180  1.00  0.00    -0.183 C  
HETATM   26  C   UNL     1      -6.661  10.703  70.134  1.00  0.00    -0.143 C  
HETATM   27  O   UNL     1      -8.189   9.264  71.249  1.00  0.00    -0.324 OA 
ENDBRANCH  12  25
ENDBRANCH   6   8
ENDBRANCH   3   4
ENDBRANCH   2   3
TORSDOF 10
ENDMDL
MODEL      135
REMARK 921   NORMALIZED FREE ENERGY PREDICTED BY IDOCK:   -3.93 KCAL/MOL
REMARK 922        TOTAL FREE ENERGY PREDICTED BY IDOCK:   -7.26 KCAL/MOL
REMARK 923 INTER-LIGAND FREE ENERGY PREDICTED BY IDOCK:   -6.24 KCAL/MOL
REMARK 924 INTRA-LIGAND FREE ENERGY PREDICTED BY IDOCK:   -1.01 KCAL/MOL
REMARK 927      BINDING AFFINITY PREDICTED BY RF-SCORE:    0.00 PKD
ROOT
HETATM    1  C   UNL     1     -10.461  16.192  67.026  1.00  0.00    -0.306 C  
HETATM    2  C   UNL     1     -11.263  15.014  66.503  1.00  0.00    -0.312 C  
ENDROOT
BRANCH   2   3
HETATM    3  C   UNL     1     -10.430  14.152  65.564  1.00  0.00    -0.352 C  
BRANCH   3   4
HETATM    4  C   UNL     1      -9.938  12.912  66.274  1.00  0.00    -0.270 C  
HETATM    5  O   UNL     1      -8.762  12.825  66.617  1.00  0.00    -0.167 OA 
HETATM    6  N   UNL     1     -10.939  11.981  66.518  1.00  0.00    -0.281 N  
HETATM    7  H   UNL     1     -11.881  12.219  66.207  1.00  0.00     0.000 HD 
BRANCH   6   8
HETATM    8  C   UNL     1     -10.767  10.735  67.158  1.00  0.00    -0.272 A  
HETATM    9  C   UNL     1     -10.386   9.582  66.479  1.00  0.00    -0.263 A  
HETATM   10  C   UNL     1     -10.140   8.393  67.168  1.00  0.00    -0.335 A  
HETATM   11  C   UNL     1     -10.278   8.317  68.558  1.00  0.00    -0.208 A  
HETATM   12  C   UNL     1     -10.739   9.451  69.245  1.00  0.00    -0.228 A  
HETATM   13  C   UNL     1     -10.976  10.653  68.537  1.00  0.00    -0.296 A  
BRANCH  11  14
HETATM   14  O   UNL     1      -9.940   7.201  69.279  1.00  0.00    -0.163 OA 
BRANCH  14  15
HETATM   15  C   UNL     1      -9.813   5.967  68.553  1.00  0.00    -0.135 C  
BRANCH  15  16
HETATM   16  C   UNL     1      -9.545   4.820  69.538  1.00  0.00    -0.179 C  
HETATM   17  H   UNL     1      -7.974   4.039  70.419  1.00  0.00     0.000 HD 
HETATM   18  O   UNL     1      -8.140   4.748  69.809  1.00  0.00    -0.068 OA 
BRANCH  16  19
HETATM   19  C   UNL     1     -10.302   4.992  70.872  1.00  0.00    -0.190 C  
BRANCH  19  20
HETATM   20  N   UNL     1      -9.535   5.775  71.846  1.00  0.00    -0.151 NA 
HETATM   21  H   UNL     1      -9.493   6.755  71.567  1.00  0.00     0.000 HD 
BRANCH  20  22
HETATM   22  C   UNL     1     -10.029   5.648  73.224  1.00  0.00    -0.177 C  
HETATM   23  C   UNL     1     -10.241   7.007  73.904  1.00  0.00    -0.388 C  
HETATM   24  C   UNL     1     -11.360   4.897  73.179  1.00  0.00    -0.395 C  
ENDBRANCH  20  22
ENDBRANCH  19  20
ENDBRANCH  16  19
ENDBRANCH  15  16
ENDBRANCH  14  15
ENDBRANCH  11  14
BRANCH  12  25
HETATM   25  C   UNL     1     -10.953   9.512  70.722  1.00  0.00    -0.321 C  
HETATM   26  C   UNL     1     -12.277   9.928  71.306  1.00  0.00    -0.480 C  
HETATM   27  O   UNL     1     -10.003   9.258  71.463  1.00  0.00    -0.307 OA 
ENDBRANCH  12  25
ENDBRANCH   6   8
ENDBRANCH   3   4
ENDBRANCH   2   3
TORSDOF 10
ENDMDL
MODEL      136
REMARK 921   NORMALIZED FREE ENERGY PREDICTED BY IDOCK:   -3.92 KCAL/MOL
REMARK 922        TOTAL FREE ENERGY PREDICTED BY IDOCK:   -7.25 KCAL/MOL
REMARK 923 INTER-LIGAND FREE ENERGY PREDICTED BY IDOCK:   -6.15 KCAL/MOL
REMARK 924 INTRA-LIGAND FREE ENERGY PREDICTED BY IDOCK:   -1.10 KCAL/MOL
REMARK 927      BINDING AFFINITY PREDICTED BY RF-SCORE:    0.00 PKD
ROOT
HETATM    1  C   UNL     1     -12.022  13.419  63.822  1.00  0.00    -0.517 C  
HETATM    2  C   UNL     1     -12.620  12.791  65.069  1.00  0.00    -0.538 C  
ENDROOT
BRANCH   2   3
HETATM    3  C   UNL     1     -11.802  13.133  66.307  1.00  0.00    -0.455 C  
BRANCH   3   4
HETATM    4  C   UNL     1     -11.410  11.878  67.051  1.00  0.00    -0.329 C  
HETATM    5  O   UNL     1     -12.149  11.421  67.919  1.00  0.00    -0.646 OA 
HETATM    6  N   UNL     1     -10.218  11.322  66.608  1.00  0.00    -0.221 N  
HETATM    7  H   UNL     1      -9.738  11.799  65.844  1.00  0.00     0.000 HD 
BRANCH   6   8
HETATM    8  C   UNL     1      -9.610  10.156  67.122  1.00  0.00    -0.169 A  
HETATM    9  C   UNL     1      -8.281  10.112  67.532  1.00  0.00    -0.114 A  
HETATM   10  C   UNL     1      -7.749   8.963  68.118  1.00  0.00    -0.100 A  
HETATM   11  C   UNL     1      -8.528   7.816  68.303  1.00  0.00    -0.124 A  
HETATM   12  C   UNL     1      -9.847   7.820  67.821  1.00  0.00    -0.200 A  
HETATM   13  C   UNL     1     -10.377   8.994  67.237  1.00  0.00    -0.342 A  
BRANCH  11  14
HETATM   14  O   UNL     1      -8.073   6.709  68.972  1.00  0.00    -0.113 OA 
BRANCH  14  15
HETATM   15  C   UNL     1      -6.780   6.804  69.592  1.00  0.00    -0.050 C  
BRANCH  15  16
HETATM   16  C   UNL     1      -6.940   6.750  71.118  1.00  0.00    -0.070 C  
HETATM   17  H   UNL     1      -6.961   8.046  72.593  1.00  0.00     0.000 HD 
HETATM   18  O   UNL     1      -6.862   8.079  71.649  1.00  0.00    -0.050 OA 
BRANCH  16  19
HETATM   19  C   UNL     1      -8.278   6.118  71.554  1.00  0.00    -0.118 C  
BRANCH  19  20
HETATM   20  N   UNL     1      -9.318   7.126  71.783  1.00  0.00    -0.147 NA 
HETATM   21  H   UNL     1      -9.847   7.297  70.928  1.00  0.00     0.000 HD 
BRANCH  20  22
HETATM   22  C   UNL     1     -10.220   6.800  72.896  1.00  0.00    -0.201 C  
HETATM   23  C   UNL     1     -11.457   7.708  72.941  1.00  0.00    -0.342 C  
HETATM   24  C   UNL     1     -10.671   5.348  72.727  1.00  0.00    -0.293 C  
ENDBRANCH  20  22
ENDBRANCH  19  20
ENDBRANCH  16  19
ENDBRANCH  15  16
ENDBRANCH  14  15
ENDBRANCH  11  14
BRANCH  12  25
HETATM   25  C   UNL     1     -10.787   6.664  67.929  1.00  0.00    -0.277 C  
HETATM   26  C   UNL     1     -11.402   6.274  69.247  1.00  0.00    -0.411 C  
HETATM   27  O   UNL     1     -11.017   5.999  66.918  1.00  0.00    -0.318 OA 
ENDBRANCH  12  25
ENDBRANCH   6   8
ENDBRANCH   3   4
ENDBRANCH   2   3
TORSDOF 10
ENDMDL
MODEL      137
REMARK 921   NORMALIZED FREE ENERGY PREDICTED BY IDOCK:   -3.88 KCAL/MOL
REMARK 922        TOTAL FREE ENERGY PREDICTED BY IDOCK:   -7.18 KCAL/MOL
REMARK 923 INTER-LIGAND FREE ENERGY PREDICTED BY IDOCK:   -6.66 KCAL/MOL
REMARK 924 INTRA-LIGAND FREE ENERGY PREDICTED BY IDOCK:   -0.52 KCAL/MOL
REMARK 927      BINDING AFFINITY PREDICTED BY RF-SCORE:    0.00 PKD
ROOT
HETATM    1  C   UNL     1     -11.930  14.451  64.234  1.00  0.00    -0.433 C  
HETATM    2  C   UNL     1     -12.775  14.207  65.471  1.00  0.00    -0.468 C  
ENDROOT
BRANCH   2   3
HETATM    3  C   UNL     1     -11.911  14.122  66.723  1.00  0.00    -0.475 C  
BRANCH   3   4
HETATM    4  C   UNL     1     -11.789  12.690  67.190  1.00  0.00    -0.330 C  
HETATM    5  O   UNL     1     -11.783  11.774  66.372  1.00  0.00    -0.511 OA 
HETATM    6  N   UNL     1     -11.636  12.569  68.564  1.00  0.00    -0.299 N  
HETATM    7  H   UNL     1     -11.618  13.432  69.109  1.00  0.00     0.000 HD 
BRANCH   6   8
HETATM    8  C   UNL     1     -11.504  11.357  69.275  1.00  0.00    -0.303 A  
HETATM    9  C   UNL     1     -12.016  11.170  70.555  1.00  0.00    -0.475 A  
HETATM   10  C   UNL     1     -11.940   9.926  71.183  1.00  0.00    -0.473 A  
HETATM   11  C   UNL     1     -11.340   8.831  70.554  1.00  0.00    -0.227 A  
HETATM   12  C   UNL     1     -10.748   9.026  69.296  1.00  0.00    -0.189 A  
HETATM   13  C   UNL     1     -10.839  10.289  68.666  1.00  0.00    -0.272 A  
BRANCH  11  14
HETATM   14  O   UNL     1     -11.344   7.569  71.092  1.00  0.00    -0.257 OA 
BRANCH  14  15
HETATM   15  C   UNL     1     -11.239   7.468  72.522  1.00  0.00    -0.331 C  
BRANCH  15  16
HETATM   16  C   UNL     1     -10.563   6.140  72.892  1.00  0.00    -0.232 C  
HETATM   17  H   UNL     1     -11.133   4.282  73.168  1.00  0.00     0.000 HD 
HETATM   18  O   UNL     1     -11.552   5.103  72.940  1.00  0.00    -0.297 OA 
BRANCH  16  19
HETATM   19  C   UNL     1      -9.463   5.734  71.889  1.00  0.00    -0.151 C  
BRANCH  19  20
HETATM   20  N   UNL     1      -8.254   6.551  72.033  1.00  0.00    -0.108 NA 
HETATM   21  H   UNL     1      -7.773   6.331  72.905  1.00  0.00     0.000 HD 
BRANCH  20  22
HETATM   22  C   UNL     1      -7.333   6.447  70.892  1.00  0.00    -0.083 C  
HETATM   23  C   UNL     1      -5.859   6.447  71.320  1.00  0.00    -0.028 C  
HETATM   24  C   UNL     1      -7.641   5.143  70.156  1.00  0.00    -0.070 C  
ENDBRANCH  20  22
ENDBRANCH  19  20
ENDBRANCH  16  19
ENDBRANCH  15  16
ENDBRANCH  14  15
ENDBRANCH  11  14
BRANCH  12  25
HETATM   25  C   UNL     1     -10.055   7.957  68.515  1.00  0.00    -0.197 C  
HETATM   26  C   UNL     1     -10.829   6.880  67.804  1.00  0.00    -0.312 C  
HETATM   27  O   UNL     1      -8.823   7.946  68.501  1.00  0.00    -0.134 OA 
ENDBRANCH  12  25
ENDBRANCH   6   8
ENDBRANCH   3   4
ENDBRANCH   2   3
TORSDOF 10
ENDMDL
MODEL      138
REMARK 921   NORMALIZED FREE ENERGY PREDICTED BY IDOCK:   -3.85 KCAL/MOL
REMARK 922        TOTAL FREE ENERGY PREDICTED BY IDOCK:   -7.13 KCAL/MOL
REMARK 923 INTER-LIGAND FREE ENERGY PREDICTED BY IDOCK:   -6.05 KCAL/MOL
REMARK 924 INTRA-LIGAND FREE ENERGY PREDICTED BY IDOCK:   -1.07 KCAL/MOL
REMARK 927      BINDING AFFINITY PREDICTED BY RF-SCORE:    0.00 PKD
ROOT
HETATM    1  C   UNL     1      -7.471   5.615  67.668  1.00  0.00    -0.077 C  
HETATM    2  C   UNL     1      -7.982   5.114  66.328  1.00  0.00    -0.104 C  
ENDROOT
BRANCH   2   3
HETATM    3  C   UNL     1      -9.251   5.846  65.912  1.00  0.00    -0.108 C  
BRANCH   3   4
HETATM    4  C   UNL     1      -8.979   7.321  65.725  1.00  0.00    -0.015 C  
HETATM    5  O   UNL     1      -8.202   7.698  64.852  1.00  0.00    -0.137 OA 
HETATM    6  N   UNL     1      -9.719   8.131  66.575  1.00  0.00    -0.279 N  
HETATM    7  H   UNL     1     -10.358   7.667  67.221  1.00  0.00     0.000 HD 
BRANCH   6   8
HETATM    8  C   UNL     1      -9.665   9.540  66.625  1.00  0.00    -0.211 A  
HETATM    9  C   UNL     1      -8.678  10.237  67.315  1.00  0.00    -0.125 A  
HETATM   10  C   UNL     1      -8.612  11.630  67.261  1.00  0.00    -0.154 A  
HETATM   11  C   UNL     1      -9.539  12.372  66.522  1.00  0.00    -0.240 A  
HETATM   12  C   UNL     1     -10.587  11.687  65.887  1.00  0.00    -0.318 A  
HETATM   13  C   UNL     1     -10.638  10.275  65.942  1.00  0.00    -0.083 A  
BRANCH  11  14
HETATM   14  O   UNL     1      -9.442  13.730  66.356  1.00  0.00    -0.278 OA 
BRANCH  14  15
HETATM   15  C   UNL     1      -9.600  14.546  67.529  1.00  0.00    -0.210 C  
BRANCH  15  16
HETATM   16  C   UNL     1      -8.380  15.465  67.681  1.00  0.00    -0.161 C  
HETATM   17  H   UNL     1      -6.483  15.247  68.138  1.00  0.00     0.000 HD 
HETATM   18  O   UNL     1      -7.238  14.678  68.045  1.00  0.00    -0.112 OA 
BRANCH  16  19
HETATM   19  C   UNL     1      -8.057  16.243  66.388  1.00  0.00    -0.299 C  
BRANCH  19  20
HETATM   20  N   UNL     1      -9.189  17.058  65.936  1.00  0.00    -0.530 NA 
HETATM   21  H   UNL     1     -10.069  16.563  66.080  1.00  0.00     0.000 HD 
BRANCH  20  22
HETATM   22  C   UNL     1      -9.238  18.392  66.551  1.00  0.00    -0.296 C  
HETATM   23  C   UNL     1      -8.091  19.300  66.086  1.00  0.00    -0.294 C  
HETATM   24  C   UNL     1     -10.571  19.037  66.170  1.00  0.00    -0.495 C  
ENDBRANCH  20  22
ENDBRANCH  19  20
ENDBRANCH  16  19
ENDBRANCH  15  16
ENDBRANCH  14  15
ENDBRANCH  11  14
BRANCH  12  25
HETATM   25  C   UNL     1     -11.659  12.347  65.082  1.00  0.00    -0.362 C  
HETATM   26  C   UNL     1     -11.511  12.552  63.598  1.00  0.00    -0.568 C  
HETATM   27  O   UNL     1     -12.658  12.766  65.667  1.00  0.00    -0.596 OA 
ENDBRANCH  12  25
ENDBRANCH   6   8
ENDBRANCH   3   4
ENDBRANCH   2   3
TORSDOF 10
ENDMDL
MODEL      139
REMARK 921   NORMALIZED FREE ENERGY PREDICTED BY IDOCK:   -3.84 KCAL/MOL
REMARK 922        TOTAL FREE ENERGY PREDICTED BY IDOCK:   -7.12 KCAL/MOL
REMARK 923 INTER-LIGAND FREE ENERGY PREDICTED BY IDOCK:   -6.41 KCAL/MOL
REMARK 924 INTRA-LIGAND FREE ENERGY PREDICTED BY IDOCK:   -0.71 KCAL/MOL
REMARK 927      BINDING AFFINITY PREDICTED BY RF-SCORE:    0.00 PKD
ROOT
HETATM    1  C   UNL     1     -13.223  15.352  72.227  1.00  0.00    -0.515 C  
HETATM    2  C   UNL     1     -12.799  14.086  71.504  1.00  0.00    -0.440 C  
ENDROOT
BRANCH   2   3
HETATM    3  C   UNL     1     -13.408  12.849  72.152  1.00  0.00    -0.615 C  
BRANCH   3   4
HETATM    4  C   UNL     1     -13.048  11.607  71.371  1.00  0.00    -0.243 C  
HETATM    5  O   UNL     1     -13.601  10.540  71.622  1.00  0.00    -0.225 OA 
HETATM    6  N   UNL     1     -12.117  11.836  70.366  1.00  0.00    -0.365 N  
HETATM    7  H   UNL     1     -11.780  12.792  70.253  1.00  0.00     0.000 HD 
BRANCH   6   8
HETATM    8  C   UNL     1     -11.597  10.862  69.487  1.00  0.00    -0.313 A  
HETATM    9  C   UNL     1     -11.436  11.082  68.123  1.00  0.00    -0.374 A  
HETATM   10  C   UNL     1     -10.833  10.123  67.308  1.00  0.00    -0.295 A  
HETATM   11  C   UNL     1     -10.381   8.907  67.831  1.00  0.00    -0.230 A  
HETATM   12  C   UNL     1     -10.610   8.639  69.190  1.00  0.00    -0.193 A  
HETATM   13  C   UNL     1     -11.214   9.623  70.007  1.00  0.00    -0.271 A  
BRANCH  11  14
HETATM   14  O   UNL     1      -9.687   7.988  67.085  1.00  0.00    -0.165 OA 
BRANCH  14  15
HETATM   15  C   UNL     1      -8.783   8.501  66.092  1.00  0.00    -0.152 C  
BRANCH  15  16
HETATM   16  C   UNL     1      -8.398   7.375  65.122  1.00  0.00    -0.079 C  
HETATM   17  H   UNL     1      -6.794   6.846  64.121  1.00  0.00     0.000 HD 
HETATM   18  O   UNL     1      -7.032   7.543  64.721  1.00  0.00    -0.052 OA 
BRANCH  16  19
HETATM   19  C   UNL     1      -8.567   5.972  65.741  1.00  0.00    -0.155 C  
BRANCH  19  20
HETATM   20  N   UNL     1      -9.792   5.309  65.284  1.00  0.00    -0.360 NA 
HETATM   21  H   UNL     1     -10.355   5.944  64.718  1.00  0.00     0.000 HD 
BRANCH  20  22
HETATM   22  C   UNL     1      -9.548   4.051  64.564  1.00  0.00    -0.173 C  
HETATM   23  C   UNL     1      -9.134   2.906  65.499  1.00  0.00    -0.147 C  
HETATM   24  C   UNL     1     -10.838   3.665  63.841  1.00  0.00    -0.205 C  
ENDBRANCH  20  22
ENDBRANCH  19  20
ENDBRANCH  16  19
ENDBRANCH  15  16
ENDBRANCH  14  15
ENDBRANCH  11  14
BRANCH  12  25
HETATM   25  C   UNL     1     -10.203   7.378  69.881  1.00  0.00    -0.211 C  
HETATM   26  C   UNL     1     -11.068   6.147  69.839  1.00  0.00    -0.481 C  
HETATM   27  O   UNL     1      -9.157   7.377  70.530  1.00  0.00    -0.155 OA 
ENDBRANCH  12  25
ENDBRANCH   6   8
ENDBRANCH   3   4
ENDBRANCH   2   3
TORSDOF 10
ENDMDL
MODEL      140
REMARK 921   NORMALIZED FREE ENERGY PREDICTED BY IDOCK:   -3.84 KCAL/MOL
REMARK 922        TOTAL FREE ENERGY PREDICTED BY IDOCK:   -7.11 KCAL/MOL
REMARK 923 INTER-LIGAND FREE ENERGY PREDICTED BY IDOCK:   -6.85 KCAL/MOL
REMARK 924 INTRA-LIGAND FREE ENERGY PREDICTED BY IDOCK:   -0.26 KCAL/MOL
REMARK 927      BINDING AFFINITY PREDICTED BY RF-SCORE:    0.00 PKD
ROOT
HETATM    1  C   UNL     1      -9.892  15.934  65.922  1.00  0.00    -0.383 C  
HETATM    2  C   UNL     1     -10.653  14.922  65.082  1.00  0.00    -0.450 C  
ENDROOT
BRANCH   2   3
HETATM    3  C   UNL     1     -11.971  14.538  65.740  1.00  0.00    -0.309 C  
BRANCH   3   4
HETATM    4  C   UNL     1     -11.940  13.098  66.198  1.00  0.00    -0.422 C  
HETATM    5  O   UNL     1     -12.467  12.224  65.516  1.00  0.00    -0.597 OA 
HETATM    6  N   UNL     1     -11.235  12.910  67.379  1.00  0.00    -0.277 N  
HETATM    7  H   UNL     1     -10.816  13.736  67.808  1.00  0.00     0.000 HD 
BRANCH   6   8
HETATM    8  C   UNL     1     -11.047  11.677  68.039  1.00  0.00    -0.242 A  
HETATM    9  C   UNL     1     -10.222  10.671  67.544  1.00  0.00    -0.236 A  
HETATM   10  C   UNL     1      -9.995   9.504  68.275  1.00  0.00    -0.184 A  
HETATM   11  C   UNL     1     -10.596   9.302  69.522  1.00  0.00    -0.224 A  
HETATM   12  C   UNL     1     -11.492  10.272  69.997  1.00  0.00    -0.367 A  
HETATM   13  C   UNL     1     -11.707  11.454  69.250  1.00  0.00    -0.404 A  
BRANCH  11  14
HETATM   14  O   UNL     1     -10.312   8.221  70.318  1.00  0.00    -0.201 OA 
BRANCH  14  15
HETATM   15  C   UNL     1      -9.514   7.174  69.739  1.00  0.00    -0.149 C  
BRANCH  15  16
HETATM   16  C   UNL     1     -10.345   5.887  69.652  1.00  0.00    -0.247 C  
HETATM   17  H   UNL     1     -12.251   5.430  69.532  1.00  0.00     0.000 HD 
HETATM   18  O   UNL     1     -11.736   6.226  69.586  1.00  0.00    -0.382 OA 
BRANCH  16  19
HETATM   19  C   UNL     1      -9.984   5.027  68.423  1.00  0.00    -0.136 C  
BRANCH  19  20
HETATM   20  N   UNL     1      -9.319   5.810  67.376  1.00  0.00    -0.111 NA 
HETATM   21  H   UNL     1      -8.522   6.318  67.758  1.00  0.00     0.000 HD 
BRANCH  20  22
HETATM   22  C   UNL     1      -8.916   5.012  66.209  1.00  0.00    -0.127 C  
HETATM   23  C   UNL     1      -7.640   5.543  65.542  1.00  0.00    -0.079 C  
HETATM   24  C   UNL     1      -8.675   3.578  66.681  1.00  0.00    -0.126 C  
ENDBRANCH  20  22
ENDBRANCH  19  20
ENDBRANCH  16  19
ENDBRANCH  15  16
ENDBRANCH  14  15
ENDBRANCH  11  14
BRANCH  12  25
HETATM   25  C   UNL     1     -12.221  10.182  71.298  1.00  0.00    -0.398 C  
HETATM   26  C   UNL     1     -13.236  11.218  71.701  1.00  0.00    -0.431 C  
HETATM   27  O   UNL     1     -11.940   9.259  72.064  1.00  0.00    -0.364 OA 
ENDBRANCH  12  25
ENDBRANCH   6   8
ENDBRANCH   3   4
ENDBRANCH   2   3
TORSDOF 10
ENDMDL
MODEL      141
REMARK 921   NORMALIZED FREE ENERGY PREDICTED BY IDOCK:   -3.83 KCAL/MOL
REMARK 922        TOTAL FREE ENERGY PREDICTED BY IDOCK:   -7.10 KCAL/MOL
REMARK 923 INTER-LIGAND FREE ENERGY PREDICTED BY IDOCK:   -5.85 KCAL/MOL
REMARK 924 INTRA-LIGAND FREE ENERGY PREDICTED BY IDOCK:   -1.25 KCAL/MOL
REMARK 927      BINDING AFFINITY PREDICTED BY RF-SCORE:    0.00 PKD
ROOT
HETATM    1  C   UNL     1      -9.408  15.276  67.878  1.00  0.00    -0.189 C  
HETATM    2  C   UNL     1      -9.265  15.023  66.387  1.00  0.00    -0.328 C  
ENDROOT
BRANCH   2   3
HETATM    3  C   UNL     1      -9.958  13.730  65.977  1.00  0.00    -0.319 C  
BRANCH   3   4
HETATM    4  C   UNL     1      -9.367  12.551  66.716  1.00  0.00    -0.230 C  
HETATM    5  O   UNL     1      -8.154  12.365  66.708  1.00  0.00    -0.111 OA 
HETATM    6  N   UNL     1     -10.312  11.800  67.402  1.00  0.00    -0.202 N  
HETATM    7  H   UNL     1     -11.283  12.109  67.346  1.00  0.00     0.000 HD 
BRANCH   6   8
HETATM    8  C   UNL     1     -10.047  10.646  68.170  1.00  0.00    -0.158 A  
HETATM    9  C   UNL     1      -9.835  10.683  69.545  1.00  0.00    -0.115 A  
HETATM   10  C   UNL     1      -9.667   9.507  70.277  1.00  0.00    -0.314 A  
HETATM   11  C   UNL     1      -9.695   8.255  69.655  1.00  0.00    -0.173 A  
HETATM   12  C   UNL     1      -9.828   8.207  68.258  1.00  0.00    -0.191 A  
HETATM   13  C   UNL     1     -10.007   9.405  67.528  1.00  0.00    -0.250 A  
BRANCH  11  14
HETATM   14  O   UNL     1      -9.644   7.076  70.353  1.00  0.00    -0.169 OA 
BRANCH  14  15
HETATM   15  C   UNL     1      -8.782   7.033  71.503  1.00  0.00    -0.121 C  
BRANCH  15  16
HETATM   16  C   UNL     1      -9.569   6.512  72.713  1.00  0.00    -0.149 C  
HETATM   17  H   UNL     1      -9.161   6.009  74.567  1.00  0.00     0.000 HD 
HETATM   18  O   UNL     1      -8.673   6.331  73.817  1.00  0.00    -0.123 OA 
BRANCH  16  19
HETATM   19  C   UNL     1     -10.702   7.469  73.142  1.00  0.00    -0.398 C  
BRANCH  19  20
HETATM   20  N   UNL     1     -12.027   6.951  72.787  1.00  0.00    -0.488 NA 
HETATM   21  H   UNL     1     -12.558   6.716  73.625  1.00  0.00     0.000 HD 
BRANCH  20  22
HETATM   22  C   UNL     1     -12.799   7.852  71.920  1.00  0.00    -0.308 C  
HETATM   23  C   UNL     1     -14.296   7.513  71.896  1.00  0.00    -0.520 C  
HETATM   24  C   UNL     1     -12.617   9.278  72.443  1.00  0.00    -0.348 C  
ENDBRANCH  20  22
ENDBRANCH  19  20
ENDBRANCH  16  19
ENDBRANCH  15  16
ENDBRANCH  14  15
ENDBRANCH  11  14
BRANCH  12  25
HETATM   25  C   UNL     1      -9.855   6.946  67.456  1.00  0.00    -0.138 C  
HETATM   26  C   UNL     1     -11.150   6.355  66.968  1.00  0.00    -0.405 C  
HETATM   27  O   UNL     1      -8.789   6.367  67.239  1.00  0.00    -0.110 OA 
ENDBRANCH  12  25
ENDBRANCH   6   8
ENDBRANCH   3   4
ENDBRANCH   2   3
TORSDOF 10
ENDMDL
MODEL      142
REMARK 921   NORMALIZED FREE ENERGY PREDICTED BY IDOCK:   -3.82 KCAL/MOL
REMARK 922        TOTAL FREE ENERGY PREDICTED BY IDOCK:   -7.08 KCAL/MOL
REMARK 923 INTER-LIGAND FREE ENERGY PREDICTED BY IDOCK:   -6.51 KCAL/MOL
REMARK 924 INTRA-LIGAND FREE ENERGY PREDICTED BY IDOCK:   -0.57 KCAL/MOL
REMARK 927      BINDING AFFINITY PREDICTED BY RF-SCORE:    0.00 PKD
ROOT
HETATM    1  C   UNL     1      -7.318   9.947  63.426  1.00  0.00    -0.134 C  
HETATM    2  C   UNL     1      -8.783   9.963  63.825  1.00  0.00    -0.226 C  
ENDROOT
BRANCH   2   3
HETATM    3  C   UNL     1      -9.626  10.711  62.801  1.00  0.00    -0.333 C  
BRANCH   3   4
HETATM    4  C   UNL     1     -10.514  11.728  63.481  1.00  0.00    -0.449 C  
HETATM    5  O   UNL     1     -11.667  11.896  63.094  1.00  0.00    -0.330 OA 
HETATM    6  N   UNL     1      -9.908  12.354  64.562  1.00  0.00    -0.503 N  
HETATM    7  H   UNL     1      -8.953  12.074  64.787  1.00  0.00     0.000 HD 
BRANCH   6   8
HETATM    8  C   UNL     1     -10.496  13.346  65.376  1.00  0.00    -0.302 A  
HETATM    9  C   UNL     1     -11.478  13.065  66.321  1.00  0.00    -0.379 A  
HETATM   10  C   UNL     1     -11.966  14.062  67.166  1.00  0.00    -0.465 A  
HETATM   11  C   UNL     1     -11.495  15.377  67.085  1.00  0.00    -0.133 A  
HETATM   12  C   UNL     1     -10.563  15.691  66.083  1.00  0.00    -0.325 A  
HETATM   13  C   UNL     1     -10.070  14.669  65.238  1.00  0.00    -0.393 A  
BRANCH  11  14
HETATM   14  O   UNL     1     -11.869  16.357  67.969  1.00  0.00     0.040 OA 
BRANCH  14  15
HETATM   15  C   UNL     1     -10.828  16.960  68.756  1.00  0.00    -0.289 C  
BRANCH  15  16
HETATM   16  C   UNL     1     -10.577  16.110  70.008  1.00  0.00    -0.269 C  
HETATM   17  H   UNL     1     -11.673  15.102  71.287  1.00  0.00     0.000 HD 
HETATM   18  O   UNL     1     -11.829  15.629  70.512  1.00  0.00    -0.314 OA 
BRANCH  16  19
HETATM   19  C   UNL     1      -9.654  14.904  69.733  1.00  0.00     0.139 C  
BRANCH  19  20
HETATM   20  N   UNL     1      -8.235  15.266  69.803  1.00  0.00    -0.342 NA 
HETATM   21  H   UNL     1      -7.945  15.398  70.772  1.00  0.00     0.000 HD 
BRANCH  20  22
HETATM   22  C   UNL     1      -7.349  14.312  69.122  1.00  0.00    -0.092 C  
HETATM   23  C   UNL     1      -8.120  13.285  68.281  1.00  0.00    -0.156 C  
HETATM   24  C   UNL     1      -6.416  15.108  68.207  1.00  0.00    -0.117 C  
ENDBRANCH  20  22
ENDBRANCH  19  20
ENDBRANCH  16  19
ENDBRANCH  15  16
ENDBRANCH  14  15
ENDBRANCH  11  14
BRANCH  12  25
HETATM   25  C   UNL     1      -9.987  17.052  65.864  1.00  0.00    -0.217 C  
HETATM   26  C   UNL     1      -8.610  17.409  66.355  1.00  0.00    -0.282 C  
HETATM   27  O   UNL     1     -10.686  17.901  65.309  1.00  0.00    -0.640 OA 
ENDBRANCH  12  25
ENDBRANCH   6   8
ENDBRANCH   3   4
ENDBRANCH   2   3
TORSDOF 10
ENDMDL
MODEL      143
REMARK 921   NORMALIZED FREE ENERGY PREDICTED BY IDOCK:   -3.80 KCAL/MOL
REMARK 922        TOTAL FREE ENERGY PREDICTED BY IDOCK:   -7.05 KCAL/MOL
REMARK 923 INTER-LIGAND FREE ENERGY PREDICTED BY IDOCK:   -5.67 KCAL/MOL
REMARK 924 INTRA-LIGAND FREE ENERGY PREDICTED BY IDOCK:   -1.38 KCAL/MOL
REMARK 927      BINDING AFFINITY PREDICTED BY RF-SCORE:    0.00 PKD
ROOT
HETATM    1  C   UNL     1      -8.420  16.898  66.674  1.00  0.00    -0.285 C  
HETATM    2  C   UNL     1      -9.547  16.232  65.904  1.00  0.00    -0.336 C  
ENDROOT
BRANCH   2   3
HETATM    3  C   UNL     1     -10.784  16.059  66.775  1.00  0.00    -0.259 C  
BRANCH   3   4
HETATM    4  C   UNL     1     -11.231  14.615  66.786  1.00  0.00    -0.344 C  
HETATM    5  O   UNL     1     -12.222  14.272  66.147  1.00  0.00    -0.431 OA 
HETATM    6  N   UNL     1     -10.393  13.784  67.516  1.00  0.00    -0.240 N  
HETATM    7  H   UNL     1      -9.580  14.213  67.959  1.00  0.00     0.000 HD 
BRANCH   6   8
HETATM    8  C   UNL     1     -10.567  12.395  67.701  1.00  0.00    -0.216 A  
HETATM    9  C   UNL     1     -10.258  11.456  66.722  1.00  0.00    -0.258 A  
HETATM   10  C   UNL     1     -10.360  10.088  66.982  1.00  0.00    -0.305 A  
HETATM   11  C   UNL     1     -10.787   9.617  68.228  1.00  0.00    -0.182 A  
HETATM   12  C   UNL     1     -11.179  10.554  69.197  1.00  0.00    -0.314 A  
HETATM   13  C   UNL     1     -11.062  11.937  68.925  1.00  0.00    -0.299 A  
BRANCH  11  14
HETATM   14  O   UNL     1     -10.796   8.285  68.556  1.00  0.00    -0.069 OA 
BRANCH  14  15
HETATM   15  C   UNL     1     -10.608   7.346  67.483  1.00  0.00    -0.269 C  
BRANCH  15  16
HETATM   16  C   UNL     1     -10.369   5.946  68.066  1.00  0.00    -0.208 C  
HETATM   17  H   UNL     1     -10.333   4.107  67.380  1.00  0.00     0.000 HD 
HETATM   18  O   UNL     1     -10.482   4.973  67.019  1.00  0.00    -0.211 OA 
BRANCH  16  19
HETATM   19  C   UNL     1      -8.983   5.807  68.729  1.00  0.00    -0.116 C  
BRANCH  19  20
HETATM   20  N   UNL     1      -8.039   6.824  68.257  1.00  0.00    -0.114 NA 
HETATM   21  H   UNL     1      -8.531   7.577  67.777  1.00  0.00     0.000 HD 
BRANCH  20  22
HETATM   22  C   UNL     1      -7.172   7.361  69.315  1.00  0.00    -0.080 C  
HETATM   23  C   UNL     1      -7.511   8.814  69.676  1.00  0.00    -0.071 C  
HETATM   24  C   UNL     1      -7.346   6.484  70.555  1.00  0.00    -0.082 C  
ENDBRANCH  20  22
ENDBRANCH  19  20
ENDBRANCH  16  19
ENDBRANCH  15  16
ENDBRANCH  14  15
ENDBRANCH  11  14
BRANCH  12  25
HETATM   25  C   UNL     1     -11.674  10.198  70.562  1.00  0.00    -0.322 C  
HETATM   26  C   UNL     1     -13.140  10.243  70.900  1.00  0.00    -0.423 C  
HETATM   27  O   UNL     1     -10.848   9.907  71.427  1.00  0.00    -0.238 OA 
ENDBRANCH  12  25
ENDBRANCH   6   8
ENDBRANCH   3   4
ENDBRANCH   2   3
TORSDOF 10
ENDMDL
MODEL      144
REMARK 921   NORMALIZED FREE ENERGY PREDICTED BY IDOCK:   -3.79 KCAL/MOL
REMARK 922        TOTAL FREE ENERGY PREDICTED BY IDOCK:   -7.03 KCAL/MOL
REMARK 923 INTER-LIGAND FREE ENERGY PREDICTED BY IDOCK:   -5.91 KCAL/MOL
REMARK 924 INTRA-LIGAND FREE ENERGY PREDICTED BY IDOCK:   -1.12 KCAL/MOL
REMARK 927      BINDING AFFINITY PREDICTED BY RF-SCORE:    0.00 PKD
ROOT
HETATM    1  C   UNL     1     -13.391  11.471  63.632  1.00  0.00     0.692 C  
HETATM    2  C   UNL     1     -11.886  11.572  63.809  1.00  0.00    -0.237 C  
ENDROOT
BRANCH   2   3
HETATM    3  C   UNL     1     -11.345  12.863  63.208  1.00  0.00    -0.146 C  
BRANCH   3   4
HETATM    4  C   UNL     1     -11.499  14.009  64.180  1.00  0.00    -0.209 C  
HETATM    5  O   UNL     1     -12.616  14.437  64.456  1.00  0.00    -0.651 OA 
HETATM    6  N   UNL     1     -10.295  14.439  64.721  1.00  0.00    -0.529 N  
HETATM    7  H   UNL     1      -9.449  13.952  64.422  1.00  0.00     0.000 HD 
BRANCH   6   8
HETATM    8  C   UNL     1     -10.137  15.492  65.648  1.00  0.00    -0.376 A  
HETATM    9  C   UNL     1     -10.447  16.815  65.352  1.00  0.00    -0.212 A  
HETATM   10  C   UNL     1     -10.361  17.808  66.329  1.00  0.00    -0.358 A  
HETATM   11  C   UNL     1      -9.952  17.510  67.632  1.00  0.00    -0.309 A  
HETATM   12  C   UNL     1      -9.559  16.194  67.924  1.00  0.00    -0.223 A  
HETATM   13  C   UNL     1      -9.659  15.195  66.927  1.00  0.00    -0.252 A  
BRANCH  11  14
HETATM   14  O   UNL     1      -9.960  18.436  68.645  1.00  0.00    -0.361 OA 
BRANCH  14  15
HETATM   15  C   UNL     1      -9.743  19.808  68.278  1.00  0.00    -0.395 C  
BRANCH  15  16
HETATM   16  C   UNL     1      -8.306  20.212  68.636  1.00  0.00     0.145 C  
HETATM   17  H   UNL     1      -6.704  19.308  69.321  1.00  0.00     0.000 HD 
HETATM   18  O   UNL     1      -7.593  19.058  69.100  1.00  0.00    -0.302 OA 
BRANCH  16  19
HETATM   19  C   UNL     1      -7.544  20.822  67.441  1.00  0.00    -0.300 C  
BRANCH  19  20
HETATM   20  N   UNL     1      -7.706  20.028  66.219  1.00  0.00    -0.342 NA 
HETATM   21  H   UNL     1      -8.010  20.619  65.445  1.00  0.00     0.000 HD 
BRANCH  20  22
HETATM   22  C   UNL     1      -6.507  19.263  65.849  1.00  0.00    -0.221 C  
HETATM   23  C   UNL     1      -6.713  17.747  65.969  1.00  0.00    -0.316 C  
HETATM   24  C   UNL     1      -6.158  19.608  64.400  1.00  0.00    -0.274 C  
ENDBRANCH  20  22
ENDBRANCH  19  20
ENDBRANCH  16  19
ENDBRANCH  15  16
ENDBRANCH  14  15
ENDBRANCH  11  14
BRANCH  12  25
HETATM   25  C   UNL     1      -9.082  15.734  69.263  1.00  0.00    -0.263 C  
HETATM   26  C   UNL     1      -7.618  15.515  69.540  1.00  0.00    -0.200 C  
HETATM   27  O   UNL     1      -9.920  15.490  70.132  1.00  0.00    -0.275 OA 
ENDBRANCH  12  25
ENDBRANCH   6   8
ENDBRANCH   3   4
ENDBRANCH   2   3
TORSDOF 10
ENDMDL
MODEL      145
REMARK 921   NORMALIZED FREE ENERGY PREDICTED BY IDOCK:   -3.79 KCAL/MOL
REMARK 922        TOTAL FREE ENERGY PREDICTED BY IDOCK:   -7.03 KCAL/MOL
REMARK 923 INTER-LIGAND FREE ENERGY PREDICTED BY IDOCK:   -5.85 KCAL/MOL
REMARK 924 INTRA-LIGAND FREE ENERGY PREDICTED BY IDOCK:   -1.18 KCAL/MOL
REMARK 927      BINDING AFFINITY PREDICTED BY RF-SCORE:    0.00 PKD
ROOT
HETATM    1  C   UNL     1      -9.194  10.697  62.495  1.00  0.00    -0.323 C  
HETATM    2  C   UNL     1      -7.936  10.275  63.235  1.00  0.00    -0.148 C  
ENDROOT
BRANCH   2   3
HETATM    3  C   UNL     1      -7.945   8.782  63.532  1.00  0.00    -0.158 C  
BRANCH   3   4
HETATM    4  C   UNL     1      -8.474   8.518  64.924  1.00  0.00    -0.147 C  
HETATM    5  O   UNL     1      -8.631   7.365  65.314  1.00  0.00    -0.104 OA 
HETATM    6  N   UNL     1      -8.685   9.675  65.662  1.00  0.00    -0.134 N  
HETATM    7  H   UNL     1      -8.466  10.563  65.210  1.00  0.00     0.000 HD 
BRANCH   6   8
HETATM    8  C   UNL     1      -9.176   9.730  66.984  1.00  0.00    -0.142 A  
HETATM    9  C   UNL     1     -10.456  10.175  67.299  1.00  0.00    -0.313 A  
HETATM   10  C   UNL     1     -10.931  10.127  68.610  1.00  0.00    -0.273 A  
HETATM   11  C   UNL     1     -10.134   9.641  69.652  1.00  0.00    -0.224 A  
HETATM   12  C   UNL     1      -8.813   9.264  69.362  1.00  0.00    -0.149 A  
HETATM   13  C   UNL     1      -8.347   9.309  68.028  1.00  0.00    -0.120 A  
BRANCH  11  14
HETATM   14  O   UNL     1     -10.602   9.476  70.931  1.00  0.00    -0.285 OA 
BRANCH  14  15
HETATM   15  C   UNL     1     -11.943   9.919  71.199  1.00  0.00    -0.384 C  
BRANCH  15  16
HETATM   16  C   UNL     1     -12.618   8.943  72.174  1.00  0.00    -0.399 C  
HETATM   17  H   UNL     1     -14.109   7.669  72.106  1.00  0.00     0.000 HD 
HETATM   18  O   UNL     1     -13.692   8.273  71.503  1.00  0.00    -0.345 OA 
BRANCH  16  19
HETATM   19  C   UNL     1     -11.640   7.886  72.729  1.00  0.00    -0.329 C  
BRANCH  19  20
HETATM   20  N   UNL     1     -12.079   6.518  72.435  1.00  0.00    -0.521 NA 
HETATM   21  H   UNL     1     -12.989   6.523  71.976  1.00  0.00     0.000 HD 
BRANCH  20  22
HETATM   22  C   UNL     1     -11.107   5.743  71.652  1.00  0.00    -0.226 C  
HETATM   23  C   UNL     1     -11.047   6.182  70.182  1.00  0.00    -0.448 C  
HETATM   24  C   UNL     1      -9.730   5.935  72.288  1.00  0.00    -0.178 C  
ENDBRANCH  20  22
ENDBRANCH  19  20
ENDBRANCH  16  19
ENDBRANCH  15  16
ENDBRANCH  14  15
ENDBRANCH  11  14
BRANCH  12  25
HETATM   25  C   UNL     1      -7.843   8.747  70.374  1.00  0.00    -0.098 C  
HETATM   26  C   UNL     1      -7.174   7.409  70.206  1.00  0.00    -0.066 C  
HETATM   27  O   UNL     1      -7.632   9.422  71.382  1.00  0.00    -0.340 OA 
ENDBRANCH  12  25
ENDBRANCH   6   8
ENDBRANCH   3   4
ENDBRANCH   2   3
TORSDOF 10
ENDMDL
MODEL      146
REMARK 921   NORMALIZED FREE ENERGY PREDICTED BY IDOCK:   -3.78 KCAL/MOL
REMARK 922        TOTAL FREE ENERGY PREDICTED BY IDOCK:   -7.03 KCAL/MOL
REMARK 923 INTER-LIGAND FREE ENERGY PREDICTED BY IDOCK:   -5.79 KCAL/MOL
REMARK 924 INTRA-LIGAND FREE ENERGY PREDICTED BY IDOCK:   -1.24 KCAL/MOL
REMARK 927      BINDING AFFINITY PREDICTED BY RF-SCORE:    0.00 PKD
ROOT
HETATM    1  C   UNL     1     -13.579  15.375  71.649  1.00  0.00    -0.603 C  
HETATM    2  C   UNL     1     -12.218  14.946  71.129  1.00  0.00    -0.380 C  
ENDROOT
BRANCH   2   3
HETATM    3  C   UNL     1     -11.998  15.421  69.699  1.00  0.00    -0.366 C  
BRANCH   3   4
HETATM    4  C   UNL     1     -11.724  14.250  68.784  1.00  0.00    -0.343 C  
HETATM    5  O   UNL     1     -12.128  14.267  67.625  1.00  0.00    -0.376 OA 
HETATM    6  N   UNL     1     -10.958  13.255  69.376  1.00  0.00    -0.447 N  
HETATM    7  H   UNL     1     -10.661  13.407  70.340  1.00  0.00     0.000 HD 
BRANCH   6   8
HETATM    8  C   UNL     1     -10.555  12.050  68.760  1.00  0.00    -0.209 A  
HETATM    9  C   UNL     1     -11.457  11.122  68.249  1.00  0.00    -0.373 A  
HETATM   10  C   UNL     1     -11.012   9.988  67.568  1.00  0.00    -0.276 A  
HETATM   11  C   UNL     1      -9.647   9.741  67.387  1.00  0.00    -0.155 A  
HETATM   12  C   UNL     1      -8.725  10.627  67.967  1.00  0.00    -0.126 A  
HETATM   13  C   UNL     1      -9.189  11.777  68.647  1.00  0.00    -0.088 A  
BRANCH  11  14
HETATM   14  O   UNL     1      -9.174   8.698  66.631  1.00  0.00    -0.158 OA 
BRANCH  14  15
HETATM   15  C   UNL     1      -8.610   7.581  67.338  1.00  0.00    -0.118 C  
BRANCH  15  16
HETATM   16  C   UNL     1      -9.741   6.690  67.870  1.00  0.00    -0.122 C  
HETATM   17  H   UNL     1     -10.335   4.837  67.608  1.00  0.00     0.000 HD 
HETATM   18  O   UNL     1      -9.635   5.388  67.278  1.00  0.00    -0.122 OA 
BRANCH  16  19
HETATM   19  C   UNL     1      -9.710   6.542  69.406  1.00  0.00    -0.146 C  
BRANCH  19  20
HETATM   20  N   UNL     1     -10.888   7.138  70.043  1.00  0.00    -0.248 NA 
HETATM   21  H   UNL     1     -11.557   6.416  70.308  1.00  0.00     0.000 HD 
BRANCH  20  22
HETATM   22  C   UNL     1     -10.567   7.996  71.192  1.00  0.00    -0.203 C  
HETATM   23  C   UNL     1      -9.249   8.761  71.009  1.00  0.00    -0.278 C  
HETATM   24  C   UNL     1     -11.708   9.000  71.363  1.00  0.00    -0.392 C  
ENDBRANCH  20  22
ENDBRANCH  19  20
ENDBRANCH  16  19
ENDBRANCH  15  16
ENDBRANCH  14  15
ENDBRANCH  11  14
BRANCH  12  25
HETATM   25  C   UNL     1      -7.241  10.479  67.874  1.00  0.00    -0.084 C  
HETATM   26  C   UNL     1      -6.474  11.004  66.689  1.00  0.00    -0.129 C  
HETATM   27  O   UNL     1      -6.655   9.874  68.772  1.00  0.00    -0.046 OA 
ENDBRANCH  12  25
ENDBRANCH   6   8
ENDBRANCH   3   4
ENDBRANCH   2   3
TORSDOF 10
ENDMDL
MODEL      147
REMARK 921   NORMALIZED FREE ENERGY PREDICTED BY IDOCK:   -3.78 KCAL/MOL
REMARK 922        TOTAL FREE ENERGY PREDICTED BY IDOCK:   -7.02 KCAL/MOL
REMARK 923 INTER-LIGAND FREE ENERGY PREDICTED BY IDOCK:   -5.79 KCAL/MOL
REMARK 924 INTRA-LIGAND FREE ENERGY PREDICTED BY IDOCK:   -1.22 KCAL/MOL
REMARK 927      BINDING AFFINITY PREDICTED BY RF-SCORE:    0.00 PKD
ROOT
HETATM    1  C   UNL     1      -8.029  20.032  67.493  1.00  0.00    -0.342 C  
HETATM    2  C   UNL     1      -9.514  20.045  67.808  1.00  0.00    -0.486 C  
ENDROOT
BRANCH   2   3
HETATM    3  C   UNL     1     -10.306  19.260  66.771  1.00  0.00    -0.527 C  
BRANCH   3   4
HETATM    4  C   UNL     1     -10.440  17.813  67.186  1.00  0.00    -0.335 C  
HETATM    5  O   UNL     1     -11.119  17.513  68.164  1.00  0.00    -0.233 OA 
HETATM    6  N   UNL     1      -9.786  16.932  66.335  1.00  0.00    -0.270 N  
HETATM    7  H   UNL     1      -9.296  17.335  65.535  1.00  0.00     0.000 HD 
BRANCH   6   8
HETATM    8  C   UNL     1      -9.738  15.529  66.480  1.00  0.00    -0.270 A  
HETATM    9  C   UNL     1     -10.761  14.688  66.053  1.00  0.00    -0.313 A  
HETATM   10  C   UNL     1     -10.630  13.301  66.134  1.00  0.00    -0.293 A  
HETATM   11  C   UNL     1      -9.475  12.711  66.656  1.00  0.00    -0.244 A  
HETATM   12  C   UNL     1      -8.469  13.548  67.164  1.00  0.00    -0.177 A  
HETATM   13  C   UNL     1      -8.609  14.952  67.068  1.00  0.00    -0.265 A  
BRANCH  11  14
HETATM   14  O   UNL     1      -9.265  11.355  66.650  1.00  0.00    -0.172 OA 
BRANCH  14  15
HETATM   15  C   UNL     1      -8.961  10.745  65.385  1.00  0.00    -0.194 C  
BRANCH  15  16
HETATM   16  C   UNL     1      -7.936   9.621  65.593  1.00  0.00    -0.113 C  
HETATM   17  H   UNL     1      -6.787   8.997  67.057  1.00  0.00     0.000 HD 
HETATM   18  O   UNL     1      -7.420   9.693  66.928  1.00  0.00    -0.091 OA 
BRANCH  16  19
HETATM   19  C   UNL     1      -8.538   8.218  65.365  1.00  0.00    -0.151 C  
BRANCH  19  20
HETATM   20  N   UNL     1      -9.860   8.076  65.984  1.00  0.00    -0.449 NA 
HETATM   21  H   UNL     1     -10.543   7.749  65.302  1.00  0.00     0.000 HD 
BRANCH  20  22
HETATM   22  C   UNL     1      -9.863   7.217  67.176  1.00  0.00    -0.185 C  
HETATM   23  C   UNL     1     -11.215   6.526  67.403  1.00  0.00    -0.301 C  
HETATM   24  C   UNL     1      -8.782   6.152  66.992  1.00  0.00    -0.107 C  
ENDBRANCH  20  22
ENDBRANCH  19  20
ENDBRANCH  16  19
ENDBRANCH  15  16
ENDBRANCH  14  15
ENDBRANCH  11  14
BRANCH  12  25
HETATM   25  C   UNL     1      -7.192  13.060  67.768  1.00  0.00    -0.139 C  
HETATM   26  C   UNL     1      -7.056  12.853  69.252  1.00  0.00     0.104 C  
HETATM   27  O   UNL     1      -6.227  12.872  67.026  1.00  0.00    -0.242 OA 
ENDBRANCH  12  25
ENDBRANCH   6   8
ENDBRANCH   3   4
ENDBRANCH   2   3
TORSDOF 10
ENDMDL
MODEL      148
REMARK 921   NORMALIZED FREE ENERGY PREDICTED BY IDOCK:   -3.77 KCAL/MOL
REMARK 922        TOTAL FREE ENERGY PREDICTED BY IDOCK:   -7.00 KCAL/MOL
REMARK 923 INTER-LIGAND FREE ENERGY PREDICTED BY IDOCK:   -6.27 KCAL/MOL
REMARK 924 INTRA-LIGAND FREE ENERGY PREDICTED BY IDOCK:   -0.73 KCAL/MOL
REMARK 927      BINDING AFFINITY PREDICTED BY RF-SCORE:    0.00 PKD
ROOT
HETATM    1  C   UNL     1      -8.621   3.271  65.529  1.00  0.00    -0.114 C  
HETATM    2  C   UNL     1      -8.134   4.559  66.170  1.00  0.00    -0.103 C  
ENDROOT
BRANCH   2   3
HETATM    3  C   UNL     1      -8.580   5.776  65.371  1.00  0.00    -0.143 C  
BRANCH   3   4
HETATM    4  C   UNL     1      -8.508   7.026  66.219  1.00  0.00    -0.134 C  
HETATM    5  O   UNL     1      -7.684   7.108  67.125  1.00  0.00    -0.104 OA 
HETATM    6  N   UNL     1      -9.398   8.014  65.821  1.00  0.00    -0.413 N  
HETATM    7  H   UNL     1      -9.993   7.809  65.018  1.00  0.00     0.000 HD 
BRANCH   6   8
HETATM    8  C   UNL     1      -9.553   9.277  66.431  1.00  0.00    -0.238 A  
HETATM    9  C   UNL     1      -8.931  10.428  65.957  1.00  0.00    -0.178 A  
HETATM   10  C   UNL     1      -9.185  11.672  66.537  1.00  0.00    -0.205 A  
HETATM   11  C   UNL     1     -10.061  11.802  67.620  1.00  0.00    -0.193 A  
HETATM   12  C   UNL     1     -10.632  10.639  68.159  1.00  0.00    -0.237 A  
HETATM   13  C   UNL     1     -10.374   9.385  67.556  1.00  0.00    -0.314 A  
BRANCH  11  14
HETATM   14  O   UNL     1     -10.419  13.017  68.145  1.00  0.00    -0.231 OA 
BRANCH  14  15
HETATM   15  C   UNL     1     -11.358  13.804  67.393  1.00  0.00    -0.324 C  
BRANCH  15  16
HETATM   16  C   UNL     1     -11.616  15.129  68.124  1.00  0.00    -0.341 C  
HETATM   17  H   UNL     1     -12.142  15.676  69.935  1.00  0.00     0.000 HD 
HETATM   18  O   UNL     1     -11.983  14.856  69.482  1.00  0.00    -0.298 OA 
BRANCH  16  19
HETATM   19  C   UNL     1     -10.385  16.060  68.118  1.00  0.00    -0.260 C  
BRANCH  19  20
HETATM   20  N   UNL     1     -10.763  17.476  68.053  1.00  0.00    -0.381 NA 
HETATM   21  H   UNL     1     -10.899  17.855  68.990  1.00  0.00     0.000 HD 
BRANCH  20  22
HETATM   22  C   UNL     1      -9.818  18.304  67.291  1.00  0.00    -0.321 C  
HETATM   23  C   UNL     1      -8.692  17.480  66.650  1.00  0.00    -0.288 C  
HETATM   24  C   UNL     1     -10.602  19.020  66.191  1.00  0.00    -0.495 C  
ENDBRANCH  20  22
ENDBRANCH  19  20
ENDBRANCH  16  19
ENDBRANCH  15  16
ENDBRANCH  14  15
ENDBRANCH  11  14
BRANCH  12  25
HETATM   25  C   UNL     1     -11.568  10.621  69.324  1.00  0.00    -0.275 C  
HETATM   26  C   UNL     1     -11.149  10.063  70.658  1.00  0.00    -0.408 C  
HETATM   27  O   UNL     1     -12.716  11.034  69.159  1.00  0.00    -0.277 OA 
ENDBRANCH  12  25
ENDBRANCH   6   8
ENDBRANCH   3   4
ENDBRANCH   2   3
TORSDOF 10
ENDMDL
MODEL      149
REMARK 921   NORMALIZED FREE ENERGY PREDICTED BY IDOCK:   -3.74 KCAL/MOL
REMARK 922        TOTAL FREE ENERGY PREDICTED BY IDOCK:   -6.97 KCAL/MOL
REMARK 923 INTER-LIGAND FREE ENERGY PREDICTED BY IDOCK:   -6.02 KCAL/MOL
REMARK 924 INTRA-LIGAND FREE ENERGY PREDICTED BY IDOCK:   -0.95 KCAL/MOL
REMARK 927      BINDING AFFINITY PREDICTED BY RF-SCORE:    0.00 PKD
ROOT
HETATM    1  C   UNL     1      -9.313   2.017  69.940  1.00  0.00    -0.164 C  
HETATM    2  C   UNL     1      -8.918   3.466  70.165  1.00  0.00    -0.172 C  
ENDROOT
BRANCH   2   3
HETATM    3  C   UNL     1      -9.842   4.141  71.171  1.00  0.00    -0.244 C  
BRANCH   3   4
HETATM    4  C   UNL     1     -10.170   5.549  70.732  1.00  0.00    -0.235 C  
HETATM    5  O   UNL     1     -11.291   6.009  70.928  1.00  0.00    -0.300 OA 
HETATM    6  N   UNL     1      -9.090   6.218  70.172  1.00  0.00    -0.152 N  
HETATM    7  H   UNL     1      -8.206   5.712  70.116  1.00  0.00     0.000 HD 
BRANCH   6   8
HETATM    8  C   UNL     1      -9.109   7.538  69.673  1.00  0.00    -0.140 A  
HETATM    9  C   UNL     1      -9.375   8.646  70.471  1.00  0.00    -0.202 A  
HETATM   10  C   UNL     1      -9.293   9.940  69.954  1.00  0.00    -0.250 A  
HETATM   11  C   UNL     1      -8.952  10.166  68.616  1.00  0.00    -0.136 A  
HETATM   12  C   UNL     1      -8.759   9.055  67.780  1.00  0.00    -0.125 A  
HETATM   13  C   UNL     1      -8.837   7.749  68.319  1.00  0.00    -0.129 A  
BRANCH  11  14
HETATM   14  O   UNL     1      -8.754  11.422  68.101  1.00  0.00    -0.141 OA 
BRANCH  14  15
HETATM   15  C   UNL     1      -9.885  12.309  68.088  1.00  0.00    -0.212 C  
BRANCH  15  16
HETATM   16  C   UNL     1     -10.935  11.784  67.099  1.00  0.00    -0.276 C  
HETATM   17  H   UNL     1     -12.816  11.227  67.184  1.00  0.00     0.000 HD 
HETATM   18  O   UNL     1     -12.166  11.551  67.796  1.00  0.00    -0.560 OA 
BRANCH  16  19
HETATM   19  C   UNL     1     -11.198  12.762  65.936  1.00  0.00    -0.300 C  
BRANCH  19  20
HETATM   20  N   UNL     1     -10.090  12.792  64.976  1.00  0.00    -0.429 NA 
HETATM   21  H   UNL     1      -9.341  12.167  65.272  1.00  0.00     0.000 HD 
BRANCH  20  22
HETATM   22  C   UNL     1     -10.497  12.498  63.595  1.00  0.00    -0.384 C  
HETATM   23  C   UNL     1      -9.943  11.159  63.088  1.00  0.00    -0.393 C  
HETATM   24  C   UNL     1     -12.025  12.454  63.555  1.00  0.00    -0.627 C  
ENDBRANCH  20  22
ENDBRANCH  19  20
ENDBRANCH  16  19
ENDBRANCH  15  16
ENDBRANCH  14  15
ENDBRANCH  11  14
BRANCH  12  25
HETATM   25  C   UNL     1      -8.411   9.142  66.329  1.00  0.00    -0.124 C  
HETATM   26  C   UNL     1      -7.010   9.452  65.877  1.00  0.00    -0.090 C  
HETATM   27  O   UNL     1      -9.312   8.998  65.501  1.00  0.00    -0.230 OA 
ENDBRANCH  12  25
ENDBRANCH   6   8
ENDBRANCH   3   4
ENDBRANCH   2   3
TORSDOF 10
ENDMDL
MODEL      150
REMARK 921   NORMALIZED FREE ENERGY PREDICTED BY IDOCK:   -3.74 KCAL/MOL
REMARK 922        TOTAL FREE ENERGY PREDICTED BY IDOCK:   -6.95 KCAL/MOL
REMARK 923 INTER-LIGAND FREE ENERGY PREDICTED BY IDOCK:   -7.30 KCAL/MOL
REMARK 924 INTRA-LIGAND FREE ENERGY PREDICTED BY IDOCK:    0.34 KCAL/MOL
REMARK 927      BINDING AFFINITY PREDICTED BY RF-SCORE:    0.00 PKD
ROOT
HETATM    1  C   UNL     1     -12.632  16.290  73.786  1.00  0.00    -0.649 C  
HETATM    2  C   UNL     1     -13.019  14.927  73.239  1.00  0.00    -0.635 C  
ENDROOT
BRANCH   2   3
HETATM    3  C   UNL     1     -13.520  15.030  71.804  1.00  0.00    -0.504 C  
BRANCH   3   4
HETATM    4  C   UNL     1     -12.953  13.912  70.960  1.00  0.00    -0.287 C  
HETATM    5  O   UNL     1     -12.953  12.759  71.385  1.00  0.00    -0.360 OA 
HETATM    6  N   UNL     1     -12.519  14.330  69.710  1.00  0.00    -0.480 N  
HETATM    7  H   UNL     1     -12.626  15.320  69.487  1.00  0.00     0.000 HD 
BRANCH   6   8
HETATM    8  C   UNL     1     -11.944  13.505  68.719  1.00  0.00    -0.339 A  
HETATM    9  C   UNL     1     -11.177  12.383  69.019  1.00  0.00    -0.320 A  
HETATM   10  C   UNL     1     -10.704  11.546  68.008  1.00  0.00    -0.241 A  
HETATM   11  C   UNL     1     -10.974  11.812  66.661  1.00  0.00    -0.294 A  
HETATM   12  C   UNL     1     -11.678  12.983  66.340  1.00  0.00    -0.444 A  
HETATM   13  C   UNL     1     -12.159  13.819  67.375  1.00  0.00    -0.378 A  
BRANCH  11  14
HETATM   14  O   UNL     1     -10.621  10.956  65.649  1.00  0.00    -0.236 OA 
BRANCH  14  15
HETATM   15  C   UNL     1      -9.291  10.410  65.688  1.00  0.00    -0.198 C  
BRANCH  15  16
HETATM   16  C   UNL     1      -9.196   9.376  66.818  1.00  0.00    -0.143 C  
HETATM   17  H   UNL     1     -10.278   7.870  67.463  1.00  0.00     0.000 HD 
HETATM   18  O   UNL     1     -10.337   8.511  66.764  1.00  0.00    -0.295 OA 
BRANCH  16  19
HETATM   19  C   UNL     1      -7.916   8.519  66.733  1.00  0.00    -0.094 C  
BRANCH  19  20
HETATM   20  N   UNL     1      -6.771   9.168  67.378  1.00  0.00    -0.068 NA 
HETATM   21  H   UNL     1      -6.426   8.601  68.153  1.00  0.00     0.000 HD 
BRANCH  20  22
HETATM   22  C   UNL     1      -5.680   9.498  66.451  1.00  0.00    -0.053 C  
HETATM   23  C   UNL     1      -5.896   8.909  65.050  1.00  0.00    -0.059 C  
HETATM   24  C   UNL     1      -5.597  11.022  66.346  1.00  0.00    -0.127 C  
ENDBRANCH  20  22
ENDBRANCH  19  20
ENDBRANCH  16  19
ENDBRANCH  15  16
ENDBRANCH  14  15
ENDBRANCH  11  14
BRANCH  12  25
HETATM   25  C   UNL     1     -12.020  13.406  64.948  1.00  0.00    -0.378 C  
HETATM   26  C   UNL     1     -12.873  12.545  64.055  1.00  0.00    -0.323 C  
HETATM   27  O   UNL     1     -11.549  14.462  64.524  1.00  0.00    -0.393 OA 
ENDBRANCH  12  25
ENDBRANCH   6   8
ENDBRANCH   3   4
ENDBRANCH   2   3
TORSDOF 10
ENDMDL
MODEL      151
REMARK 921   NORMALIZED FREE ENERGY PREDICTED BY IDOCK:   -3.74 KCAL/MOL
REMARK 922        TOTAL FREE ENERGY PREDICTED BY IDOCK:   -6.95 KCAL/MOL
REMARK 923 INTER-LIGAND FREE ENERGY PREDICTED BY IDOCK:   -5.97 KCAL/MOL
REMARK 924 INTRA-LIGAND FREE ENERGY PREDICTED BY IDOCK:   -0.98 KCAL/MOL
REMARK 927      BINDING AFFINITY PREDICTED BY RF-SCORE:    0.00 PKD
ROOT
HETATM    1  C   UNL     1     -12.494  14.177  64.934  1.00  0.00    -0.419 C  
HETATM    2  C   UNL     1     -11.250  13.547  64.332  1.00  0.00    -0.399 C  
ENDROOT
BRANCH   2   3
HETATM    3  C   UNL     1     -11.541  12.150  63.799  1.00  0.00    -0.557 C  
BRANCH   3   4
HETATM    4  C   UNL     1     -10.590  11.141  64.401  1.00  0.00    -0.343 C  
HETATM    5  O   UNL     1      -9.855  10.478  63.674  1.00  0.00    -0.312 OA 
HETATM    6  N   UNL     1     -10.620  11.114  65.788  1.00  0.00    -0.251 N  
HETATM    7  H   UNL     1     -11.258  11.760  66.253  1.00  0.00     0.000 HD 
BRANCH   6   8
HETATM    8  C   UNL     1      -9.845  10.271  66.613  1.00  0.00    -0.204 A  
HETATM    9  C   UNL     1      -8.881  10.750  67.494  1.00  0.00    -0.128 A  
HETATM   10  C   UNL     1      -8.203   9.886  68.355  1.00  0.00    -0.106 A  
HETATM   11  C   UNL     1      -8.460   8.512  68.354  1.00  0.00    -0.138 A  
HETATM   12  C   UNL     1      -9.372   8.004  67.415  1.00  0.00    -0.173 A  
HETATM   13  C   UNL     1     -10.059   8.891  66.554  1.00  0.00    -0.356 A  
BRANCH  11  14
HETATM   14  O   UNL     1      -7.895   7.649  69.258  1.00  0.00    -0.115 OA 
BRANCH  14  15
HETATM   15  C   UNL     1      -8.604   7.437  70.491  1.00  0.00    -0.139 C  
BRANCH  15  16
HETATM   16  C   UNL     1      -7.660   7.696  71.674  1.00  0.00    -0.085 C  
HETATM   17  H   UNL     1      -7.107   9.249  72.739  1.00  0.00     0.000 HD 
HETATM   18  O   UNL     1      -7.691   9.089  72.007  1.00  0.00    -0.348 OA 
BRANCH  16  19
HETATM   19  C   UNL     1      -8.036   6.876  72.925  1.00  0.00    -0.103 C  
BRANCH  19  20
HETATM   20  N   UNL     1      -8.916   7.621  73.831  1.00  0.00    -0.256 NA 
HETATM   21  H   UNL     1      -8.940   8.608  73.578  1.00  0.00     0.000 HD 
BRANCH  20  22
HETATM   22  C   UNL     1     -10.277   7.073  73.914  1.00  0.00    -0.350 C  
HETATM   23  C   UNL     1     -11.277   7.837  73.037  1.00  0.00    -0.380 C  
HETATM   24  C   UNL     1     -10.225   5.614  73.459  1.00  0.00    -0.227 C  
ENDBRANCH  20  22
ENDBRANCH  19  20
ENDBRANCH  16  19
ENDBRANCH  15  16
ENDBRANCH  14  15
ENDBRANCH  11  14
BRANCH  12  25
HETATM   25  C   UNL     1      -9.730   6.559  67.284  1.00  0.00    -0.132 C  
HETATM   26  C   UNL     1     -10.972   5.999  67.923  1.00  0.00    -0.334 C  
HETATM   27  O   UNL     1      -8.959   5.817  66.674  1.00  0.00    -0.118 OA 
ENDBRANCH  12  25
ENDBRANCH   6   8
ENDBRANCH   3   4
ENDBRANCH   2   3
TORSDOF 10
ENDMDL
MODEL      152
REMARK 921   NORMALIZED FREE ENERGY PREDICTED BY IDOCK:   -3.73 KCAL/MOL
REMARK 922        TOTAL FREE ENERGY PREDICTED BY IDOCK:   -6.94 KCAL/MOL
REMARK 923 INTER-LIGAND FREE ENERGY PREDICTED BY IDOCK:   -6.09 KCAL/MOL
REMARK 924 INTRA-LIGAND FREE ENERGY PREDICTED BY IDOCK:   -0.85 KCAL/MOL
REMARK 927      BINDING AFFINITY PREDICTED BY RF-SCORE:    0.00 PKD
ROOT
HETATM    1  C   UNL     1      -9.287   2.514  69.800  1.00  0.00    -0.176 C  
HETATM    2  C   UNL     1      -9.385   3.967  69.367  1.00  0.00    -0.246 C  
ENDROOT
BRANCH   2   3
HETATM    3  C   UNL     1      -9.973   4.834  70.473  1.00  0.00    -0.306 C  
BRANCH   3   4
HETATM    4  C   UNL     1     -10.390   6.181  69.929  1.00  0.00    -0.213 C  
HETATM    5  O   UNL     1     -11.573   6.513  69.948  1.00  0.00    -0.409 OA 
HETATM    6  N   UNL     1      -9.324   6.954  69.493  1.00  0.00    -0.148 N  
HETATM    7  H   UNL     1      -8.390   6.553  69.582  1.00  0.00     0.000 HD 
BRANCH   6   8
HETATM    8  C   UNL     1      -9.418   8.248  68.936  1.00  0.00    -0.151 A  
HETATM    9  C   UNL     1      -9.459   9.404  69.709  1.00  0.00    -0.216 A  
HETATM   10  C   UNL     1      -9.460  10.666  69.112  1.00  0.00    -0.185 A  
HETATM   11  C   UNL     1      -9.432  10.811  67.722  1.00  0.00    -0.155 A  
HETATM   12  C   UNL     1      -9.471   9.653  66.929  1.00  0.00    -0.198 A  
HETATM   13  C   UNL     1      -9.461   8.380  67.545  1.00  0.00    -0.182 A  
BRANCH  11  14
HETATM   14  O   UNL     1      -9.321  12.031  67.103  1.00  0.00    -0.179 OA 
BRANCH  14  15
HETATM   15  C   UNL     1     -10.051  13.126  67.681  1.00  0.00    -0.221 C  
BRANCH  15  16
HETATM   16  C   UNL     1     -11.150  13.578  66.709  1.00  0.00    -0.299 C  
HETATM   17  H   UNL     1     -12.944  12.961  66.203  1.00  0.00     0.000 HD 
HETATM   18  O   UNL     1     -12.264  12.681  66.805  1.00  0.00    -0.506 OA 
BRANCH  16  19
HETATM   19  C   UNL     1     -11.640  15.013  66.990  1.00  0.00    -0.240 C  
BRANCH  19  20
HETATM   20  N   UNL     1     -10.638  16.021  66.630  1.00  0.00    -0.316 NA 
HETATM   21  H   UNL     1     -10.971  16.600  65.860  1.00  0.00     0.000 HD 
BRANCH  20  22
HETATM   22  C   UNL     1     -10.209  16.857  67.760  1.00  0.00    -0.308 C  
HETATM   23  C   UNL     1     -10.406  18.356  67.496  1.00  0.00    -0.416 C  
HETATM   24  C   UNL     1     -11.032  16.452  68.983  1.00  0.00    -0.325 C  
ENDBRANCH  20  22
ENDBRANCH  19  20
ENDBRANCH  16  19
ENDBRANCH  15  16
ENDBRANCH  14  15
ENDBRANCH  11  14
BRANCH  12  25
HETATM   25  C   UNL     1      -9.466   9.654  65.435  1.00  0.00    -0.278 C  
HETATM   26  C   UNL     1      -8.330   9.050  64.654  1.00  0.00    -0.180 C  
HETATM   27  O   UNL     1     -10.398  10.204  64.846  1.00  0.00    -0.236 OA 
ENDBRANCH  12  25
ENDBRANCH   6   8
ENDBRANCH   3   4
ENDBRANCH   2   3
TORSDOF 10
ENDMDL
MODEL      153
REMARK 921   NORMALIZED FREE ENERGY PREDICTED BY IDOCK:   -3.73 KCAL/MOL
REMARK 922        TOTAL FREE ENERGY PREDICTED BY IDOCK:   -6.94 KCAL/MOL
REMARK 923 INTER-LIGAND FREE ENERGY PREDICTED BY IDOCK:   -5.64 KCAL/MOL
REMARK 924 INTRA-LIGAND FREE ENERGY PREDICTED BY IDOCK:   -1.29 KCAL/MOL
REMARK 927      BINDING AFFINITY PREDICTED BY RF-SCORE:    0.00 PKD
ROOT
HETATM    1  C   UNL     1      -9.674  10.633  64.621  1.00  0.00    -0.360 C  
HETATM    2  C   UNL     1     -10.521  10.732  65.877  1.00  0.00    -0.270 C  
ENDROOT
BRANCH   2   3
HETATM    3  C   UNL     1      -9.662  11.016  67.103  1.00  0.00    -0.198 C  
BRANCH   3   4
HETATM    4  C   UNL     1      -9.768   9.886  68.101  1.00  0.00    -0.144 C  
HETATM    5  O   UNL     1      -9.513   8.735  67.757  1.00  0.00    -0.139 OA 
HETATM    6  N   UNL     1     -10.110  10.308  69.378  1.00  0.00    -0.224 N  
HETATM    7  H   UNL     1     -10.250  11.310  69.516  1.00  0.00     0.000 HD 
BRANCH   6   8
HETATM    8  C   UNL     1     -10.283   9.474  70.503  1.00  0.00    -0.287 A  
HETATM    9  C   UNL     1     -11.519   8.958  70.881  1.00  0.00    -0.339 A  
HETATM   10  C   UNL     1     -11.628   8.064  71.947  1.00  0.00    -0.348 A  
HETATM   11  C   UNL     1     -10.503   7.665  72.677  1.00  0.00    -0.287 A  
HETATM   12  C   UNL     1      -9.263   8.239  72.358  1.00  0.00    -0.326 A  
HETATM   13  C   UNL     1      -9.164   9.138  71.270  1.00  0.00    -0.261 A  
BRANCH  11  14
HETATM   14  O   UNL     1     -10.555   6.708  73.658  1.00  0.00    -0.295 OA 
BRANCH  14  15
HETATM   15  C   UNL     1     -11.235   5.482  73.340  1.00  0.00    -0.158 C  
BRANCH  15  16
HETATM   16  C   UNL     1     -10.259   4.305  73.477  1.00  0.00    -0.160 C  
HETATM   17  H   UNL     1     -10.398   2.354  73.643  1.00  0.00     0.000 HD 
HETATM   18  O   UNL     1     -11.002   3.082  73.559  1.00  0.00    -0.198 OA 
BRANCH  16  19
HETATM   19  C   UNL     1      -9.272   4.210  72.296  1.00  0.00    -0.121 C  
BRANCH  19  20
HETATM   20  N   UNL     1      -9.894   3.635  71.099  1.00  0.00    -0.168 NA 
HETATM   21  H   UNL     1     -10.911   3.671  71.170  1.00  0.00     0.000 HD 
BRANCH  20  22
HETATM   22  C   UNL     1      -9.438   4.248  69.844  1.00  0.00    -0.189 C  
HETATM   23  C   UNL     1      -9.527   3.288  68.650  1.00  0.00    -0.200 C  
HETATM   24  C   UNL     1     -10.318   5.469  69.571  1.00  0.00    -0.357 C  
ENDBRANCH  20  22
ENDBRANCH  19  20
ENDBRANCH  16  19
ENDBRANCH  15  16
ENDBRANCH  14  15
ENDBRANCH  11  14
BRANCH  12  25
HETATM   25  C   UNL     1      -7.983   7.926  73.062  1.00  0.00    -0.135 C  
HETATM   26  C   UNL     1      -7.120   6.766  72.640  1.00  0.00    -0.079 C  
HETATM   27  O   UNL     1      -7.664   8.613  74.033  1.00  0.00    -0.399 OA 
ENDBRANCH  12  25
ENDBRANCH   6   8
ENDBRANCH   3   4
ENDBRANCH   2   3
TORSDOF 10
ENDMDL
MODEL      154
REMARK 921   NORMALIZED FREE ENERGY PREDICTED BY IDOCK:   -3.70 KCAL/MOL
REMARK 922        TOTAL FREE ENERGY PREDICTED BY IDOCK:   -6.90 KCAL/MOL
REMARK 923 INTER-LIGAND FREE ENERGY PREDICTED BY IDOCK:   -5.77 KCAL/MOL
REMARK 924 INTRA-LIGAND FREE ENERGY PREDICTED BY IDOCK:   -1.13 KCAL/MOL
REMARK 927      BINDING AFFINITY PREDICTED BY RF-SCORE:    0.00 PKD
ROOT
HETATM    1  C   UNL     1      -8.810  17.362  66.815  1.00  0.00    -0.272 C  
HETATM    2  C   UNL     1      -9.160  16.049  66.137  1.00  0.00    -0.387 C  
ENDROOT
BRANCH   2   3
HETATM    3  C   UNL     1     -10.665  15.816  66.128  1.00  0.00    -0.293 C  
BRANCH   3   4
HETATM    4  C   UNL     1     -10.980  14.357  66.368  1.00  0.00    -0.319 C  
HETATM    5  O   UNL     1     -12.143  13.998  66.531  1.00  0.00    -0.424 OA 
HETATM    6  N   UNL     1      -9.862  13.536  66.321  1.00  0.00    -0.295 N  
HETATM    7  H   UNL     1      -8.964  13.982  66.132  1.00  0.00     0.000 HD 
BRANCH   6   8
HETATM    8  C   UNL     1      -9.858  12.138  66.513  1.00  0.00    -0.218 A  
HETATM    9  C   UNL     1      -9.991  11.229  65.468  1.00  0.00    -0.293 A  
HETATM   10  C   UNL     1      -9.891   9.856  65.694  1.00  0.00    -0.368 A  
HETATM   11  C   UNL     1      -9.665   9.346  66.976  1.00  0.00    -0.178 A  
HETATM   12  C   UNL     1      -9.609  10.247  68.052  1.00  0.00    -0.159 A  
HETATM   13  C   UNL     1      -9.703  11.637  67.809  1.00  0.00    -0.177 A  
BRANCH  11  14
HETATM   14  O   UNL     1      -9.452   8.013  67.220  1.00  0.00    -0.144 OA 
BRANCH  14  15
HETATM   15  C   UNL     1     -10.556   7.122  66.991  1.00  0.00    -0.343 C  
BRANCH  15  16
HETATM   16  C   UNL     1     -10.035   5.682  66.883  1.00  0.00    -0.174 C  
HETATM   17  H   UNL     1      -8.350   4.813  66.374  1.00  0.00     0.000 HD 
HETATM   18  O   UNL     1      -8.672   5.704  66.440  1.00  0.00    -0.119 OA 
BRANCH  16  19
HETATM   19  C   UNL     1     -10.111   4.919  68.222  1.00  0.00    -0.075 C  
BRANCH  19  20
HETATM   20  N   UNL     1     -10.590   5.770  69.317  1.00  0.00    -0.286 NA 
HETATM   21  H   UNL     1     -11.607   5.741  69.377  1.00  0.00     0.000 HD 
BRANCH  20  22
HETATM   22  C   UNL     1      -9.984   5.453  70.618  1.00  0.00    -0.214 C  
HETATM   23  C   UNL     1      -9.701   3.954  70.789  1.00  0.00    -0.255 C  
HETATM   24  C   UNL     1      -8.669   6.226  70.724  1.00  0.00    -0.136 C  
ENDBRANCH  20  22
ENDBRANCH  19  20
ENDBRANCH  16  19
ENDBRANCH  15  16
ENDBRANCH  14  15
ENDBRANCH  11  14
BRANCH  12  25
HETATM   25  C   UNL     1      -9.394   9.848  69.475  1.00  0.00    -0.220 C  
HETATM   26  C   UNL     1      -8.024   9.502  69.994  1.00  0.00    -0.163 C  
HETATM   27  O   UNL     1     -10.375   9.761  70.215  1.00  0.00    -0.258 OA 
ENDBRANCH  12  25
ENDBRANCH   6   8
ENDBRANCH   3   4
ENDBRANCH   2   3
TORSDOF 10
ENDMDL
MODEL      155
REMARK 921   NORMALIZED FREE ENERGY PREDICTED BY IDOCK:   -3.69 KCAL/MOL
REMARK 922        TOTAL FREE ENERGY PREDICTED BY IDOCK:   -6.87 KCAL/MOL
REMARK 923 INTER-LIGAND FREE ENERGY PREDICTED BY IDOCK:   -5.80 KCAL/MOL
REMARK 924 INTRA-LIGAND FREE ENERGY PREDICTED BY IDOCK:   -1.07 KCAL/MOL
REMARK 927      BINDING AFFINITY PREDICTED BY RF-SCORE:    0.00 PKD
ROOT
HETATM    1  C   UNL     1     -12.525  11.177  70.757  1.00  0.00    -0.479 C  
HETATM    2  C   UNL     1     -12.301  10.070  71.772  1.00  0.00    -0.434 C  
ENDROOT
BRANCH   2   3
HETATM    3  C   UNL     1     -12.552   8.699  71.159  1.00  0.00    -0.176 C  
BRANCH   3   4
HETATM    4  C   UNL     1     -11.353   8.245  70.359  1.00  0.00    -0.175 C  
HETATM    5  O   UNL     1     -10.586   7.406  70.823  1.00  0.00    -0.219 OA 
HETATM    6  N   UNL     1     -11.280   8.821  69.099  1.00  0.00    -0.413 N  
HETATM    7  H   UNL     1     -12.022   9.473  68.841  1.00  0.00     0.000 HD 
BRANCH   6   8
HETATM    8  C   UNL     1     -10.269   8.585  68.142  1.00  0.00    -0.208 A  
HETATM    9  C   UNL     1     -10.412   7.677  67.098  1.00  0.00    -0.412 A  
HETATM   10  C   UNL     1      -9.421   7.543  66.124  1.00  0.00    -0.095 A  
HETATM   11  C   UNL     1      -8.251   8.307  66.169  1.00  0.00    -0.119 A  
HETATM   12  C   UNL     1      -8.059   9.169  67.261  1.00  0.00    -0.106 A  
HETATM   13  C   UNL     1      -9.074   9.302  68.237  1.00  0.00    -0.128 A  
BRANCH  11  14
HETATM   14  O   UNL     1      -7.308   8.283  65.174  1.00  0.00    -0.077 OA 
BRANCH  14  15
HETATM   15  C   UNL     1      -7.779   8.427  63.823  1.00  0.00    -0.144 C  
BRANCH  15  16
HETATM   16  C   UNL     1      -8.086   9.905  63.545  1.00  0.00    -0.158 C  
HETATM   17  H   UNL     1      -7.232  11.376  62.563  1.00  0.00     0.000 HD 
HETATM   18  O   UNL     1      -7.042  10.461  62.736  1.00  0.00    -0.138 OA 
BRANCH  16  19
HETATM   19  C   UNL     1      -9.435  10.107  62.824  1.00  0.00    -0.253 C  
BRANCH  19  20
HETATM   20  N   UNL     1     -10.526  10.396  63.761  1.00  0.00    -0.395 NA 
HETATM   21  H   UNL     1     -10.328   9.996  64.678  1.00  0.00     0.000 HD 
BRANCH  20  22
HETATM   22  C   UNL     1     -10.841  11.826  63.876  1.00  0.00    -0.404 C  
HETATM   23  C   UNL     1     -12.292  12.145  63.491  1.00  0.00    -0.682 C  
HETATM   24  C   UNL     1     -10.604  12.245  65.328  1.00  0.00    -0.322 C  
ENDBRANCH  20  22
ENDBRANCH  19  20
ENDBRANCH  16  19
ENDBRANCH  15  16
ENDBRANCH  14  15
ENDBRANCH  11  14
BRANCH  12  25
HETATM   25  C   UNL     1      -6.852  10.029  67.453  1.00  0.00    -0.082 C  
HETATM   26  C   UNL     1      -6.768  11.406  66.851  1.00  0.00    -0.145 C  
HETATM   27  O   UNL     1      -5.899   9.569  68.082  1.00  0.00    -0.041 OA 
ENDBRANCH  12  25
ENDBRANCH   6   8
ENDBRANCH   3   4
ENDBRANCH   2   3
TORSDOF 10
ENDMDL
MODEL      156
REMARK 921   NORMALIZED FREE ENERGY PREDICTED BY IDOCK:   -3.68 KCAL/MOL
REMARK 922        TOTAL FREE ENERGY PREDICTED BY IDOCK:   -6.87 KCAL/MOL
REMARK 923 INTER-LIGAND FREE ENERGY PREDICTED BY IDOCK:   -5.50 KCAL/MOL
REMARK 924 INTRA-LIGAND FREE ENERGY PREDICTED BY IDOCK:   -1.37 KCAL/MOL
REMARK 927      BINDING AFFINITY PREDICTED BY RF-SCORE:    0.00 PKD
ROOT
HETATM    1  C   UNL     1     -12.517  12.123  63.402  1.00  0.00    -0.625 C  
HETATM    2  C   UNL     1     -12.413  12.667  64.816  1.00  0.00    -0.555 C  
ENDROOT
BRANCH   2   3
HETATM    3  C   UNL     1     -11.154  13.505  64.995  1.00  0.00    -0.338 C  
BRANCH   3   4
HETATM    4  C   UNL     1     -10.427  13.113  66.260  1.00  0.00    -0.285 C  
HETATM    5  O   UNL     1      -9.988  13.979  67.012  1.00  0.00    -0.248 OA 
HETATM    6  N   UNL     1     -10.382  11.741  66.468  1.00  0.00    -0.218 N  
HETATM    7  H   UNL     1     -10.833  11.149  65.770  1.00  0.00     0.000 HD 
BRANCH   6   8
HETATM    8  C   UNL     1      -9.767  11.093  67.560  1.00  0.00    -0.176 A  
HETATM    9  C   UNL     1      -8.390  10.915  67.658  1.00  0.00    -0.116 A  
HETATM   10  C   UNL     1      -7.819  10.350  68.799  1.00  0.00    -0.108 A  
HETATM   11  C   UNL     1      -8.609   9.933  69.875  1.00  0.00    -0.194 A  
HETATM   12  C   UNL     1     -10.004  10.032  69.756  1.00  0.00    -0.276 A  
HETATM   13  C   UNL     1     -10.571  10.615  68.599  1.00  0.00    -0.229 A  
BRANCH  11  14
HETATM   14  O   UNL     1      -8.078   9.476  71.054  1.00  0.00    -0.312 OA 
BRANCH  14  15
HETATM   15  C   UNL     1      -6.646   9.499  71.180  1.00  0.00    -0.023 C  
BRANCH  15  16
HETATM   16  C   UNL     1      -6.209   8.476  72.237  1.00  0.00    -0.071 C  
HETATM   17  H   UNL     1      -6.596   8.134  74.131  1.00  0.00     0.000 HD 
HETATM   18  O   UNL     1      -6.867   8.767  73.477  1.00  0.00    -0.322 OA 
BRANCH  16  19
HETATM   19  C   UNL     1      -6.534   7.024  71.830  1.00  0.00    -0.048 C  
BRANCH  19  20
HETATM   20  N   UNL     1      -6.387   6.808  70.387  1.00  0.00    -0.041 NA 
HETATM   21  H   UNL     1      -5.468   6.421  70.173  1.00  0.00     0.000 HD 
BRANCH  20  22
HETATM   22  C   UNL     1      -7.449   5.975  69.804  1.00  0.00    -0.080 C  
HETATM   23  C   UNL     1      -8.712   5.932  70.675  1.00  0.00    -0.137 C  
HETATM   24  C   UNL     1      -7.804   6.557  68.435  1.00  0.00    -0.106 C  
ENDBRANCH  20  22
ENDBRANCH  19  20
ENDBRANCH  16  19
ENDBRANCH  15  16
ENDBRANCH  14  15
ENDBRANCH  11  14
BRANCH  12  25
HETATM   25  C   UNL     1     -10.972   9.610  70.813  1.00  0.00    -0.327 C  
HETATM   26  C   UNL     1     -12.038  10.545  71.320  1.00  0.00    -0.432 C  
HETATM   27  O   UNL     1     -10.853   8.485  71.301  1.00  0.00    -0.229 OA 
ENDBRANCH  12  25
ENDBRANCH   6   8
ENDBRANCH   3   4
ENDBRANCH   2   3
TORSDOF 10
ENDMDL
MODEL      157
REMARK 921   NORMALIZED FREE ENERGY PREDICTED BY IDOCK:   -3.67 KCAL/MOL
REMARK 922        TOTAL FREE ENERGY PREDICTED BY IDOCK:   -6.85 KCAL/MOL
REMARK 923 INTER-LIGAND FREE ENERGY PREDICTED BY IDOCK:   -6.04 KCAL/MOL
REMARK 924 INTRA-LIGAND FREE ENERGY PREDICTED BY IDOCK:   -0.81 KCAL/MOL
REMARK 927      BINDING AFFINITY PREDICTED BY RF-SCORE:    0.00 PKD
ROOT
HETATM    1  C   UNL     1      -8.857  11.166  62.793  1.00  0.00    -0.274 C  
HETATM    2  C   UNL     1      -9.614  10.274  63.762  1.00  0.00    -0.344 C  
ENDROOT
BRANCH   2   3
HETATM    3  C   UNL     1     -10.046  11.046  65.002  1.00  0.00    -0.354 C  
BRANCH   3   4
HETATM    4  C   UNL     1     -10.126  10.129  66.200  1.00  0.00    -0.246 C  
HETATM    5  O   UNL     1     -10.081   8.912  66.048  1.00  0.00    -0.260 OA 
HETATM    6  N   UNL     1     -10.193  10.807  67.410  1.00  0.00    -0.195 N  
HETATM    7  H   UNL     1     -10.179  11.826  67.374  1.00  0.00     0.000 HD 
BRANCH   6   8
HETATM    8  C   UNL     1     -10.280  10.209  68.686  1.00  0.00    -0.176 A  
HETATM    9  C   UNL     1      -9.235   9.491  69.259  1.00  0.00    -0.169 A  
HETATM   10  C   UNL     1      -9.334   8.995  70.559  1.00  0.00    -0.262 A  
HETATM   11  C   UNL     1     -10.488   9.191  71.325  1.00  0.00    -0.328 A  
HETATM   12  C   UNL     1     -11.580   9.843  70.731  1.00  0.00    -0.430 A  
HETATM   13  C   UNL     1     -11.464  10.350  69.415  1.00  0.00    -0.292 A  
BRANCH  11  14
HETATM   14  O   UNL     1     -10.580   8.815  72.641  1.00  0.00    -0.160 OA 
BRANCH  14  15
HETATM   15  C   UNL     1     -11.059   7.486  72.909  1.00  0.00    -0.375 C  
BRANCH  15  16
HETATM   16  C   UNL     1      -9.912   6.634  73.470  1.00  0.00    -0.229 C  
HETATM   17  H   UNL     1      -9.728   5.176  74.772  1.00  0.00     0.000 HD 
HETATM   18  O   UNL     1     -10.438   5.704  74.426  1.00  0.00    -0.268 OA 
BRANCH  16  19
HETATM   19  C   UNL     1      -9.161   5.851  72.373  1.00  0.00    -0.143 C  
BRANCH  19  20
HETATM   20  N   UNL     1      -7.759   6.264  72.259  1.00  0.00    -0.102 NA 
HETATM   21  H   UNL     1      -7.691   7.197  71.853  1.00  0.00     0.000 HD 
BRANCH  20  22
HETATM   22  C   UNL     1      -7.018   6.194  73.526  1.00  0.00    -0.080 C  
HETATM   23  C   UNL     1      -6.587   4.764  73.881  1.00  0.00    -0.063 C  
HETATM   24  C   UNL     1      -5.774   7.073  73.392  1.00  0.00    -0.050 C  
ENDBRANCH  20  22
ENDBRANCH  19  20
ENDBRANCH  16  19
ENDBRANCH  15  16
ENDBRANCH  14  15
ENDBRANCH  11  14
BRANCH  12  25
HETATM   25  C   UNL     1     -12.880  10.106  71.418  1.00  0.00    -0.428 C  
HETATM   26  C   UNL     1     -13.922   9.029  71.561  1.00  0.00    -0.336 C  
HETATM   27  O   UNL     1     -13.106  11.244  71.830  1.00  0.00    -0.472 OA 
ENDBRANCH  12  25
ENDBRANCH   6   8
ENDBRANCH   3   4
ENDBRANCH   2   3
TORSDOF 10
ENDMDL
MODEL      158
REMARK 921   NORMALIZED FREE ENERGY PREDICTED BY IDOCK:   -3.66 KCAL/MOL
REMARK 922        TOTAL FREE ENERGY PREDICTED BY IDOCK:   -6.83 KCAL/MOL
REMARK 923 INTER-LIGAND FREE ENERGY PREDICTED BY IDOCK:   -5.98 KCAL/MOL
REMARK 924 INTRA-LIGAND FREE ENERGY PREDICTED BY IDOCK:   -0.85 KCAL/MOL
REMARK 927      BINDING AFFINITY PREDICTED BY RF-SCORE:    0.00 PKD
ROOT
HETATM    1  C   UNL     1      -9.736  20.633  67.097  1.00  0.00    -0.530 C  
HETATM    2  C   UNL     1      -9.347  19.605  68.145  1.00  0.00    -0.433 C  
ENDROOT
BRANCH   2   3
HETATM    3  C   UNL     1     -10.490  18.636  68.419  1.00  0.00    -0.259 C  
BRANCH   3   4
HETATM    4  C   UNL     1     -10.167  17.263  67.876  1.00  0.00    -0.332 C  
HETATM    5  O   UNL     1     -10.218  17.052  66.668  1.00  0.00    -0.294 OA 
HETATM    6  N   UNL     1      -9.778  16.360  68.855  1.00  0.00    -0.247 N  
HETATM    7  H   UNL     1      -9.745  16.700  69.817  1.00  0.00     0.000 HD 
BRANCH   6   8
HETATM    8  C   UNL     1      -9.424  15.011  68.638  1.00  0.00    -0.212 A  
HETATM    9  C   UNL     1      -8.125  14.605  68.349  1.00  0.00    -0.147 A  
HETATM   10  C   UNL     1      -7.805  13.252  68.232  1.00  0.00    -0.143 A  
HETATM   11  C   UNL     1      -8.779  12.260  68.388  1.00  0.00    -0.139 A  
HETATM   12  C   UNL     1     -10.108  12.658  68.600  1.00  0.00    -0.131 A  
HETATM   13  C   UNL     1     -10.418  14.032  68.726  1.00  0.00    -0.238 A  
BRANCH  11  14
HETATM   14  O   UNL     1      -8.483  10.921  68.389  1.00  0.00    -0.127 OA 
BRANCH  14  15
HETATM   15  C   UNL     1      -7.129  10.550  68.079  1.00  0.00    -0.086 C  
BRANCH  15  16
HETATM   16  C   UNL     1      -6.881  10.734  66.575  1.00  0.00    -0.130 C  
HETATM   17  H   UNL     1      -5.315  10.875  65.398  1.00  0.00     0.000 HD 
HETATM   18  O   UNL     1      -5.469  10.761  66.329  1.00  0.00    -0.071 OA 
BRANCH  16  19
HETATM   19  C   UNL     1      -7.513   9.612  65.726  1.00  0.00    -0.100 C  
BRANCH  19  20
HETATM   20  N   UNL     1      -8.313  10.141  64.616  1.00  0.00    -0.160 NA 
HETATM   21  H   UNL     1      -8.099   9.646  63.751  1.00  0.00     0.000 HD 
BRANCH  20  22
HETATM   22  C   UNL     1      -9.759  10.134  64.875  1.00  0.00    -0.324 C  
HETATM   23  C   UNL     1     -10.127   9.373  66.157  1.00  0.00    -0.324 C  
HETATM   24  C   UNL     1     -10.221  11.586  65.006  1.00  0.00    -0.328 C  
ENDBRANCH  20  22
ENDBRANCH  19  20
ENDBRANCH  16  19
ENDBRANCH  15  16
ENDBRANCH  14  15
ENDBRANCH  11  14
BRANCH  12  25
HETATM   25  C   UNL     1     -11.255  11.714  68.765  1.00  0.00    -0.245 C  
HETATM   26  C   UNL     1     -11.292  10.716  69.891  1.00  0.00    -0.386 C  
HETATM   27  O   UNL     1     -12.157  11.736  67.927  1.00  0.00    -0.592 OA 
ENDBRANCH  12  25
ENDBRANCH   6   8
ENDBRANCH   3   4
ENDBRANCH   2   3
TORSDOF 10
ENDMDL
MODEL      159
REMARK 921   NORMALIZED FREE ENERGY PREDICTED BY IDOCK:   -3.65 KCAL/MOL
REMARK 922        TOTAL FREE ENERGY PREDICTED BY IDOCK:   -6.82 KCAL/MOL
REMARK 923 INTER-LIGAND FREE ENERGY PREDICTED BY IDOCK:   -5.67 KCAL/MOL
REMARK 924 INTRA-LIGAND FREE ENERGY PREDICTED BY IDOCK:   -1.15 KCAL/MOL
REMARK 927      BINDING AFFINITY PREDICTED BY RF-SCORE:    0.00 PKD
ROOT
HETATM    1  C   UNL     1      -8.643   6.275  67.971  1.00  0.00    -0.116 C  
HETATM    2  C   UNL     1      -9.219   6.855  66.691  1.00  0.00    -0.185 C  
ENDROOT
BRANCH   2   3
HETATM    3  C   UNL     1     -10.351   7.831  66.987  1.00  0.00    -0.405 C  
BRANCH   3   4
HETATM    4  C   UNL     1      -9.913   9.252  66.718  1.00  0.00    -0.245 C  
HETATM    5  O   UNL     1     -10.051   9.738  65.599  1.00  0.00    -0.296 OA 
HETATM    6  N   UNL     1      -9.425   9.901  67.844  1.00  0.00    -0.134 N  
HETATM    7  H   UNL     1      -9.412   9.374  68.717  1.00  0.00     0.000 HD 
BRANCH   6   8
HETATM    8  C   UNL     1      -8.943  11.227  67.886  1.00  0.00    -0.146 A  
HETATM    9  C   UNL     1      -7.621  11.562  67.613  1.00  0.00    -0.115 A  
HETATM   10  C   UNL     1      -7.211  12.896  67.578  1.00  0.00    -0.149 A  
HETATM   11  C   UNL     1      -8.110  13.938  67.827  1.00  0.00    -0.172 A  
HETATM   12  C   UNL     1      -9.428  13.611  68.182  1.00  0.00    -0.217 A  
HETATM   13  C   UNL     1      -9.834  12.256  68.205  1.00  0.00    -0.217 A  
BRANCH  11  14
HETATM   14  O   UNL     1      -7.771  15.260  67.694  1.00  0.00    -0.136 OA 
BRANCH  14  15
HETATM   15  C   UNL     1      -7.039  15.860  68.776  1.00  0.00    -0.138 C  
BRANCH  15  16
HETATM   16  C   UNL     1      -7.156  17.388  68.687  1.00  0.00    -0.237 C  
HETATM   17  H   UNL     1      -6.108  18.932  69.297  1.00  0.00     0.000 HD 
HETATM   18  O   UNL     1      -6.037  17.987  69.353  1.00  0.00    -0.226 OA 
BRANCH  16  19
HETATM   19  C   UNL     1      -7.200  17.897  67.231  1.00  0.00    -0.184 C  
BRANCH  19  20
HETATM   20  N   UNL     1      -8.566  17.935  66.700  1.00  0.00    -0.254 NA 
HETATM   21  H   UNL     1      -9.038  17.044  66.856  1.00  0.00     0.000 HD 
BRANCH  20  22
HETATM   22  C   UNL     1      -9.372  19.047  67.222  1.00  0.00    -0.304 C  
HETATM   23  C   UNL     1      -8.562  20.341  67.380  1.00  0.00    -0.420 C  
HETATM   24  C   UNL     1     -10.522  19.293  66.245  1.00  0.00    -0.567 C  
ENDBRANCH  20  22
ENDBRANCH  19  20
ENDBRANCH  16  19
ENDBRANCH  15  16
ENDBRANCH  14  15
ENDBRANCH  11  14
BRANCH  12  25
HETATM   25  C   UNL     1     -10.490  14.615  68.494  1.00  0.00    -0.247 C  
HETATM   26  C   UNL     1     -11.278  15.287  67.401  1.00  0.00    -0.311 C  
HETATM   27  O   UNL     1     -10.681  14.919  69.672  1.00  0.00    -0.250 OA 
ENDBRANCH  12  25
ENDBRANCH   6   8
ENDBRANCH   3   4
ENDBRANCH   2   3
TORSDOF 10
ENDMDL
MODEL      160
REMARK 921   NORMALIZED FREE ENERGY PREDICTED BY IDOCK:   -3.63 KCAL/MOL
REMARK 922        TOTAL FREE ENERGY PREDICTED BY IDOCK:   -6.79 KCAL/MOL
REMARK 923 INTER-LIGAND FREE ENERGY PREDICTED BY IDOCK:   -5.32 KCAL/MOL
REMARK 924 INTRA-LIGAND FREE ENERGY PREDICTED BY IDOCK:   -1.47 KCAL/MOL
REMARK 927      BINDING AFFINITY PREDICTED BY RF-SCORE:    0.00 PKD
ROOT
HETATM    1  C   UNL     1      -8.627  16.868  66.124  1.00  0.00    -0.277 C  
HETATM    2  C   UNL     1      -9.875  16.057  65.822  1.00  0.00    -0.357 C  
ENDROOT
BRANCH   2   3
HETATM    3  C   UNL     1     -10.675  15.782  67.088  1.00  0.00    -0.312 C  
BRANCH   3   4
HETATM    4  C   UNL     1     -11.193  14.362  67.094  1.00  0.00    -0.328 C  
HETATM    5  O   UNL     1     -12.379  14.138  66.870  1.00  0.00    -0.419 OA 
HETATM    6  N   UNL     1     -10.202  13.415  67.314  1.00  0.00    -0.240 N  
HETATM    7  H   UNL     1      -9.250  13.758  67.442  1.00  0.00     0.000 HD 
BRANCH   6   8
HETATM    8  C   UNL     1     -10.397  12.018  67.375  1.00  0.00    -0.207 A  
HETATM    9  C   UNL     1     -10.371  11.199  66.251  1.00  0.00    -0.299 A  
HETATM   10  C   UNL     1     -10.478   9.813  66.370  1.00  0.00    -0.190 A  
HETATM   11  C   UNL     1     -10.625   9.202  67.620  1.00  0.00    -0.242 A  
HETATM   12  C   UNL     1     -10.733  10.021  68.754  1.00  0.00    -0.250 A  
HETATM   13  C   UNL     1     -10.615  11.424  68.621  1.00  0.00    -0.229 A  
BRANCH  11  14
HETATM   14  O   UNL     1     -10.623   7.840  67.786  1.00  0.00    -0.225 OA 
BRANCH  14  15
HETATM   15  C   UNL     1      -9.536   7.110  67.194  1.00  0.00    -0.151 C  
BRANCH  15  16
HETATM   16  C   UNL     1      -8.397   6.973  68.214  1.00  0.00    -0.123 C  
HETATM   17  H   UNL     1      -7.273   5.519  68.904  1.00  0.00     0.000 HD 
HETATM   18  O   UNL     1      -7.978   5.604  68.273  1.00  0.00    -0.098 OA 
BRANCH  16  19
HETATM   19  C   UNL     1      -7.178   7.852  67.865  1.00  0.00    -0.091 C  
BRANCH  19  20
HETATM   20  N   UNL     1      -7.109   8.160  66.433  1.00  0.00    -0.073 NA 
HETATM   21  H   UNL     1      -8.028   8.072  66.001  1.00  0.00     0.000 HD 
BRANCH  20  22
HETATM   22  C   UNL     1      -6.521   9.475  66.140  1.00  0.00    -0.070 C  
HETATM   23  C   UNL     1      -7.031  10.070  64.820  1.00  0.00    -0.137 C  
HETATM   24  C   UNL     1      -6.885  10.418  67.287  1.00  0.00    -0.081 C  
ENDBRANCH  20  22
ENDBRANCH  19  20
ENDBRANCH  16  19
ENDBRANCH  15  16
ENDBRANCH  14  15
ENDBRANCH  11  14
BRANCH  12  25
HETATM   25  C   UNL     1     -10.913   9.511  70.148  1.00  0.00    -0.262 C  
HETATM   26  C   UNL     1     -11.994  10.050  71.046  1.00  0.00    -0.469 C  
HETATM   27  O   UNL     1     -10.124   8.665  70.569  1.00  0.00    -0.186 OA 
ENDBRANCH  12  25
ENDBRANCH   6   8
ENDBRANCH   3   4
ENDBRANCH   2   3
TORSDOF 10
ENDMDL
MODEL      161
REMARK 921   NORMALIZED FREE ENERGY PREDICTED BY IDOCK:   -3.63 KCAL/MOL
REMARK 922        TOTAL FREE ENERGY PREDICTED BY IDOCK:   -6.78 KCAL/MOL
REMARK 923 INTER-LIGAND FREE ENERGY PREDICTED BY IDOCK:   -5.89 KCAL/MOL
REMARK 924 INTRA-LIGAND FREE ENERGY PREDICTED BY IDOCK:   -0.89 KCAL/MOL
REMARK 927      BINDING AFFINITY PREDICTED BY RF-SCORE:    0.00 PKD
ROOT
HETATM    1  C   UNL     1      -9.312  20.632  67.260  1.00  0.00    -0.480 C  
HETATM    2  C   UNL     1      -8.729  19.500  68.088  1.00  0.00    -0.368 C  
ENDROOT
BRANCH   2   3
HETATM    3  C   UNL     1      -9.809  18.511  68.508  1.00  0.00    -0.414 C  
BRANCH   3   4
HETATM    4  C   UNL     1      -9.726  17.248  67.682  1.00  0.00    -0.272 C  
HETATM    5  O   UNL     1      -9.904  17.294  66.468  1.00  0.00    -0.272 OA 
HETATM    6  N   UNL     1      -9.389  16.124  68.423  1.00  0.00    -0.201 N  
HETATM    7  H   UNL     1      -9.230  16.256  69.423  1.00  0.00     0.000 HD 
BRANCH   6   8
HETATM    8  C   UNL     1      -9.246  14.815  67.916  1.00  0.00    -0.191 A  
HETATM    9  C   UNL     1      -8.029  14.141  67.890  1.00  0.00    -0.157 A  
HETATM   10  C   UNL     1      -7.952  12.814  67.463  1.00  0.00    -0.177 A  
HETATM   11  C   UNL     1      -9.090  12.123  67.038  1.00  0.00    -0.198 A  
HETATM   12  C   UNL     1     -10.310  12.815  66.983  1.00  0.00    -0.240 A  
HETATM   13  C   UNL     1     -10.377  14.156  67.427  1.00  0.00    -0.256 A  
BRANCH  11  14
HETATM   14  O   UNL     1      -9.073  10.789  66.717  1.00  0.00    -0.151 OA 
BRANCH  14  15
HETATM   15  C   UNL     1      -9.020   9.854  67.807  1.00  0.00    -0.131 C  
BRANCH  15  16
HETATM   16  C   UNL     1      -8.297   8.579  67.352  1.00  0.00    -0.120 C  
HETATM   17  H   UNL     1      -7.634   6.938  68.203  1.00  0.00     0.000 HD 
HETATM   18  O   UNL     1      -8.081   7.728  68.485  1.00  0.00    -0.120 OA 
BRANCH  16  19
HETATM   19  C   UNL     1      -9.089   7.795  66.284  1.00  0.00    -0.178 C  
BRANCH  19  20
HETATM   20  N   UNL     1      -8.773   8.241  64.923  1.00  0.00    -0.395 NA 
HETATM   21  H   UNL     1      -8.303   9.146  64.941  1.00  0.00     0.000 HD 
BRANCH  20  22
HETATM   22  C   UNL     1      -7.993   7.266  64.149  1.00  0.00    -0.084 C  
HETATM   23  C   UNL     1      -8.405   5.816  64.437  1.00  0.00    -0.073 C  
HETATM   24  C   UNL     1      -8.210   7.562  62.665  1.00  0.00    -0.053 C  
ENDBRANCH  20  22
ENDBRANCH  19  20
ENDBRANCH  16  19
ENDBRANCH  15  16
ENDBRANCH  14  15
ENDBRANCH  11  14
BRANCH  12  25
HETATM   25  C   UNL     1     -11.602  12.213  66.532  1.00  0.00    -0.359 C  
HETATM   26  C   UNL     1     -12.248  12.625  65.236  1.00  0.00    -0.532 C  
HETATM   27  O   UNL     1     -12.157  11.397  67.268  1.00  0.00    -0.464 OA 
ENDBRANCH  12  25
ENDBRANCH   6   8
ENDBRANCH   3   4
ENDBRANCH   2   3
TORSDOF 10
ENDMDL
MODEL      162
REMARK 921   NORMALIZED FREE ENERGY PREDICTED BY IDOCK:   -3.61 KCAL/MOL
REMARK 922        TOTAL FREE ENERGY PREDICTED BY IDOCK:   -6.76 KCAL/MOL
REMARK 923 INTER-LIGAND FREE ENERGY PREDICTED BY IDOCK:   -5.69 KCAL/MOL
REMARK 924 INTRA-LIGAND FREE ENERGY PREDICTED BY IDOCK:   -1.07 KCAL/MOL
REMARK 927      BINDING AFFINITY PREDICTED BY RF-SCORE:    0.00 PKD
ROOT
HETATM    1  C   UNL     1     -10.448  16.063  67.301  1.00  0.00    -0.308 C  
HETATM    2  C   UNL     1     -10.983  14.742  66.776  1.00  0.00    -0.327 C  
ENDROOT
BRANCH   2   3
HETATM    3  C   UNL     1     -11.964  14.115  67.758  1.00  0.00    -0.389 C  
BRANCH   3   4
HETATM    4  C   UNL     1     -11.656  12.648  67.956  1.00  0.00    -0.343 C  
HETATM    5  O   UNL     1     -11.850  11.850  67.043  1.00  0.00    -0.585 OA 
HETATM    6  N   UNL     1     -11.108  12.362  69.199  1.00  0.00    -0.372 N  
HETATM    7  H   UNL     1     -10.967  13.146  69.837  1.00  0.00     0.000 HD 
BRANCH   6   8
HETATM    8  C   UNL     1     -10.728  11.082  69.657  1.00  0.00    -0.139 A  
HETATM    9  C   UNL     1     -11.443  10.382  70.624  1.00  0.00    -0.438 A  
HETATM   10  C   UNL     1     -11.082   9.081  70.980  1.00  0.00    -0.356 A  
HETATM   11  C   UNL     1      -9.987   8.444  70.388  1.00  0.00    -0.185 A  
HETATM   12  C   UNL     1      -9.210   9.168  69.470  1.00  0.00    -0.160 A  
HETATM   13  C   UNL     1      -9.591  10.482  69.110  1.00  0.00    -0.214 A  
BRANCH  11  14
HETATM   14  O   UNL     1      -9.669   7.132  70.631  1.00  0.00    -0.176 OA 
BRANCH  14  15
HETATM   15  C   UNL     1     -10.762   6.211  70.779  1.00  0.00    -0.266 C  
BRANCH  15  16
HETATM   16  C   UNL     1     -10.286   4.793  70.433  1.00  0.00    -0.191 C  
HETATM   17  H   UNL     1      -9.656   3.856  68.827  1.00  0.00     0.000 HD 
HETATM   18  O   UNL     1      -9.952   4.733  69.041  1.00  0.00    -0.180 OA 
BRANCH  16  19
HETATM   19  C   UNL     1      -9.056   4.361  71.260  1.00  0.00    -0.127 C  
BRANCH  19  20
HETATM   20  N   UNL     1      -8.909   5.149  72.487  1.00  0.00    -0.126 NA 
HETATM   21  H   UNL     1      -9.524   5.963  72.468  1.00  0.00     0.000 HD 
BRANCH  20  22
HETATM   22  C   UNL     1      -9.117   4.371  73.716  1.00  0.00    -0.104 C  
HETATM   23  C   UNL     1     -10.583   4.361  74.170  1.00  0.00    -0.329 C  
HETATM   24  C   UNL     1      -8.667   2.935  73.445  1.00  0.00    -0.079 C  
ENDBRANCH  20  22
ENDBRANCH  19  20
ENDBRANCH  16  19
ENDBRANCH  15  16
ENDBRANCH  14  15
ENDBRANCH  11  14
BRANCH  12  25
HETATM   25  C   UNL     1      -8.004   8.626  68.774  1.00  0.00    -0.114 C  
HETATM   26  C   UNL     1      -6.613   8.993  69.218  1.00  0.00    -0.049 C  
HETATM   27  O   UNL     1      -8.170   7.902  67.792  1.00  0.00    -0.125 OA 
ENDBRANCH  12  25
ENDBRANCH   6   8
ENDBRANCH   3   4
ENDBRANCH   2   3
TORSDOF 10
ENDMDL
MODEL      163
REMARK 921   NORMALIZED FREE ENERGY PREDICTED BY IDOCK:   -3.61 KCAL/MOL
REMARK 922        TOTAL FREE ENERGY PREDICTED BY IDOCK:   -6.75 KCAL/MOL
REMARK 923 INTER-LIGAND FREE ENERGY PREDICTED BY IDOCK:   -5.76 KCAL/MOL
REMARK 924 INTRA-LIGAND FREE ENERGY PREDICTED BY IDOCK:   -0.99 KCAL/MOL
REMARK 927      BINDING AFFINITY PREDICTED BY RF-SCORE:    0.00 PKD
ROOT
HETATM    1  C   UNL     1     -10.832   6.119  72.813  1.00  0.00    -0.282 C  
HETATM    2  C   UNL     1     -10.491   6.928  71.574  1.00  0.00    -0.231 C  
ENDROOT
BRANCH   2   3
HETATM    3  C   UNL     1     -10.758   6.131  70.303  1.00  0.00    -0.355 C  
BRANCH   3   4
HETATM    4  C   UNL     1     -10.684   7.026  69.088  1.00  0.00    -0.218 C  
HETATM    5  O   UNL     1     -10.870   6.559  67.967  1.00  0.00    -0.252 OA 
HETATM    6  N   UNL     1     -10.452   8.359  69.397  1.00  0.00    -0.220 N  
HETATM    7  H   UNL     1     -10.360   8.599  70.384  1.00  0.00     0.000 HD 
BRANCH   6   8
HETATM    8  C   UNL     1     -10.330   9.412  68.464  1.00  0.00    -0.209 A  
HETATM    9  C   UNL     1     -11.409  10.191  68.057  1.00  0.00    -0.152 A  
HETATM   10  C   UNL     1     -11.226  11.279  67.203  1.00  0.00    -0.344 A  
HETATM   11  C   UNL     1      -9.958  11.616  66.719  1.00  0.00    -0.204 A  
HETATM   12  C   UNL     1      -8.873  10.791  67.058  1.00  0.00    -0.137 A  
HETATM   13  C   UNL     1      -9.070   9.697  67.932  1.00  0.00    -0.130 A  
BRANCH  11  14
HETATM   14  O   UNL     1      -9.722  12.740  65.969  1.00  0.00    -0.259 OA 
BRANCH  14  15
HETATM   15  C   UNL     1     -10.866  13.523  65.587  1.00  0.00    -0.287 C  
BRANCH  15  16
HETATM   16  C   UNL     1     -10.897  14.818  66.411  1.00  0.00    -0.322 C  
HETATM   17  H   UNL     1     -11.766  15.433  68.061  1.00  0.00     0.000 HD 
HETATM   18  O   UNL     1     -11.747  14.632  67.551  1.00  0.00    -0.365 OA 
BRANCH  16  19
HETATM   19  C   UNL     1      -9.497  15.247  66.898  1.00  0.00    -0.234 C  
BRANCH  19  20
HETATM   20  N   UNL     1      -9.151  16.603  66.460  1.00  0.00    -0.253 NA 
HETATM   21  H   UNL     1      -9.872  16.977  65.844  1.00  0.00     0.000 HD 
BRANCH  20  22
HETATM   22  C   UNL     1      -8.882  17.530  67.568  1.00  0.00    -0.229 C  
HETATM   23  C   UNL     1     -10.165  18.033  68.242  1.00  0.00    -0.402 C  
HETATM   24  C   UNL     1      -8.030  16.792  68.601  1.00  0.00    -0.246 C  
ENDBRANCH  20  22
ENDBRANCH  19  20
ENDBRANCH  16  19
ENDBRANCH  15  16
ENDBRANCH  14  15
ENDBRANCH  11  14
BRANCH  12  25
HETATM   25  C   UNL     1      -7.469  11.016  66.601  1.00  0.00    -0.146 C  
HETATM   26  C   UNL     1      -6.579  12.030  67.269  1.00  0.00    -0.145 C  
HETATM   27  O   UNL     1      -7.061  10.381  65.627  1.00  0.00    -0.138 OA 
ENDBRANCH  12  25
ENDBRANCH   6   8
ENDBRANCH   3   4
ENDBRANCH   2   3
TORSDOF 10
ENDMDL
MODEL      164
REMARK 921   NORMALIZED FREE ENERGY PREDICTED BY IDOCK:   -3.60 KCAL/MOL
REMARK 922        TOTAL FREE ENERGY PREDICTED BY IDOCK:   -6.73 KCAL/MOL
REMARK 923 INTER-LIGAND FREE ENERGY PREDICTED BY IDOCK:   -5.32 KCAL/MOL
REMARK 924 INTRA-LIGAND FREE ENERGY PREDICTED BY IDOCK:   -1.41 KCAL/MOL
REMARK 927      BINDING AFFINITY PREDICTED BY RF-SCORE:    0.00 PKD
ROOT
HETATM    1  C   UNL     1     -10.535  19.080  66.683  1.00  0.00    -0.517 C  
HETATM    2  C   UNL     1     -10.441  17.576  66.870  1.00  0.00    -0.285 C  
ENDROOT
BRANCH   2   3
HETATM    3  C   UNL     1     -10.574  16.845  65.540  1.00  0.00    -0.215 C  
BRANCH   3   4
HETATM    4  C   UNL     1     -10.609  15.350  65.755  1.00  0.00    -0.348 C  
HETATM    5  O   UNL     1     -10.683  14.591  64.792  1.00  0.00    -0.413 OA 
HETATM    6  N   UNL     1     -10.494  14.981  67.088  1.00  0.00    -0.272 N  
HETATM    7  H   UNL     1     -10.396  15.731  67.772  1.00  0.00     0.000 HD 
BRANCH   6   8
HETATM    8  C   UNL     1     -10.501  13.658  67.580  1.00  0.00    -0.238 A  
HETATM    9  C   UNL     1     -11.672  12.961  67.863  1.00  0.00    -0.405 A  
HETATM   10  C   UNL     1     -11.632  11.624  68.261  1.00  0.00    -0.378 A  
HETATM   11  C   UNL     1     -10.418  10.944  68.400  1.00  0.00    -0.183 A  
HETATM   12  C   UNL     1      -9.226  11.658  68.196  1.00  0.00    -0.184 A  
HETATM   13  C   UNL     1      -9.280  13.010  67.784  1.00  0.00    -0.200 A  
BRANCH  11  14
HETATM   14  O   UNL     1     -10.344   9.604  68.682  1.00  0.00    -0.189 OA 
BRANCH  14  15
HETATM   15  C   UNL     1     -10.650   8.692  67.614  1.00  0.00    -0.203 C  
BRANCH  15  16
HETATM   16  C   UNL     1      -9.770   7.441  67.742  1.00  0.00    -0.143 C  
HETATM   17  H   UNL     1      -9.996   5.510  67.469  1.00  0.00     0.000 HD 
HETATM   18  O   UNL     1     -10.540   6.284  67.391  1.00  0.00    -0.213 OA 
BRANCH  16  19
HETATM   19  C   UNL     1      -8.519   7.499  66.841  1.00  0.00    -0.122 C  
BRANCH  19  20
HETATM   20  N   UNL     1      -8.503   8.694  65.992  1.00  0.00    -0.133 NA 
HETATM   21  H   UNL     1      -7.906   9.415  66.397  1.00  0.00     0.000 HD 
BRANCH  20  22
HETATM   22  C   UNL     1      -8.119   8.424  64.600  1.00  0.00    -0.156 C  
HETATM   23  C   UNL     1      -7.459   9.633  63.922  1.00  0.00    -0.123 C  
HETATM   24  C   UNL     1      -7.135   7.253  64.602  1.00  0.00    -0.057 C  
ENDBRANCH  20  22
ENDBRANCH  19  20
ENDBRANCH  16  19
ENDBRANCH  15  16
ENDBRANCH  14  15
ENDBRANCH  11  14
BRANCH  12  25
HETATM   25  C   UNL     1      -7.859  11.070  68.328  1.00  0.00    -0.121 C  
HETATM   26  C   UNL     1      -7.309  10.658  69.667  1.00  0.00    -0.133 C  
HETATM   27  O   UNL     1      -7.164  10.970  67.316  1.00  0.00    -0.091 OA 
ENDBRANCH  12  25
ENDBRANCH   6   8
ENDBRANCH   3   4
ENDBRANCH   2   3
TORSDOF 10
ENDMDL
MODEL      165
REMARK 921   NORMALIZED FREE ENERGY PREDICTED BY IDOCK:   -3.60 KCAL/MOL
REMARK 922        TOTAL FREE ENERGY PREDICTED BY IDOCK:   -6.73 KCAL/MOL
REMARK 923 INTER-LIGAND FREE ENERGY PREDICTED BY IDOCK:   -5.80 KCAL/MOL
REMARK 924 INTRA-LIGAND FREE ENERGY PREDICTED BY IDOCK:   -0.94 KCAL/MOL
REMARK 927      BINDING AFFINITY PREDICTED BY RF-SCORE:    0.00 PKD
ROOT
HETATM    1  C   UNL     1      -8.392  16.884  66.858  1.00  0.00    -0.244 C  
HETATM    2  C   UNL     1      -9.434  16.145  66.036  1.00  0.00    -0.374 C  
ENDROOT
BRANCH   2   3
HETATM    3  C   UNL     1     -10.751  16.029  66.790  1.00  0.00    -0.259 C  
BRANCH   3   4
HETATM    4  C   UNL     1     -11.232  14.596  66.807  1.00  0.00    -0.344 C  
HETATM    5  O   UNL     1     -12.346  14.316  66.373  1.00  0.00    -0.448 OA 
HETATM    6  N   UNL     1     -10.287  13.702  67.290  1.00  0.00    -0.248 N  
HETATM    7  H   UNL     1      -9.385  14.086  67.574  1.00  0.00     0.000 HD 
BRANCH   6   8
HETATM    8  C   UNL     1     -10.463  12.308  67.422  1.00  0.00    -0.210 A  
HETATM    9  C   UNL     1     -10.478  11.440  66.334  1.00  0.00    -0.299 A  
HETATM   10  C   UNL     1     -10.564  10.059  66.520  1.00  0.00    -0.165 A  
HETATM   11  C   UNL     1     -10.649   9.503  67.800  1.00  0.00    -0.261 A  
HETATM   12  C   UNL     1     -10.716  10.371  68.901  1.00  0.00    -0.255 A  
HETATM   13  C   UNL     1     -10.619  11.768  68.701  1.00  0.00    -0.250 A  
BRANCH  11  14
HETATM   14  O   UNL     1     -10.624   8.151  68.027  1.00  0.00    -0.200 OA 
BRANCH  14  15
HETATM   15  C   UNL     1     -10.300   7.306  66.910  1.00  0.00    -0.288 C  
BRANCH  15  16
HETATM   16  C   UNL     1     -10.040   5.878  67.408  1.00  0.00    -0.169 C  
HETATM   17  H   UNL     1     -10.518   4.062  66.834  1.00  0.00     0.000 HD 
HETATM   18  O   UNL     1     -10.679   4.946  66.526  1.00  0.00    -0.253 OA 
BRANCH  16  19
HETATM   19  C   UNL     1      -8.536   5.539  67.485  1.00  0.00    -0.108 C  
BRANCH  19  20
HETATM   20  N   UNL     1      -8.126   4.600  66.437  1.00  0.00    -0.103 NA 
HETATM   21  H   UNL     1      -8.939   4.143  66.024  1.00  0.00     0.000 HD 
BRANCH  20  22
HETATM   22  C   UNL     1      -7.288   5.208  65.395  1.00  0.00    -0.072 C  
HETATM   23  C   UNL     1      -8.097   5.649  64.167  1.00  0.00    -0.129 C  
HETATM   24  C   UNL     1      -6.595   6.429  66.002  1.00  0.00    -0.048 C  
ENDBRANCH  20  22
ENDBRANCH  19  20
ENDBRANCH  16  19
ENDBRANCH  15  16
ENDBRANCH  14  15
ENDBRANCH  11  14
BRANCH  12  25
HETATM   25  C   UNL     1     -10.829   9.923  70.322  1.00  0.00    -0.310 C  
HETATM   26  C   UNL     1     -12.102  10.109  71.104  1.00  0.00    -0.485 C  
HETATM   27  O   UNL     1      -9.837   9.434  70.863  1.00  0.00    -0.276 OA 
ENDBRANCH  12  25
ENDBRANCH   6   8
ENDBRANCH   3   4
ENDBRANCH   2   3
TORSDOF 10
ENDMDL
MODEL      166
REMARK 921   NORMALIZED FREE ENERGY PREDICTED BY IDOCK:   -3.60 KCAL/MOL
REMARK 922        TOTAL FREE ENERGY PREDICTED BY IDOCK:   -6.73 KCAL/MOL
REMARK 923 INTER-LIGAND FREE ENERGY PREDICTED BY IDOCK:   -5.68 KCAL/MOL
REMARK 924 INTRA-LIGAND FREE ENERGY PREDICTED BY IDOCK:   -1.05 KCAL/MOL
REMARK 927      BINDING AFFINITY PREDICTED BY RF-SCORE:    0.00 PKD
ROOT
HETATM    1  C   UNL     1      -9.844  20.374  67.033  1.00  0.00    -0.594 C  
HETATM    2  C   UNL     1      -9.129  19.322  67.862  1.00  0.00    -0.363 C  
ENDROOT
BRANCH   2   3
HETATM    3  C   UNL     1     -10.120  18.453  68.625  1.00  0.00    -0.407 C  
BRANCH   3   4
HETATM    4  C   UNL     1     -10.116  17.041  68.085  1.00  0.00    -0.308 C  
HETATM    5  O   UNL     1     -10.620  16.798  66.993  1.00  0.00    -0.305 OA 
HETATM    6  N   UNL     1      -9.459  16.137  68.909  1.00  0.00    -0.232 N  
HETATM    7  H   UNL     1      -9.052  16.502  69.771  1.00  0.00     0.000 HD 
BRANCH   6   8
HETATM    8  C   UNL     1      -9.305  14.756  68.660  1.00  0.00    -0.198 A  
HETATM    9  C   UNL     1      -8.086  14.180  68.315  1.00  0.00    -0.146 A  
HETATM   10  C   UNL     1      -7.963  12.798  68.167  1.00  0.00    -0.156 A  
HETATM   11  C   UNL     1      -9.059  11.948  68.348  1.00  0.00    -0.167 A  
HETATM   12  C   UNL     1     -10.311  12.522  68.617  1.00  0.00    -0.193 A  
HETATM   13  C   UNL     1     -10.422  13.924  68.774  1.00  0.00    -0.229 A  
BRANCH  11  14
HETATM   14  O   UNL     1      -8.952  10.581  68.319  1.00  0.00    -0.131 OA 
BRANCH  14  15
HETATM   15  C   UNL     1      -7.675  10.032  67.953  1.00  0.00    -0.090 C  
BRANCH  15  16
HETATM   16  C   UNL     1      -7.800   8.509  67.797  1.00  0.00    -0.103 C  
HETATM   17  H   UNL     1      -6.575   6.975  67.799  1.00  0.00     0.000 HD 
HETATM   18  O   UNL     1      -6.498   7.917  67.895  1.00  0.00    -0.049 OA 
BRANCH  16  19
HETATM   19  C   UNL     1      -8.718   7.875  68.863  1.00  0.00    -0.135 C  
BRANCH  19  20
HETATM   20  N   UNL     1      -8.395   8.338  70.217  1.00  0.00    -0.120 NA 
HETATM   21  H   UNL     1      -9.011   9.103  70.492  1.00  0.00     0.000 HD 
BRANCH  20  22
HETATM   22  C   UNL     1      -8.414   7.269  71.225  1.00  0.00    -0.115 C  
HETATM   23  C   UNL     1      -7.020   6.682  71.490  1.00  0.00    -0.071 C  
HETATM   24  C   UNL     1      -8.965   7.857  72.524  1.00  0.00    -0.231 C  
ENDBRANCH  20  22
ENDBRANCH  19  20
ENDBRANCH  16  19
ENDBRANCH  15  16
ENDBRANCH  14  15
ENDBRANCH  11  14
BRANCH  12  25
HETATM   25  C   UNL     1     -11.571  11.743  68.815  1.00  0.00    -0.307 C  
HETATM   26  C   UNL     1     -11.952  11.198  70.165  1.00  0.00    -0.449 C  
HETATM   27  O   UNL     1     -12.277  11.513  67.833  1.00  0.00    -0.586 OA 
ENDBRANCH  12  25
ENDBRANCH   6   8
ENDBRANCH   3   4
ENDBRANCH   2   3
TORSDOF 10
ENDMDL
MODEL      167
REMARK 921   NORMALIZED FREE ENERGY PREDICTED BY IDOCK:   -3.60 KCAL/MOL
REMARK 922        TOTAL FREE ENERGY PREDICTED BY IDOCK:   -6.73 KCAL/MOL
REMARK 923 INTER-LIGAND FREE ENERGY PREDICTED BY IDOCK:   -5.88 KCAL/MOL
REMARK 924 INTRA-LIGAND FREE ENERGY PREDICTED BY IDOCK:   -0.85 KCAL/MOL
REMARK 927      BINDING AFFINITY PREDICTED BY RF-SCORE:    0.00 PKD
ROOT
HETATM    1  C   UNL     1     -10.516  16.143  65.870  1.00  0.00    -0.366 C  
HETATM    2  C   UNL     1     -11.145  15.546  64.623  1.00  0.00    -0.373 C  
ENDROOT
BRANCH   2   3
HETATM    3  C   UNL     1     -12.518  14.960  64.923  1.00  0.00    -0.104 C  
BRANCH   3   4
HETATM    4  C   UNL     1     -12.408  13.491  65.262  1.00  0.00    -0.467 C  
HETATM    5  O   UNL     1     -13.237  12.695  64.829  1.00  0.00    -0.846 OA 
HETATM    6  N   UNL     1     -11.290  13.183  66.025  1.00  0.00    -0.300 N  
HETATM    7  H   UNL     1     -10.668  13.953  66.272  1.00  0.00     0.000 HD 
BRANCH   6   8
HETATM    8  C   UNL     1     -10.938  11.897  66.489  1.00  0.00    -0.292 A  
HETATM    9  C   UNL     1     -11.509  11.316  67.617  1.00  0.00    -0.341 A  
HETATM   10  C   UNL     1     -11.197  10.007  67.986  1.00  0.00    -0.190 A  
HETATM   11  C   UNL     1     -10.293   9.240  67.244  1.00  0.00    -0.265 A  
HETATM   12  C   UNL     1      -9.649   9.841  66.151  1.00  0.00    -0.287 A  
HETATM   13  C   UNL     1      -9.980  11.165  65.781  1.00  0.00    -0.292 A  
BRANCH  11  14
HETATM   14  O   UNL     1     -10.045   7.918  67.511  1.00  0.00    -0.178 OA 
BRANCH  14  15
HETATM   15  C   UNL     1     -10.971   6.957  66.976  1.00  0.00    -0.334 C  
BRANCH  15  16
HETATM   16  C   UNL     1     -10.568   5.549  67.435  1.00  0.00    -0.199 C  
HETATM   17  H   UNL     1     -10.309   3.797  66.587  1.00  0.00     0.000 HD 
HETATM   18  O   UNL     1     -10.559   4.668  66.304  1.00  0.00    -0.278 OA 
BRANCH  16  19
HETATM   19  C   UNL     1      -9.178   5.516  68.103  1.00  0.00    -0.109 C  
BRANCH  19  20
HETATM   20  N   UNL     1      -8.105   5.860  67.164  1.00  0.00    -0.102 NA 
HETATM   21  H   UNL     1      -8.291   6.758  66.719  1.00  0.00     0.000 HD 
BRANCH  20  22
HETATM   22  C   UNL     1      -6.766   5.849  67.770  1.00  0.00    -0.058 C  
HETATM   23  C   UNL     1      -6.766   6.362  69.217  1.00  0.00    -0.049 C  
HETATM   24  C   UNL     1      -6.253   4.409  67.750  1.00  0.00    -0.036 C  
ENDBRANCH  20  22
ENDBRANCH  19  20
ENDBRANCH  16  19
ENDBRANCH  15  16
ENDBRANCH  14  15
ENDBRANCH  11  14
BRANCH  12  25
HETATM   25  C   UNL     1      -8.647   9.153  65.281  1.00  0.00    -0.167 C  
HETATM   26  C   UNL     1      -8.767   9.175  63.780  1.00  0.00    -0.150 C  
HETATM   27  O   UNL     1      -7.737   8.523  65.820  1.00  0.00    -0.093 OA 
ENDBRANCH  12  25
ENDBRANCH   6   8
ENDBRANCH   3   4
ENDBRANCH   2   3
TORSDOF 10
ENDMDL
MODEL      168
REMARK 921   NORMALIZED FREE ENERGY PREDICTED BY IDOCK:   -3.56 KCAL/MOL
REMARK 922        TOTAL FREE ENERGY PREDICTED BY IDOCK:   -6.67 KCAL/MOL
REMARK 923 INTER-LIGAND FREE ENERGY PREDICTED BY IDOCK:   -5.33 KCAL/MOL
REMARK 924 INTRA-LIGAND FREE ENERGY PREDICTED BY IDOCK:   -1.34 KCAL/MOL
REMARK 927      BINDING AFFINITY PREDICTED BY RF-SCORE:    0.00 PKD
ROOT
HETATM    1  C   UNL     1      -6.279   9.232  62.423  1.00  0.00    -0.093 C  
HETATM    2  C   UNL     1      -7.411   8.637  63.242  1.00  0.00    -0.106 C  
ENDROOT
BRANCH   2   3
HETATM    3  C   UNL     1      -8.769   9.051  62.689  1.00  0.00    -0.177 C  
BRANCH   3   4
HETATM    4  C   UNL     1      -9.429  10.062  63.598  1.00  0.00    -0.197 C  
HETATM    5  O   UNL     1     -10.166  10.924  63.128  1.00  0.00    -0.320 OA 
HETATM    6  N   UNL     1      -9.152   9.858  64.943  1.00  0.00    -0.206 N  
HETATM    7  H   UNL     1      -8.552   9.068  65.181  1.00  0.00     0.000 HD 
BRANCH   6   8
HETATM    8  C   UNL     1      -9.629  10.649  66.011  1.00  0.00    -0.198 A  
HETATM    9  C   UNL     1     -10.954  10.629  66.436  1.00  0.00    -0.056 A  
HETATM   10  C   UNL     1     -11.359  11.359  67.555  1.00  0.00    -0.362 A  
HETATM   11  C   UNL     1     -10.454  12.142  68.277  1.00  0.00    -0.213 A  
HETATM   12  C   UNL     1      -9.132  12.234  67.812  1.00  0.00    -0.191 A  
HETATM   13  C   UNL     1      -8.731  11.483  66.683  1.00  0.00    -0.182 A  
BRANCH  11  14
HETATM   14  O   UNL     1     -10.790  12.784  69.442  1.00  0.00    -0.064 OA 
BRANCH  14  15
HETATM   15  C   UNL     1     -12.049  13.476  69.467  1.00  0.00    -0.297 C  
BRANCH  15  16
HETATM   16  C   UNL     1     -11.803  14.989  69.380  1.00  0.00    -0.329 C  
HETATM   17  H   UNL     1     -10.575  16.280  70.205  1.00  0.00     0.000 HD 
HETATM   18  O   UNL     1     -10.728  15.344  70.259  1.00  0.00    -0.295 OA 
BRANCH  16  19
HETATM   19  C   UNL     1     -11.451  15.452  67.951  1.00  0.00    -0.299 C  
BRANCH  19  20
HETATM   20  N   UNL     1     -12.221  14.734  66.930  1.00  0.00    -0.365 NA 
HETATM   21  H   UNL     1     -13.060  15.256  66.678  1.00  0.00     0.000 HD 
BRANCH  20  22
HETATM   22  C   UNL     1     -11.441  14.395  65.732  1.00  0.00    -0.335 C  
HETATM   23  C   UNL     1     -12.101  14.888  64.437  1.00  0.00    -0.417 C  
HETATM   24  C   UNL     1     -10.063  15.045  65.870  1.00  0.00    -0.343 C  
ENDBRANCH  20  22
ENDBRANCH  19  20
ENDBRANCH  16  19
ENDBRANCH  15  16
ENDBRANCH  14  15
ENDBRANCH  11  14
BRANCH  12  25
HETATM   25  C   UNL     1      -8.063  13.046  68.468  1.00  0.00    -0.082 C  
HETATM   26  C   UNL     1      -6.859  12.395  69.096  1.00  0.00    -0.069 C  
HETATM   27  O   UNL     1      -8.207  14.267  68.527  1.00  0.00    -0.139 OA 
ENDBRANCH  12  25
ENDBRANCH   6   8
ENDBRANCH   3   4
ENDBRANCH   2   3
TORSDOF 10
ENDMDL
MODEL      169
REMARK 921   NORMALIZED FREE ENERGY PREDICTED BY IDOCK:   -3.56 KCAL/MOL
REMARK 922        TOTAL FREE ENERGY PREDICTED BY IDOCK:   -6.67 KCAL/MOL
REMARK 923 INTER-LIGAND FREE ENERGY PREDICTED BY IDOCK:   -5.65 KCAL/MOL
REMARK 924 INTRA-LIGAND FREE ENERGY PREDICTED BY IDOCK:   -1.03 KCAL/MOL
REMARK 927      BINDING AFFINITY PREDICTED BY RF-SCORE:    0.00 PKD
ROOT
HETATM    1  C   UNL     1     -10.602  12.718  64.172  1.00  0.00    -0.441 C  
HETATM    2  C   UNL     1     -11.680  12.624  65.238  1.00  0.00    -0.417 C  
ENDROOT
BRANCH   2   3
HETATM    3  C   UNL     1     -11.203  13.209  66.560  1.00  0.00    -0.339 C  
BRANCH   3   4
HETATM    4  C   UNL     1     -11.226  12.159  67.647  1.00  0.00    -0.286 C  
HETATM    5  O   UNL     1     -12.284  11.618  67.957  1.00  0.00    -0.551 OA 
HETATM    6  N   UNL     1      -9.971  11.872  68.164  1.00  0.00    -0.192 N  
HETATM    7  H   UNL     1      -9.178  12.379  67.771  1.00  0.00     0.000 HD 
BRANCH   6   8
HETATM    8  C   UNL     1      -9.695  10.940  69.188  1.00  0.00    -0.122 A  
HETATM    9  C   UNL     1     -10.672  10.449  70.048  1.00  0.00    -0.321 A  
HETATM   10  C   UNL     1     -10.370   9.460  70.987  1.00  0.00    -0.382 A  
HETATM   11  C   UNL     1      -9.077   8.940  71.102  1.00  0.00    -0.249 A  
HETATM   12  C   UNL     1      -8.065   9.483  70.295  1.00  0.00    -0.200 A  
HETATM   13  C   UNL     1      -8.385  10.478  69.342  1.00  0.00    -0.117 A  
BRANCH  11  14
HETATM   14  O   UNL     1      -8.768   7.894  71.934  1.00  0.00    -0.114 OA 
BRANCH  14  15
HETATM   15  C   UNL     1      -9.808   7.423  72.807  1.00  0.00    -0.189 C  
BRANCH  15  16
HETATM   16  C   UNL     1      -9.717   5.896  72.934  1.00  0.00    -0.155 C  
HETATM   17  H   UNL     1     -10.981   4.408  73.145  1.00  0.00     0.000 HD 
HETATM   18  O   UNL     1     -11.037   5.354  73.067  1.00  0.00    -0.272 OA 
BRANCH  16  19
HETATM   19  C   UNL     1      -9.028   5.239  71.719  1.00  0.00    -0.135 C  
BRANCH  19  20
HETATM   20  N   UNL     1      -9.988   4.570  70.834  1.00  0.00    -0.205 NA 
HETATM   21  H   UNL     1     -10.919   4.568  71.249  1.00  0.00     0.000 HD 
BRANCH  20  22
HETATM   22  C   UNL     1     -10.026   5.130  69.476  1.00  0.00    -0.231 C  
HETATM   23  C   UNL     1     -11.133   6.179  69.299  1.00  0.00    -0.463 C  
HETATM   24  C   UNL     1      -8.671   5.782  69.198  1.00  0.00    -0.113 C  
ENDBRANCH  20  22
ENDBRANCH  19  20
ENDBRANCH  16  19
ENDBRANCH  15  16
ENDBRANCH  14  15
ENDBRANCH  11  14
BRANCH  12  25
HETATM   25  C   UNL     1      -6.638   9.042  70.323  1.00  0.00    -0.045 C  
HETATM   26  C   UNL     1      -5.662   9.607  71.320  1.00  0.00    -0.075 C  
HETATM   27  O   UNL     1      -6.258   8.233  69.476  1.00  0.00    -0.033 OA 
ENDBRANCH  12  25
ENDBRANCH   6   8
ENDBRANCH   3   4
ENDBRANCH   2   3
TORSDOF 10
ENDMDL
MODEL      170
REMARK 921   NORMALIZED FREE ENERGY PREDICTED BY IDOCK:   -3.55 KCAL/MOL
REMARK 922        TOTAL FREE ENERGY PREDICTED BY IDOCK:   -6.66 KCAL/MOL
REMARK 923 INTER-LIGAND FREE ENERGY PREDICTED BY IDOCK:   -6.07 KCAL/MOL
REMARK 924 INTRA-LIGAND FREE ENERGY PREDICTED BY IDOCK:   -0.60 KCAL/MOL
REMARK 927      BINDING AFFINITY PREDICTED BY RF-SCORE:    0.00 PKD
ROOT
HETATM    1  C   UNL     1     -12.831  16.157  73.639  1.00  0.00    -0.666 C  
HETATM    2  C   UNL     1     -12.718  14.644  73.711  1.00  0.00    -0.220 C  
ENDROOT
BRANCH   2   3
HETATM    3  C   UNL     1     -13.710  13.970  72.772  1.00  0.00    -0.435 C  
BRANCH   3   4
HETATM    4  C   UNL     1     -13.013  12.942  71.910  1.00  0.00    -0.301 C  
HETATM    5  O   UNL     1     -12.966  11.769  72.267  1.00  0.00    -0.288 OA 
HETATM    6  N   UNL     1     -12.524  13.462  70.719  1.00  0.00    -0.358 N  
HETATM    7  H   UNL     1     -12.680  14.455  70.545  1.00  0.00     0.000 HD 
BRANCH   6   8
HETATM    8  C   UNL     1     -11.829  12.736  69.728  1.00  0.00    -0.310 A  
HETATM    9  C   UNL     1     -10.975  11.678  70.023  1.00  0.00     0.244 A  
HETATM   10  C   UNL     1     -10.380  10.931  69.005  1.00  0.00    -0.230 A  
HETATM   11  C   UNL     1     -10.612  11.227  67.658  1.00  0.00    -0.213 A  
HETATM   12  C   UNL     1     -11.407  12.341  67.347  1.00  0.00    -0.389 A  
HETATM   13  C   UNL     1     -12.012  13.084  68.387  1.00  0.00    -0.309 A  
BRANCH  11  14
HETATM   14  O   UNL     1     -10.134  10.450  66.633  1.00  0.00    -0.208 OA 
BRANCH  14  15
HETATM   15  C   UNL     1     -10.243   9.025  66.787  1.00  0.00    -0.271 C  
BRANCH  15  16
HETATM   16  C   UNL     1      -9.091   8.341  66.036  1.00  0.00    -0.176 C  
HETATM   17  H   UNL     1      -7.980   8.740  64.468  1.00  0.00     0.000 HD 
HETATM   18  O   UNL     1      -8.693   9.164  64.932  1.00  0.00    -0.175 OA 
BRANCH  16  19
HETATM   19  C   UNL     1      -7.864   8.085  66.936  1.00  0.00    -0.103 C  
BRANCH  19  20
HETATM   20  N   UNL     1      -8.190   8.197  68.361  1.00  0.00    -0.128 NA 
HETATM   21  H   UNL     1      -9.164   8.469  68.487  1.00  0.00     0.000 HD 
BRANCH  20  22
HETATM   22  C   UNL     1      -7.885   6.984  69.133  1.00  0.00    -0.114 C  
HETATM   23  C   UNL     1      -7.715   5.744  68.244  1.00  0.00    -0.093 C  
HETATM   24  C   UNL     1      -6.586   7.230  69.901  1.00  0.00    -0.040 C  
ENDBRANCH  20  22
ENDBRANCH  19  20
ENDBRANCH  16  19
ENDBRANCH  15  16
ENDBRANCH  14  15
ENDBRANCH  11  14
BRANCH  12  25
HETATM   25  C   UNL     1     -11.725  12.788  65.956  1.00  0.00    -0.418 C  
HETATM   26  C   UNL     1     -10.677  13.416  65.077  1.00  0.00    -0.354 C  
HETATM   27  O   UNL     1     -12.883  12.674  65.554  1.00  0.00    -0.513 OA 
ENDBRANCH  12  25
ENDBRANCH   6   8
ENDBRANCH   3   4
ENDBRANCH   2   3
TORSDOF 10
ENDMDL
MODEL      171
REMARK 921   NORMALIZED FREE ENERGY PREDICTED BY IDOCK:   -3.53 KCAL/MOL
REMARK 922        TOTAL FREE ENERGY PREDICTED BY IDOCK:   -6.63 KCAL/MOL
REMARK 923 INTER-LIGAND FREE ENERGY PREDICTED BY IDOCK:   -5.43 KCAL/MOL
REMARK 924 INTRA-LIGAND FREE ENERGY PREDICTED BY IDOCK:   -1.20 KCAL/MOL
REMARK 927      BINDING AFFINITY PREDICTED BY RF-SCORE:    0.00 PKD
ROOT
HETATM    1  C   UNL     1      -8.675  11.042  62.335  1.00  0.00    -0.356 C  
HETATM    2  C   UNL     1      -9.710  10.389  63.234  1.00  0.00    -0.308 C  
ENDROOT
BRANCH   2   3
HETATM    3  C   UNL     1     -10.042  11.273  64.428  1.00  0.00    -0.357 C  
BRANCH   3   4
HETATM    4  C   UNL     1      -9.944  10.489  65.716  1.00  0.00    -0.258 C  
HETATM    5  O   UNL     1      -9.983  11.072  66.797  1.00  0.00    -0.192 OA 
HETATM    6  N   UNL     1      -9.868   9.116  65.522  1.00  0.00    -0.452 N  
HETATM    7  H   UNL     1      -9.890   8.780  64.559  1.00  0.00     0.000 HD 
BRANCH   6   8
HETATM    8  C   UNL     1      -9.765   8.145  66.541  1.00  0.00    -0.239 A  
HETATM    9  C   UNL     1     -10.872   7.522  67.109  1.00  0.00    -0.298 A  
HETATM   10  C   UNL     1     -10.717   6.502  68.049  1.00  0.00    -0.351 A  
HETATM   11  C   UNL     1      -9.448   6.080  68.459  1.00  0.00    -0.120 A  
HETATM   12  C   UNL     1      -8.325   6.754  67.954  1.00  0.00    -0.120 A  
HETATM   13  C   UNL     1      -8.495   7.780  66.996  1.00  0.00    -0.124 A  
BRANCH  11  14
HETATM   14  O   UNL     1      -9.254   5.010  69.295  1.00  0.00    -0.099 OA 
BRANCH  14  15
HETATM   15  C   UNL     1      -8.854   5.299  70.645  1.00  0.00    -0.130 C  
BRANCH  15  16
HETATM   16  C   UNL     1      -9.816   6.328  71.255  1.00  0.00    -0.175 C  
HETATM   17  H   UNL     1     -11.511   6.280  72.243  1.00  0.00     0.000 HD 
HETATM   18  O   UNL     1     -10.916   5.642  71.866  1.00  0.00    -0.250 OA 
BRANCH  16  19
HETATM   19  C   UNL     1      -9.137   7.224  72.312  1.00  0.00    -0.131 C  
BRANCH  19  20
HETATM   20  N   UNL     1      -9.507   8.635  72.162  1.00  0.00    -0.305 NA 
HETATM   21  H   UNL     1      -8.675   9.217  72.071  1.00  0.00     0.000 HD 
BRANCH  20  22
HETATM   22  C   UNL     1     -10.441   8.885  71.056  1.00  0.00    -0.248 C  
HETATM   23  C   UNL     1     -11.703   9.635  71.504  1.00  0.00    -0.472 C  
HETATM   24  C   UNL     1      -9.710   9.720  70.004  1.00  0.00    -0.292 C  
ENDBRANCH  20  22
ENDBRANCH  19  20
ENDBRANCH  16  19
ENDBRANCH  15  16
ENDBRANCH  14  15
ENDBRANCH  11  14
BRANCH  12  25
HETATM   25  C   UNL     1      -6.912   6.428  68.317  1.00  0.00    -0.080 C  
HETATM   26  C   UNL     1      -6.140   7.271  69.295  1.00  0.00    -0.030 C  
HETATM   27  O   UNL     1      -6.370   5.472  67.759  1.00  0.00    -0.039 OA 
ENDBRANCH  12  25
ENDBRANCH   6   8
ENDBRANCH   3   4
ENDBRANCH   2   3
TORSDOF 10
ENDMDL
MODEL      172
REMARK 921   NORMALIZED FREE ENERGY PREDICTED BY IDOCK:   -3.53 KCAL/MOL
REMARK 922        TOTAL FREE ENERGY PREDICTED BY IDOCK:   -6.62 KCAL/MOL
REMARK 923 INTER-LIGAND FREE ENERGY PREDICTED BY IDOCK:   -6.23 KCAL/MOL
REMARK 924 INTRA-LIGAND FREE ENERGY PREDICTED BY IDOCK:   -0.39 KCAL/MOL
REMARK 927      BINDING AFFINITY PREDICTED BY RF-SCORE:    0.00 PKD
ROOT
HETATM    1  C   UNL     1     -12.781  14.145  71.343  1.00  0.00    -0.439 C  
HETATM    2  C   UNL     1     -12.498  15.408  70.549  1.00  0.00    -0.468 C  
ENDROOT
BRANCH   2   3
HETATM    3  C   UNL     1     -11.290  15.229  69.638  1.00  0.00    -0.304 C  
BRANCH   3   4
HETATM    4  C   UNL     1     -11.438  13.983  68.795  1.00  0.00    -0.292 C  
HETATM    5  O   UNL     1     -12.235  13.963  67.861  1.00  0.00    -0.325 OA 
HETATM    6  N   UNL     1     -10.570  12.964  69.161  1.00  0.00    -0.441 N  
HETATM    7  H   UNL     1      -9.933  13.149  69.936  1.00  0.00     0.000 HD 
BRANCH   6   8
HETATM    8  C   UNL     1     -10.491  11.692  68.553  1.00  0.00    -0.217 A  
HETATM    9  C   UNL     1     -10.651  10.504  69.260  1.00  0.00    -0.265 A  
HETATM   10  C   UNL     1     -10.655   9.273  68.602  1.00  0.00    -0.219 A  
HETATM   11  C   UNL     1     -10.488   9.191  67.216  1.00  0.00    -0.265 A  
HETATM   12  C   UNL     1     -10.245  10.375  66.502  1.00  0.00    -0.289 A  
HETATM   13  C   UNL     1     -10.252  11.617  67.179  1.00  0.00    -0.240 A  
BRANCH  11  14
HETATM   14  O   UNL     1     -10.595   8.012  66.523  1.00  0.00    -0.187 OA 
BRANCH  14  15
HETATM   15  C   UNL     1      -9.516   7.072  66.659  1.00  0.00    -0.165 C  
BRANCH  15  16
HETATM   16  C   UNL     1     -10.038   5.788  67.319  1.00  0.00    -0.176 C  
HETATM   17  H   UNL     1      -9.576   3.880  67.280  1.00  0.00     0.000 HD 
HETATM   18  O   UNL     1      -9.253   4.675  66.871  1.00  0.00    -0.116 OA 
BRANCH  16  19
HETATM   19  C   UNL     1      -9.985   5.847  68.860  1.00  0.00    -0.157 C  
BRANCH  19  20
HETATM   20  N   UNL     1      -9.727   4.532  69.456  1.00  0.00    -0.200 NA 
HETATM   21  H   UNL     1      -9.047   4.013  68.902  1.00  0.00     0.000 HD 
BRANCH  20  22
HETATM   22  C   UNL     1      -9.311   4.594  70.864  1.00  0.00    -0.150 C  
HETATM   23  C   UNL     1      -8.009   5.382  71.062  1.00  0.00    -0.105 C  
HETATM   24  C   UNL     1     -10.431   5.271  71.656  1.00  0.00    -0.280 C  
ENDBRANCH  20  22
ENDBRANCH  19  20
ENDBRANCH  16  19
ENDBRANCH  15  16
ENDBRANCH  14  15
ENDBRANCH  11  14
BRANCH  12  25
HETATM   25  C   UNL     1     -10.027  10.438  65.025  1.00  0.00    -0.330 C  
HETATM   26  C   UNL     1      -8.866   9.737  64.373  1.00  0.00    -0.258 C  
HETATM   27  O   UNL     1     -10.798  11.120  64.348  1.00  0.00    -0.344 OA 
ENDBRANCH  12  25
ENDBRANCH   6   8
ENDBRANCH   3   4
ENDBRANCH   2   3
TORSDOF 10
ENDMDL
MODEL      173
REMARK 921   NORMALIZED FREE ENERGY PREDICTED BY IDOCK:   -3.53 KCAL/MOL
REMARK 922        TOTAL FREE ENERGY PREDICTED BY IDOCK:   -6.62 KCAL/MOL
REMARK 923 INTER-LIGAND FREE ENERGY PREDICTED BY IDOCK:   -5.49 KCAL/MOL
REMARK 924 INTRA-LIGAND FREE ENERGY PREDICTED BY IDOCK:   -1.13 KCAL/MOL
REMARK 927      BINDING AFFINITY PREDICTED BY RF-SCORE:    0.00 PKD
ROOT
HETATM    1  C   UNL     1     -11.059  15.675  68.214  1.00  0.00    -0.336 C  
HETATM    2  C   UNL     1     -11.760  14.385  67.828  1.00  0.00    -0.407 C  
ENDROOT
BRANCH   2   3
HETATM    3  C   UNL     1     -12.045  13.523  69.050  1.00  0.00    -0.330 C  
BRANCH   3   4
HETATM    4  C   UNL     1     -11.587  12.102  68.820  1.00  0.00    -0.327 C  
HETATM    5  O   UNL     1     -12.377  11.261  68.399  1.00  0.00    -0.545 OA 
HETATM    6  N   UNL     1     -10.236  11.910  69.074  1.00  0.00    -0.417 N  
HETATM    7  H   UNL     1      -9.699  12.722  69.379  1.00  0.00     0.000 HD 
BRANCH   6   8
HETATM    8  C   UNL     1      -9.540  10.688  68.948  1.00  0.00    -0.196 A  
HETATM    9  C   UNL     1      -9.505   9.729  69.955  1.00  0.00    -0.278 A  
HETATM   10  C   UNL     1      -8.880   8.497  69.752  1.00  0.00    -0.137 A  
HETATM   11  C   UNL     1      -8.259   8.191  68.537  1.00  0.00    -0.125 A  
HETATM   12  C   UNL     1      -8.216   9.180  67.541  1.00  0.00    -0.108 A  
HETATM   13  C   UNL     1      -8.861  10.421  67.756  1.00  0.00    -0.128 A  
BRANCH  11  14
HETATM   14  O   UNL     1      -7.731   6.955  68.262  1.00  0.00    -0.108 OA 
BRANCH  14  15
HETATM   15  C   UNL     1      -7.937   5.924  69.241  1.00  0.00    -0.099 C  
BRANCH  15  16
HETATM   16  C   UNL     1      -9.077   5.003  68.782  1.00  0.00    -0.109 C  
HETATM   17  H   UNL     1      -9.346   3.070  68.568  1.00  0.00     0.000 HD 
HETATM   18  O   UNL     1      -8.640   3.640  68.851  1.00  0.00    -0.078 OA 
BRANCH  16  19
HETATM   19  C   UNL     1     -10.351   5.163  69.637  1.00  0.00    -0.246 C  
BRANCH  19  20
HETATM   20  N   UNL     1     -10.113   4.846  71.049  1.00  0.00    -0.220 NA 
HETATM   21  H   UNL     1      -9.114   4.772  71.238  1.00  0.00     0.000 HD 
BRANCH  20  22
HETATM   22  C   UNL     1     -10.748   5.790  71.980  1.00  0.00    -0.233 C  
HETATM   23  C   UNL     1     -11.770   6.704  71.291  1.00  0.00    -0.386 C  
HETATM   24  C   UNL     1     -11.455   4.976  73.065  1.00  0.00    -0.344 C  
ENDBRANCH  20  22
ENDBRANCH  19  20
ENDBRANCH  16  19
ENDBRANCH  15  16
ENDBRANCH  14  15
ENDBRANCH  11  14
BRANCH  12  25
HETATM   25  C   UNL     1      -7.571   9.004  66.205  1.00  0.00    -0.092 C  
HETATM   26  C   UNL     1      -8.379   8.650  64.986  1.00  0.00    -0.181 C  
HETATM   27  O   UNL     1      -6.347   9.110  66.127  1.00  0.00    -0.062 OA 
ENDBRANCH  12  25
ENDBRANCH   6   8
ENDBRANCH   3   4
ENDBRANCH   2   3
TORSDOF 10
ENDMDL
MODEL      174
REMARK 921   NORMALIZED FREE ENERGY PREDICTED BY IDOCK:   -3.51 KCAL/MOL
REMARK 922        TOTAL FREE ENERGY PREDICTED BY IDOCK:   -6.60 KCAL/MOL
REMARK 923 INTER-LIGAND FREE ENERGY PREDICTED BY IDOCK:   -5.68 KCAL/MOL
REMARK 924 INTRA-LIGAND FREE ENERGY PREDICTED BY IDOCK:   -0.92 KCAL/MOL
REMARK 927      BINDING AFFINITY PREDICTED BY RF-SCORE:    0.00 PKD
ROOT
HETATM    1  C   UNL     1      -8.798   4.259  64.276  1.00  0.00    -0.145 C  
HETATM    2  C   UNL     1     -10.075   4.056  65.072  1.00  0.00    -0.203 C  
ENDROOT
BRANCH   2   3
HETATM    3  C   UNL     1      -9.782   3.906  66.559  1.00  0.00    -0.186 C  
BRANCH   3   4
HETATM    4  C   UNL     1      -9.416   5.240  67.167  1.00  0.00    -0.127 C  
HETATM    5  O   UNL     1      -8.265   5.451  67.541  1.00  0.00    -0.101 OA 
HETATM    6  N   UNL     1     -10.468   6.144  67.187  1.00  0.00    -0.226 N  
HETATM    7  H   UNL     1     -11.358   5.832  66.798  1.00  0.00     0.000 HD 
BRANCH   6   8
HETATM    8  C   UNL     1     -10.415   7.459  67.700  1.00  0.00    -0.241 A  
HETATM    9  C   UNL     1     -10.025   8.554  66.936  1.00  0.00    -0.335 A  
HETATM   10  C   UNL     1     -10.075   9.848  67.458  1.00  0.00    -0.244 A  
HETATM   11  C   UNL     1     -10.507  10.085  68.767  1.00  0.00    -0.208 A  
HETATM   12  C   UNL     1     -10.827   8.982  69.574  1.00  0.00    -0.177 A  
HETATM   13  C   UNL     1     -10.781   7.677  69.031  1.00  0.00    -0.134 A  
BRANCH  11  14
HETATM   14  O   UNL     1     -10.674  11.347  69.278  1.00  0.00    -0.212 OA 
BRANCH  14  15
HETATM   15  C   UNL     1     -11.348  12.306  68.446  1.00  0.00    -0.292 C  
BRANCH  15  16
HETATM   16  C   UNL     1     -11.913  13.434  69.320  1.00  0.00    -0.317 C  
HETATM   17  H   UNL     1     -12.138  13.766  71.242  1.00  0.00     0.000 HD 
HETATM   18  O   UNL     1     -11.789  13.068  70.701  1.00  0.00    -0.223 OA 
BRANCH  16  19
HETATM   19  C   UNL     1     -11.191  14.779  69.095  1.00  0.00    -0.271 C  
BRANCH  19  20
HETATM   20  N   UNL     1     -10.229  14.712  67.990  1.00  0.00    -0.229 NA 
HETATM   21  H   UNL     1     -10.593  14.138  67.231  1.00  0.00     0.000 HD 
BRANCH  20  22
HETATM   22  C   UNL     1      -9.813  16.030  67.491  1.00  0.00    -0.235 C  
HETATM   23  C   UNL     1     -10.407  17.187  68.306  1.00  0.00    -0.354 C  
HETATM   24  C   UNL     1      -8.287  16.100  67.563  1.00  0.00    -0.175 C  
ENDBRANCH  20  22
ENDBRANCH  19  20
ENDBRANCH  16  19
ENDBRANCH  15  16
ENDBRANCH  14  15
ENDBRANCH  11  14
BRANCH  12  25
HETATM   25  C   UNL     1     -11.282   9.081  70.994  1.00  0.00    -0.295 C  
HETATM   26  C   UNL     1     -12.706   9.426  71.338  1.00  0.00    -0.425 C  
HETATM   27  O   UNL     1     -10.451   8.917  71.889  1.00  0.00    -0.326 OA 
ENDBRANCH  12  25
ENDBRANCH   6   8
ENDBRANCH   3   4
ENDBRANCH   2   3
TORSDOF 10
ENDMDL
MODEL      175
REMARK 921   NORMALIZED FREE ENERGY PREDICTED BY IDOCK:   -3.49 KCAL/MOL
REMARK 922        TOTAL FREE ENERGY PREDICTED BY IDOCK:   -6.56 KCAL/MOL
REMARK 923 INTER-LIGAND FREE ENERGY PREDICTED BY IDOCK:   -5.41 KCAL/MOL
REMARK 924 INTRA-LIGAND FREE ENERGY PREDICTED BY IDOCK:   -1.15 KCAL/MOL
REMARK 927      BINDING AFFINITY PREDICTED BY RF-SCORE:    0.00 PKD
ROOT
HETATM    1  C   UNL     1      -6.052   3.275  62.984  1.00  0.00    -0.014 C  
HETATM    2  C   UNL     1      -6.312   4.236  64.131  1.00  0.00    -0.034 C  
ENDROOT
BRANCH   2   3
HETATM    3  C   UNL     1      -7.759   4.710  64.138  1.00  0.00    -0.078 C  
BRANCH   3   4
HETATM    4  C   UNL     1      -8.063   5.475  65.405  1.00  0.00    -0.123 C  
HETATM    5  O   UNL     1      -7.650   5.065  66.486  1.00  0.00    -0.086 OA 
HETATM    6  N   UNL     1      -8.770   6.649  65.185  1.00  0.00    -0.359 N  
HETATM    7  H   UNL     1      -9.006   6.877  64.219  1.00  0.00     0.000 HD 
BRANCH   6   8
HETATM    8  C   UNL     1      -9.193   7.556  66.181  1.00  0.00    -0.105 A  
HETATM    9  C   UNL     1     -10.328   7.350  66.960  1.00  0.00    -0.384 A  
HETATM   10  C   UNL     1     -10.656   8.228  67.994  1.00  0.00    -0.188 A  
HETATM   11  C   UNL     1      -9.865   9.346  68.275  1.00  0.00    -0.160 A  
HETATM   12  C   UNL     1      -8.763   9.609  67.446  1.00  0.00    -0.130 A  
HETATM   13  C   UNL     1      -8.435   8.708  66.407  1.00  0.00    -0.117 A  
BRANCH  11  14
HETATM   14  O   UNL     1     -10.094  10.168  69.350  1.00  0.00    -0.205 OA 
BRANCH  14  15
HETATM   15  C   UNL     1     -11.320   9.973  70.073  1.00  0.00    -0.275 C  
BRANCH  15  16
HETATM   16  C   UNL     1     -12.226  11.198  69.884  1.00  0.00    -0.314 C  
HETATM   17  H   UNL     1     -13.073  12.533  71.047  1.00  0.00     0.000 HD 
HETATM   18  O   UNL     1     -12.513  11.775  71.164  1.00  0.00    -0.358 OA 
BRANCH  16  19
HETATM   19  C   UNL     1     -11.587  12.276  68.984  1.00  0.00    -0.316 C  
BRANCH  19  20
HETATM   20  N   UNL     1     -11.853  12.038  67.561  1.00  0.00    -0.574 NA 
HETATM   21  H   UNL     1     -12.799  11.682  67.427  1.00  0.00     0.000 HD 
BRANCH  20  22
HETATM   22  C   UNL     1     -11.614  13.213  66.712  1.00  0.00    -0.366 C  
HETATM   23  C   UNL     1     -12.637  13.338  65.574  1.00  0.00    -0.505 C  
HETATM   24  C   UNL     1     -11.695  14.457  67.597  1.00  0.00    -0.421 C  
ENDBRANCH  20  22
ENDBRANCH  19  20
ENDBRANCH  16  19
ENDBRANCH  15  16
ENDBRANCH  14  15
ENDBRANCH  11  14
BRANCH  12  25
HETATM   25  C   UNL     1      -7.842  10.774  67.613  1.00  0.00    -0.109 C  
HETATM   26  C   UNL     1      -8.106  12.087  66.925  1.00  0.00    -0.127 C  
HETATM   27  O   UNL     1      -6.827  10.626  68.295  1.00  0.00    -0.066 OA 
ENDBRANCH  12  25
ENDBRANCH   6   8
ENDBRANCH   3   4
ENDBRANCH   2   3
TORSDOF 10
ENDMDL
MODEL      176
REMARK 921   NORMALIZED FREE ENERGY PREDICTED BY IDOCK:   -3.48 KCAL/MOL
REMARK 922        TOTAL FREE ENERGY PREDICTED BY IDOCK:   -6.55 KCAL/MOL
REMARK 923 INTER-LIGAND FREE ENERGY PREDICTED BY IDOCK:   -5.68 KCAL/MOL
REMARK 924 INTRA-LIGAND FREE ENERGY PREDICTED BY IDOCK:   -0.87 KCAL/MOL
REMARK 927      BINDING AFFINITY PREDICTED BY RF-SCORE:    0.00 PKD
ROOT
HETATM    1  C   UNL     1      -9.495   3.816  64.973  1.00  0.00    -0.167 C  
HETATM    2  C   UNL     1      -8.561   3.727  66.168  1.00  0.00    -0.113 C  
ENDROOT
BRANCH   2   3
HETATM    3  C   UNL     1      -9.173   4.387  67.397  1.00  0.00    -0.162 C  
BRANCH   3   4
HETATM    4  C   UNL     1      -9.027   5.890  67.324  1.00  0.00    -0.108 C  
HETATM    5  O   UNL     1      -7.921   6.393  67.145  1.00  0.00    -0.109 OA 
HETATM    6  N   UNL     1     -10.234   6.567  67.420  1.00  0.00    -0.155 N  
HETATM    7  H   UNL     1     -11.078   6.003  67.524  1.00  0.00     0.000 HD 
BRANCH   6   8
HETATM    8  C   UNL     1     -10.398   7.969  67.387  1.00  0.00    -0.284 A  
HETATM    9  C   UNL     1     -10.896   8.699  68.462  1.00  0.00     0.003 A  
HETATM   10  C   UNL     1     -10.955  10.092  68.417  1.00  0.00    -0.293 A  
HETATM   11  C   UNL     1     -10.527  10.800  67.290  1.00  0.00    -0.237 A  
HETATM   12  C   UNL     1     -10.097  10.073  66.168  1.00  0.00    -0.317 A  
HETATM   13  C   UNL     1     -10.034   8.661  66.229  1.00  0.00    -0.287 A  
BRANCH  11  14
HETATM   14  O   UNL     1     -10.467  12.170  67.250  1.00  0.00    -0.214 OA 
BRANCH  14  15
HETATM   15  C   UNL     1     -11.696  12.872  66.999  1.00  0.00    -0.385 C  
BRANCH  15  16
HETATM   16  C   UNL     1     -11.955  13.872  68.135  1.00  0.00    -0.350 C  
HETATM   17  H   UNL     1     -11.488  14.017  70.036  1.00  0.00     0.000 HD 
HETATM   18  O   UNL     1     -11.328  13.398  69.334  1.00  0.00    -0.260 OA 
BRANCH  16  19
HETATM   19  C   UNL     1     -11.419  15.284  67.817  1.00  0.00    -0.303 C  
BRANCH  19  20
HETATM   20  N   UNL     1      -9.976  15.395  68.057  1.00  0.00    -0.220 NA 
HETATM   21  H   UNL     1      -9.471  14.668  67.550  1.00  0.00     0.000 HD 
BRANCH  20  22
HETATM   22  C   UNL     1      -9.428  16.722  67.745  1.00  0.00    -0.228 C  
HETATM   23  C   UNL     1      -9.379  17.004  66.237  1.00  0.00    -0.276 C  
HETATM   24  C   UNL     1     -10.315  17.768  68.421  1.00  0.00    -0.378 C  
ENDBRANCH  20  22
ENDBRANCH  19  20
ENDBRANCH  16  19
ENDBRANCH  15  16
ENDBRANCH  14  15
ENDBRANCH  11  14
BRANCH  12  25
HETATM   25  C   UNL     1      -9.632  10.692  64.890  1.00  0.00    -0.269 C  
HETATM   26  C   UNL     1     -10.609  11.214  63.871  1.00  0.00    -0.431 C  
HETATM   27  O   UNL     1      -8.422  10.726  64.662  1.00  0.00    -0.133 OA 
ENDBRANCH  12  25
ENDBRANCH   6   8
ENDBRANCH   3   4
ENDBRANCH   2   3
TORSDOF 10
ENDMDL
MODEL      177
REMARK 921   NORMALIZED FREE ENERGY PREDICTED BY IDOCK:   -3.46 KCAL/MOL
REMARK 922        TOTAL FREE ENERGY PREDICTED BY IDOCK:   -6.52 KCAL/MOL
REMARK 923 INTER-LIGAND FREE ENERGY PREDICTED BY IDOCK:   -6.44 KCAL/MOL
REMARK 924 INTRA-LIGAND FREE ENERGY PREDICTED BY IDOCK:   -0.08 KCAL/MOL
REMARK 927      BINDING AFFINITY PREDICTED BY RF-SCORE:    0.00 PKD
ROOT
HETATM    1  C   UNL     1     -10.170   7.975  71.157  1.00  0.00    -0.225 C  
HETATM    2  C   UNL     1     -10.279   7.923  69.644  1.00  0.00    -0.207 C  
ENDROOT
BRANCH   2   3
HETATM    3  C   UNL     1     -11.052   9.119  69.104  1.00  0.00     0.036 C  
BRANCH   3   4
HETATM    4  C   UNL     1     -10.107  10.231  68.711  1.00  0.00    -0.187 C  
HETATM    5  O   UNL     1      -8.894  10.046  68.737  1.00  0.00    -0.125 OA 
HETATM    6  N   UNL     1     -10.756  11.385  68.292  1.00  0.00    -0.192 N  
HETATM    7  H   UNL     1     -11.776  11.369  68.286  1.00  0.00     0.000 HD 
BRANCH   6   8
HETATM    8  C   UNL     1     -10.128  12.577  67.873  1.00  0.00    -0.214 A  
HETATM    9  C   UNL     1      -8.931  13.034  68.416  1.00  0.00    -0.126 A  
HETATM   10  C   UNL     1      -8.300  14.171  67.908  1.00  0.00    -0.162 A  
HETATM   11  C   UNL     1      -8.854  14.894  66.846  1.00  0.00    -0.258 A  
HETATM   12  C   UNL     1     -10.101  14.491  66.343  1.00  0.00    -0.293 A  
HETATM   13  C   UNL     1     -10.725  13.332  66.860  1.00  0.00    -0.274 A  
BRANCH  11  14
HETATM   14  O   UNL     1      -8.211  15.949  66.250  1.00  0.00    -0.274 OA 
BRANCH  14  15
HETATM   15  C   UNL     1      -6.984  16.393  66.853  1.00  0.00    -0.212 C  
BRANCH  15  16
HETATM   16  C   UNL     1      -6.790  17.890  66.573  1.00  0.00    -0.224 C  
HETATM   17  H   UNL     1      -7.288  19.147  65.149  1.00  0.00     0.000 HD 
HETATM   18  O   UNL     1      -7.408  18.220  65.322  1.00  0.00    -0.447 OA 
BRANCH  16  19
HETATM   19  C   UNL     1      -7.390  18.784  67.677  1.00  0.00    -0.224 C  
BRANCH  19  20
HETATM   20  N   UNL     1      -8.610  19.467  67.234  1.00  0.00    -0.291 NA 
HETATM   21  H   UNL     1      -8.491  19.841  66.293  1.00  0.00     0.000 HD 
BRANCH  20  22
HETATM   22  C   UNL     1      -9.815  18.630  67.313  1.00  0.00    -0.318 C  
HETATM   23  C   UNL     1     -10.136  18.188  68.747  1.00  0.00    -0.392 C  
HETATM   24  C   UNL     1     -10.989  19.444  66.766  1.00  0.00    -0.372 C  
ENDBRANCH  20  22
ENDBRANCH  19  20
ENDBRANCH  16  19
ENDBRANCH  15  16
ENDBRANCH  14  15
ENDBRANCH  11  14
BRANCH  12  25
HETATM   25  C   UNL     1     -10.821  15.177  65.227  1.00  0.00    -0.400 C  
HETATM   26  C   UNL     1     -11.868  14.463  64.414  1.00  0.00    -0.433 C  
HETATM   27  O   UNL     1     -10.508  16.336  64.952  1.00  0.00    -0.624 OA 
ENDBRANCH  12  25
ENDBRANCH   6   8
ENDBRANCH   3   4
ENDBRANCH   2   3
TORSDOF 10
ENDMDL
MODEL      178
REMARK 921   NORMALIZED FREE ENERGY PREDICTED BY IDOCK:   -3.46 KCAL/MOL
REMARK 922        TOTAL FREE ENERGY PREDICTED BY IDOCK:   -6.52 KCAL/MOL
REMARK 923 INTER-LIGAND FREE ENERGY PREDICTED BY IDOCK:   -5.80 KCAL/MOL
REMARK 924 INTRA-LIGAND FREE ENERGY PREDICTED BY IDOCK:   -0.72 KCAL/MOL
REMARK 927      BINDING AFFINITY PREDICTED BY RF-SCORE:    0.00 PKD
ROOT
HETATM    1  C   UNL     1      -5.194   7.066  68.318  1.00  0.00    -0.019 C  
HETATM    2  C   UNL     1      -6.383   6.123  68.268  1.00  0.00    -0.043 C  
ENDROOT
BRANCH   2   3
HETATM    3  C   UNL     1      -7.576   6.699  69.019  1.00  0.00    -0.101 C  
BRANCH   3   4
HETATM    4  C   UNL     1      -8.536   7.367  68.063  1.00  0.00    -0.122 C  
HETATM    5  O   UNL     1      -9.543   6.774  67.686  1.00  0.00    -0.125 OA 
HETATM    6  N   UNL     1      -8.177   8.669  67.740  1.00  0.00    -0.117 N  
HETATM    7  H   UNL     1      -7.329   9.038  68.170  1.00  0.00     0.000 HD 
BRANCH   6   8
HETATM    8  C   UNL     1      -8.883   9.527  66.870  1.00  0.00    -0.127 A  
HETATM    9  C   UNL     1      -9.942  10.327  67.289  1.00  0.00    -0.233 A  
HETATM   10  C   UNL     1     -10.551  11.227  66.413  1.00  0.00    -0.316 A  
HETATM   11  C   UNL     1     -10.127  11.347  65.086  1.00  0.00    -0.271 A  
HETATM   12  C   UNL     1      -9.115  10.489  64.628  1.00  0.00    -0.248 A  
HETATM   13  C   UNL     1      -8.499   9.588  65.528  1.00  0.00    -0.150 A  
BRANCH  11  14
HETATM   14  O   UNL     1     -10.627  12.294  64.228  1.00  0.00    -0.305 OA 
BRANCH  14  15
HETATM   15  C   UNL     1     -12.049  12.502  64.240  1.00  0.00    -0.428 C  
BRANCH  15  16
HETATM   16  C   UNL     1     -12.346  13.994  64.443  1.00  0.00    -0.367 C  
HETATM   17  H   UNL     1     -13.393  15.078  65.702  1.00  0.00     0.000 HD 
HETATM   18  O   UNL     1     -13.210  14.154  65.575  1.00  0.00    -0.688 OA 
BRANCH  16  19
HETATM   19  C   UNL     1     -11.068  14.830  64.669  1.00  0.00    -0.325 C  
BRANCH  19  20
HETATM   20  N   UNL     1     -10.664  14.852  66.079  1.00  0.00    -0.312 NA 
HETATM   21  H   UNL     1      -9.828  14.286  66.222  1.00  0.00     0.000 HD 
BRANCH  20  22
HETATM   22  C   UNL     1     -10.474  16.206  66.616  1.00  0.00    -0.300 C  
HETATM   23  C   UNL     1     -10.571  16.254  68.147  1.00  0.00    -0.307 C  
HETATM   24  C   UNL     1      -9.088  16.691  66.188  1.00  0.00    -0.318 C  
ENDBRANCH  20  22
ENDBRANCH  19  20
ENDBRANCH  16  19
ENDBRANCH  15  16
ENDBRANCH  14  15
ENDBRANCH  11  14
BRANCH  12  25
HETATM   25  C   UNL     1      -8.576  10.489  63.234  1.00  0.00    -0.179 C  
HETATM   26  C   UNL     1      -7.178  10.018  62.935  1.00  0.00    -0.129 C  
HETATM   27  O   UNL     1      -9.288  10.928  62.331  1.00  0.00    -0.266 OA 
ENDBRANCH  12  25
ENDBRANCH   6   8
ENDBRANCH   3   4
ENDBRANCH   2   3
TORSDOF 10
ENDMDL
MODEL      179
REMARK 921   NORMALIZED FREE ENERGY PREDICTED BY IDOCK:   -3.46 KCAL/MOL
REMARK 922        TOTAL FREE ENERGY PREDICTED BY IDOCK:   -6.51 KCAL/MOL
REMARK 923 INTER-LIGAND FREE ENERGY PREDICTED BY IDOCK:   -5.47 KCAL/MOL
REMARK 924 INTRA-LIGAND FREE ENERGY PREDICTED BY IDOCK:   -1.03 KCAL/MOL
REMARK 927      BINDING AFFINITY PREDICTED BY RF-SCORE:    0.00 PKD
ROOT
HETATM    1  C   UNL     1      -5.704  19.134  65.454  1.00  0.00    -0.219 C  
HETATM    2  C   UNL     1      -6.561  20.319  65.862  1.00  0.00    -0.264 C  
ENDROOT
BRANCH   2   3
HETATM    3  C   UNL     1      -8.041  19.962  65.849  1.00  0.00    -0.262 C  
BRANCH   3   4
HETATM    4  C   UNL     1      -8.337  18.881  66.863  1.00  0.00    -0.280 C  
HETATM    5  O   UNL     1      -8.124  19.081  68.056  1.00  0.00    -0.278 OA 
HETATM    6  N   UNL     1      -8.897  17.740  66.306  1.00  0.00    -0.216 N  
HETATM    7  H   UNL     1      -9.053  17.742  65.297  1.00  0.00     0.000 HD 
BRANCH   6   8
HETATM    8  C   UNL     1      -9.270  16.575  67.012  1.00  0.00    -0.218 A  
HETATM    9  C   UNL     1     -10.580  16.311  67.399  1.00  0.00    -0.307 A  
HETATM   10  C   UNL     1     -10.916  15.105  68.015  1.00  0.00    -0.295 A  
HETATM   11  C   UNL     1      -9.949  14.128  68.273  1.00  0.00    -0.241 A  
HETATM   12  C   UNL     1      -8.611  14.415  67.961  1.00  0.00    -0.166 A  
HETATM   13  C   UNL     1      -8.284  15.637  67.328  1.00  0.00    -0.218 A  
BRANCH  11  14
HETATM   14  O   UNL     1     -10.259  12.890  68.776  1.00  0.00    -0.197 OA 
BRANCH  14  15
HETATM   15  C   UNL     1     -10.730  11.904  67.841  1.00  0.00    -0.204 C  
BRANCH  15  16
HETATM   16  C   UNL     1      -9.859  10.644  67.947  1.00  0.00    -0.161 C  
HETATM   17  H   UNL     1      -8.828   9.740  69.352  1.00  0.00     0.000 HD 
HETATM   18  O   UNL     1      -9.367  10.521  69.287  1.00  0.00    -0.199 OA 
BRANCH  16  19
HETATM   19  C   UNL     1     -10.627   9.358  67.577  1.00  0.00    -0.267 C  
BRANCH  19  20
HETATM   20  N   UNL     1     -10.719   8.425  68.705  1.00  0.00    -0.413 NA 
HETATM   21  H   UNL     1     -11.647   8.461  69.127  1.00  0.00     0.000 HD 
BRANCH  20  22
HETATM   22  C   UNL     1     -10.359   7.043  68.358  1.00  0.00    -0.193 C  
HETATM   23  C   UNL     1     -10.851   6.636  66.963  1.00  0.00    -0.467 C  
HETATM   24  C   UNL     1      -8.835   6.928  68.405  1.00  0.00    -0.123 C  
ENDBRANCH  20  22
ENDBRANCH  19  20
ENDBRANCH  16  19
ENDBRANCH  15  16
ENDBRANCH  14  15
ENDBRANCH  11  14
BRANCH  12  25
HETATM   25  C   UNL     1      -7.471  13.478  68.198  1.00  0.00    -0.132 C  
HETATM   26  C   UNL     1      -7.008  12.522  67.131  1.00  0.00    -0.060 C  
HETATM   27  O   UNL     1      -6.940  13.470  69.309  1.00  0.00    -0.091 OA 
ENDBRANCH  12  25
ENDBRANCH   6   8
ENDBRANCH   3   4
ENDBRANCH   2   3
TORSDOF 10
ENDMDL
MODEL      180
REMARK 921   NORMALIZED FREE ENERGY PREDICTED BY IDOCK:   -3.45 KCAL/MOL
REMARK 922        TOTAL FREE ENERGY PREDICTED BY IDOCK:   -6.50 KCAL/MOL
REMARK 923 INTER-LIGAND FREE ENERGY PREDICTED BY IDOCK:   -6.54 KCAL/MOL
REMARK 924 INTRA-LIGAND FREE ENERGY PREDICTED BY IDOCK:    0.05 KCAL/MOL
REMARK 927      BINDING AFFINITY PREDICTED BY RF-SCORE:    0.00 PKD
ROOT
HETATM    1  C   UNL     1     -10.969  15.380  64.960  1.00  0.00    -0.450 C  
HETATM    2  C   UNL     1      -9.933  15.540  66.059  1.00  0.00    -0.356 C  
ENDROOT
BRANCH   2   3
HETATM    3  C   UNL     1     -10.580  15.963  67.371  1.00  0.00    -0.315 C  
BRANCH   3   4
HETATM    4  C   UNL     1     -11.209  14.776  68.062  1.00  0.00    -0.299 C  
HETATM    5  O   UNL     1     -12.377  14.830  68.438  1.00  0.00    -0.116 OA 
HETATM    6  N   UNL     1     -10.365  13.678  68.152  1.00  0.00    -0.239 N  
HETATM    7  H   UNL     1      -9.431  13.774  67.752  1.00  0.00     0.000 HD 
BRANCH   6   8
HETATM    8  C   UNL     1     -10.684  12.439  68.749  1.00  0.00    -0.209 A  
HETATM    9  C   UNL     1     -10.044  11.250  68.414  1.00  0.00    -0.202 A  
HETATM   10  C   UNL     1     -10.330  10.065  69.095  1.00  0.00    -0.233 A  
HETATM   11  C   UNL     1     -11.274  10.031  70.126  1.00  0.00    -0.304 A  
HETATM   12  C   UNL     1     -11.985  11.206  70.419  1.00  0.00    -0.469 A  
HETATM   13  C   UNL     1     -11.680  12.402  69.728  1.00  0.00    -0.361 A  
BRANCH  11  14
HETATM   14  O   UNL     1     -11.502   8.914  70.889  1.00  0.00    -0.275 OA 
BRANCH  14  15
HETATM   15  C   UNL     1     -10.476   8.540  71.824  1.00  0.00    -0.300 C  
BRANCH  15  16
HETATM   16  C   UNL     1     -10.507   7.020  72.035  1.00  0.00    -0.208 C  
HETATM   17  H   UNL     1     -11.048   5.794  73.470  1.00  0.00     0.000 HD 
HETATM   18  O   UNL     1     -11.028   6.735  73.340  1.00  0.00    -0.266 OA 
BRANCH  16  19
HETATM   19  C   UNL     1     -11.369   6.290  70.984  1.00  0.00    -0.316 C  
BRANCH  19  20
HETATM   20  N   UNL     1     -10.602   5.286  70.239  1.00  0.00    -0.260 NA 
HETATM   21  H   UNL     1     -10.487   5.570  69.267  1.00  0.00     0.000 HD 
BRANCH  20  22
HETATM   22  C   UNL     1      -9.302   4.969  70.845  1.00  0.00    -0.151 C  
HETATM   23  C   UNL     1      -9.263   3.564  71.462  1.00  0.00    -0.193 C  
HETATM   24  C   UNL     1      -8.238   5.065  69.751  1.00  0.00    -0.077 C  
ENDBRANCH  20  22
ENDBRANCH  19  20
ENDBRANCH  16  19
ENDBRANCH  15  16
ENDBRANCH  14  15
ENDBRANCH  11  14
BRANCH  12  25
HETATM   25  C   UNL     1     -13.035  11.314  71.477  1.00  0.00    -0.415 C  
HETATM   26  C   UNL     1     -13.823  10.112  71.924  1.00  0.00    -0.066 C  
HETATM   27  O   UNL     1     -13.277  12.424  71.951  1.00  0.00    -0.464 OA 
ENDBRANCH  12  25
ENDBRANCH   6   8
ENDBRANCH   3   4
ENDBRANCH   2   3
TORSDOF 10
ENDMDL
MODEL      181
REMARK 921   NORMALIZED FREE ENERGY PREDICTED BY IDOCK:   -3.44 KCAL/MOL
REMARK 922        TOTAL FREE ENERGY PREDICTED BY IDOCK:   -6.49 KCAL/MOL
REMARK 923 INTER-LIGAND FREE ENERGY PREDICTED BY IDOCK:   -5.74 KCAL/MOL
REMARK 924 INTRA-LIGAND FREE ENERGY PREDICTED BY IDOCK:   -0.75 KCAL/MOL
REMARK 927      BINDING AFFINITY PREDICTED BY RF-SCORE:    0.00 PKD
ROOT
HETATM    1  C   UNL     1     -10.782  19.397  65.707  1.00  0.00    -0.458 C  
HETATM    2  C   UNL     1      -9.674  19.234  66.732  1.00  0.00    -0.413 C  
ENDROOT
BRANCH   2   3
HETATM    3  C   UNL     1     -10.012  18.146  67.743  1.00  0.00    -0.334 C  
BRANCH   3   4
HETATM    4  C   UNL     1      -9.396  16.828  67.334  1.00  0.00    -0.233 C  
HETATM    5  O   UNL     1      -8.185  16.748  67.142  1.00  0.00    -0.170 OA 
HETATM    6  N   UNL     1     -10.311  15.787  67.269  1.00  0.00    -0.283 N  
HETATM    7  H   UNL     1     -11.281  16.005  67.500  1.00  0.00     0.000 HD 
BRANCH   6   8
HETATM    8  C   UNL     1     -10.019  14.453  66.911  1.00  0.00    -0.261 A  
HETATM    9  C   UNL     1      -9.389  13.559  67.771  1.00  0.00    -0.213 A  
HETATM   10  C   UNL     1      -9.202  12.225  67.407  1.00  0.00    -0.182 A  
HETATM   11  C   UNL     1      -9.629  11.745  66.165  1.00  0.00    -0.232 A  
HETATM   12  C   UNL     1     -10.193  12.655  65.256  1.00  0.00    -0.302 A  
HETATM   13  C   UNL     1     -10.386  14.002  65.640  1.00  0.00    -0.342 A  
BRANCH  11  14
HETATM   14  O   UNL     1      -9.562  10.420  65.816  1.00  0.00    -0.189 OA 
BRANCH  14  15
HETATM   15  C   UNL     1      -8.331   9.958  65.236  1.00  0.00    -0.149 C  
BRANCH  15  16
HETATM   16  C   UNL     1      -8.084   8.501  65.655  1.00  0.00    -0.119 C  
HETATM   17  H   UNL     1      -8.126   6.744  64.781  1.00  0.00     0.000 HD 
HETATM   18  O   UNL     1      -8.279   7.645  64.522  1.00  0.00    -0.131 OA 
BRANCH  16  19
HETATM   19  C   UNL     1      -6.663   8.275  66.212  1.00  0.00    -0.057 C  
BRANCH  19  20
HETATM   20  N   UNL     1      -6.543   6.996  66.919  1.00  0.00    -0.053 NA 
HETATM   21  H   UNL     1      -5.565   6.720  67.000  1.00  0.00     0.000 HD 
BRANCH  20  22
HETATM   22  C   UNL     1      -7.195   6.988  68.236  1.00  0.00    -0.091 C  
HETATM   23  C   UNL     1      -7.512   5.569  68.730  1.00  0.00    -0.079 C  
HETATM   24  C   UNL     1      -6.252   7.665  69.232  1.00  0.00    -0.035 C  
ENDBRANCH  20  22
ENDBRANCH  19  20
ENDBRANCH  16  19
ENDBRANCH  15  16
ENDBRANCH  14  15
ENDBRANCH  11  14
BRANCH  12  25
HETATM   25  C   UNL     1     -10.676  12.291  63.889  1.00  0.00    -0.420 C  
HETATM   26  C   UNL     1     -12.137  12.065  63.608  1.00  0.00    -0.627 C  
HETATM   27  O   UNL     1      -9.842  12.133  62.996  1.00  0.00    -0.365 OA 
ENDBRANCH  12  25
ENDBRANCH   6   8
ENDBRANCH   3   4
ENDBRANCH   2   3
TORSDOF 10
ENDMDL
MODEL      182
REMARK 921   NORMALIZED FREE ENERGY PREDICTED BY IDOCK:   -3.41 KCAL/MOL
REMARK 922        TOTAL FREE ENERGY PREDICTED BY IDOCK:   -6.43 KCAL/MOL
REMARK 923 INTER-LIGAND FREE ENERGY PREDICTED BY IDOCK:   -6.05 KCAL/MOL
REMARK 924 INTRA-LIGAND FREE ENERGY PREDICTED BY IDOCK:   -0.38 KCAL/MOL
REMARK 927      BINDING AFFINITY PREDICTED BY RF-SCORE:    0.00 PKD
ROOT
HETATM    1  C   UNL     1     -12.780  14.146  71.342  1.00  0.00    -0.439 C  
HETATM    2  C   UNL     1     -12.515  15.413  70.549  1.00  0.00    -0.468 C  
ENDROOT
BRANCH   2   3
HETATM    3  C   UNL     1     -11.299  15.255  69.646  1.00  0.00    -0.304 C  
BRANCH   3   4
HETATM    4  C   UNL     1     -11.416  14.003  68.807  1.00  0.00    -0.292 C  
HETATM    5  O   UNL     1     -12.210  13.961  67.872  1.00  0.00    -0.325 OA 
HETATM    6  N   UNL     1     -10.525  13.005  69.178  1.00  0.00    -0.437 N  
HETATM    7  H   UNL     1      -9.895  13.209  69.954  1.00  0.00     0.000 HD 
BRANCH   6   8
HETATM    8  C   UNL     1     -10.415  11.734  68.576  1.00  0.00    -0.215 A  
HETATM    9  C   UNL     1     -10.549  10.545  69.286  1.00  0.00    -0.265 A  
HETATM   10  C   UNL     1     -10.523   9.312  68.633  1.00  0.00    -0.236 A  
HETATM   11  C   UNL     1     -10.351   9.229  67.248  1.00  0.00    -0.265 A  
HETATM   12  C   UNL     1     -10.135  10.415  66.529  1.00  0.00    -0.285 A  
HETATM   13  C   UNL     1     -10.173  11.659  67.202  1.00  0.00    -0.240 A  
BRANCH  11  14
HETATM   14  O   UNL     1     -10.430   8.045  66.558  1.00  0.00    -0.240 OA 
BRANCH  14  15
HETATM   15  C   UNL     1      -9.329   7.132  66.699  1.00  0.00    -0.166 C  
BRANCH  15  16
HETATM   16  C   UNL     1      -9.821   5.837  67.361  1.00  0.00    -0.138 C  
HETATM   17  H   UNL     1     -11.337   4.610  67.134  1.00  0.00     0.000 HD 
HETATM   18  O   UNL     1     -11.033   5.412  66.724  1.00  0.00    -0.196 OA 
BRANCH  16  19
HETATM   19  C   UNL     1      -8.786   4.696  67.276  1.00  0.00    -0.104 C  
BRANCH  19  20
HETATM   20  N   UNL     1      -9.422   3.379  67.170  1.00  0.00    -0.301 NA 
HETATM   21  H   UNL     1     -10.243   3.423  66.566  1.00  0.00     0.000 HD 
BRANCH  20  22
HETATM   22  C   UNL     1      -8.509   2.316  66.726  1.00  0.00    -0.099 C  
HETATM   23  C   UNL     1      -7.940   2.572  65.324  1.00  0.00    -0.079 C  
HETATM   24  C   UNL     1      -7.355   2.240  67.727  1.00  0.00    -0.055 C  
ENDBRANCH  20  22
ENDBRANCH  19  20
ENDBRANCH  16  19
ENDBRANCH  15  16
ENDBRANCH  14  15
ENDBRANCH  11  14
BRANCH  12  25
HETATM   25  C   UNL     1      -9.917  10.479  65.052  1.00  0.00    -0.322 C  
HETATM   26  C   UNL     1      -8.738   9.804  64.404  1.00  0.00    -0.228 C  
HETATM   27  O   UNL     1     -10.704  11.139  64.372  1.00  0.00    -0.350 OA 
ENDBRANCH  12  25
ENDBRANCH   6   8
ENDBRANCH   3   4
ENDBRANCH   2   3
TORSDOF 10
ENDMDL
MODEL      183
REMARK 921   NORMALIZED FREE ENERGY PREDICTED BY IDOCK:   -3.41 KCAL/MOL
REMARK 922        TOTAL FREE ENERGY PREDICTED BY IDOCK:   -6.43 KCAL/MOL
REMARK 923 INTER-LIGAND FREE ENERGY PREDICTED BY IDOCK:   -5.49 KCAL/MOL
REMARK 924 INTRA-LIGAND FREE ENERGY PREDICTED BY IDOCK:   -0.95 KCAL/MOL
REMARK 927      BINDING AFFINITY PREDICTED BY RF-SCORE:    0.00 PKD
ROOT
HETATM    1  C   UNL     1      -8.212   7.082  67.507  1.00  0.00    -0.116 C  
HETATM    2  C   UNL     1      -9.199   7.306  66.375  1.00  0.00    -0.201 C  
ENDROOT
BRANCH   2   3
HETATM    3  C   UNL     1     -10.146   8.458  66.686  1.00  0.00    -0.358 C  
BRANCH   3   4
HETATM    4  C   UNL     1      -9.499   9.783  66.356  1.00  0.00    -0.184 C  
HETATM    5  O   UNL     1      -8.918   9.935  65.285  1.00  0.00    -0.164 OA 
HETATM    6  N   UNL     1      -9.690  10.749  67.335  1.00  0.00    -0.169 N  
HETATM    7  H   UNL     1     -10.235  10.480  68.155  1.00  0.00     0.000 HD 
BRANCH   6   8
HETATM    8  C   UNL     1      -9.196  12.071  67.296  1.00  0.00    -0.182 A  
HETATM    9  C   UNL     1      -7.898  12.406  67.669  1.00  0.00    -0.163 A  
HETATM   10  C   UNL     1      -7.426  13.711  67.527  1.00  0.00    -0.181 A  
HETATM   11  C   UNL     1      -8.242  14.727  67.018  1.00  0.00    -0.179 A  
HETATM   12  C   UNL     1      -9.577  14.420  66.713  1.00  0.00    -0.279 A  
HETATM   13  C   UNL     1     -10.042  13.091  66.852  1.00  0.00    -0.243 A  
BRANCH  11  14
HETATM   14  O   UNL     1      -7.781  15.993  66.762  1.00  0.00    -0.230 OA 
BRANCH  14  15
HETATM   15  C   UNL     1      -7.707  16.900  67.875  1.00  0.00    -0.173 C  
BRANCH  15  16
HETATM   16  C   UNL     1      -7.448  18.322  67.359  1.00  0.00    -0.213 C  
HETATM   17  H   UNL     1      -7.234  20.106  68.152  1.00  0.00     0.000 HD 
HETATM   18  O   UNL     1      -7.395  19.226  68.471  1.00  0.00    -0.291 OA 
BRANCH  16  19
HETATM   19  C   UNL     1      -6.132  18.435  66.562  1.00  0.00    -0.161 C  
BRANCH  19  20
HETATM   20  N   UNL     1      -6.368  18.612  65.126  1.00  0.00    -0.426 NA 
HETATM   21  H   UNL     1      -7.162  18.050  64.820  1.00  0.00     0.000 HD 
BRANCH  20  22
HETATM   22  C   UNL     1      -6.541  20.015  64.725  1.00  0.00    -0.197 C  
HETATM   23  C   UNL     1      -5.826  20.992  65.669  1.00  0.00    -0.285 C  
HETATM   24  C   UNL     1      -5.972  20.175  63.315  1.00  0.00    -0.202 C  
ENDBRANCH  20  22
ENDBRANCH  19  20
ENDBRANCH  16  19
ENDBRANCH  15  16
ENDBRANCH  14  15
ENDBRANCH  11  14
BRANCH  12  25
HETATM   25  C   UNL     1     -10.568  15.404  66.182  1.00  0.00    -0.316 C  
HETATM   26  C   UNL     1     -10.846  15.518  64.707  1.00  0.00    -0.385 C  
HETATM   27  O   UNL     1     -11.127  16.161  66.977  1.00  0.00    -0.189 OA 
ENDBRANCH  12  25
ENDBRANCH   6   8
ENDBRANCH   3   4
ENDBRANCH   2   3
TORSDOF 10
ENDMDL
MODEL      184
REMARK 921   NORMALIZED FREE ENERGY PREDICTED BY IDOCK:   -3.38 KCAL/MOL
REMARK 922        TOTAL FREE ENERGY PREDICTED BY IDOCK:   -6.39 KCAL/MOL
REMARK 923 INTER-LIGAND FREE ENERGY PREDICTED BY IDOCK:   -5.54 KCAL/MOL
REMARK 924 INTRA-LIGAND FREE ENERGY PREDICTED BY IDOCK:   -0.84 KCAL/MOL
REMARK 927      BINDING AFFINITY PREDICTED BY RF-SCORE:    0.00 PKD
ROOT
HETATM    1  C   UNL     1     -12.990  12.040  63.822  1.00  0.00    -0.331 C  
HETATM    2  C   UNL     1     -12.274  12.281  65.140  1.00  0.00    -0.345 C  
ENDROOT
BRANCH   2   3
HETATM    3  C   UNL     1     -10.766  12.352  64.945  1.00  0.00    -0.328 C  
BRANCH   3   4
HETATM    4  C   UNL     1     -10.230  13.685  65.414  1.00  0.00    -0.313 C  
HETATM    5  O   UNL     1     -10.508  14.711  64.800  1.00  0.00    -0.418 OA 
HETATM    6  N   UNL     1      -9.484  13.599  66.582  1.00  0.00    -0.275 N  
HETATM    7  H   UNL     1      -9.377  12.675  67.000  1.00  0.00     0.000 HD 
BRANCH   6   8
HETATM    8  C   UNL     1      -8.862  14.680  67.243  1.00  0.00    -0.207 A  
HETATM    9  C   UNL     1      -9.076  14.971  68.587  1.00  0.00    -0.191 A  
HETATM   10  C   UNL     1      -8.369  15.994  69.221  1.00  0.00    -0.217 A  
HETATM   11  C   UNL     1      -7.432  16.766  68.527  1.00  0.00    -0.213 A  
HETATM   12  C   UNL     1      -7.265  16.536  67.152  1.00  0.00    -0.223 A  
HETATM   13  C   UNL     1      -7.981  15.491  66.523  1.00  0.00    -0.009 A  
BRANCH  11  14
HETATM   14  O   UNL     1      -6.641  17.704  69.140  1.00  0.00    -0.236 OA 
BRANCH  14  15
HETATM   15  C   UNL     1      -7.306  18.822  69.752  1.00  0.00     0.395 C  
BRANCH  15  16
HETATM   16  C   UNL     1      -7.204  20.045  68.829  1.00  0.00    -0.213 C  
HETATM   17  H   UNL     1      -5.875  20.780  67.585  1.00  0.00     0.000 HD 
HETATM   18  O   UNL     1      -5.938  20.024  68.156  1.00  0.00    -0.222 OA 
BRANCH  16  19
HETATM   19  C   UNL     1      -8.329  20.089  67.774  1.00  0.00    -0.285 C  
BRANCH  19  20
HETATM   20  N   UNL     1      -9.423  19.166  68.092  1.00  0.00    -0.325 NA 
HETATM   21  H   UNL     1      -9.834  19.394  68.997  1.00  0.00     0.000 HD 
BRANCH  20  22
HETATM   22  C   UNL     1     -10.460  19.100  67.053  1.00  0.00    -0.438 C  
HETATM   23  C   UNL     1      -9.985  19.666  65.707  1.00  0.00    -0.305 C  
HETATM   24  C   UNL     1     -10.848  17.632  66.869  1.00  0.00    -0.035 C  
ENDBRANCH  20  22
ENDBRANCH  19  20
ENDBRANCH  16  19
ENDBRANCH  15  16
ENDBRANCH  14  15
ENDBRANCH  11  14
BRANCH  12  25
HETATM   25  C   UNL     1      -6.318  17.295  66.280  1.00  0.00    -0.183 C  
HETATM   26  C   UNL     1      -6.775  18.478  65.470  1.00  0.00    -0.270 C  
HETATM   27  O   UNL     1      -5.153  16.902  66.199  1.00  0.00    -0.355 OA 
ENDBRANCH  12  25
ENDBRANCH   6   8
ENDBRANCH   3   4
ENDBRANCH   2   3
TORSDOF 10
ENDMDL
MODEL      185
REMARK 921   NORMALIZED FREE ENERGY PREDICTED BY IDOCK:   -3.37 KCAL/MOL
REMARK 922        TOTAL FREE ENERGY PREDICTED BY IDOCK:   -6.38 KCAL/MOL
REMARK 923 INTER-LIGAND FREE ENERGY PREDICTED BY IDOCK:   -4.91 KCAL/MOL
REMARK 924 INTRA-LIGAND FREE ENERGY PREDICTED BY IDOCK:   -1.47 KCAL/MOL
REMARK 927      BINDING AFFINITY PREDICTED BY RF-SCORE:    0.00 PKD
ROOT
HETATM    1  C   UNL     1     -11.368  13.445  69.061  1.00  0.00    -0.335 C  
HETATM    2  C   UNL     1     -11.579  12.082  68.425  1.00  0.00    -0.368 C  
ENDROOT
BRANCH   2   3
HETATM    3  C   UNL     1     -11.721  10.995  69.482  1.00  0.00    -0.400 C  
BRANCH   3   4
HETATM    4  C   UNL     1     -10.903   9.780  69.110  1.00  0.00    -0.207 C  
HETATM    5  O   UNL     1     -10.074   9.332  69.897  1.00  0.00    -0.187 OA 
HETATM    6  N   UNL     1     -11.236   9.248  67.872  1.00  0.00    -0.444 N  
HETATM    7  H   UNL     1     -11.981   9.712  67.351  1.00  0.00     0.000 HD 
BRANCH   6   8
HETATM    8  C   UNL     1     -10.635   8.121  67.271  1.00  0.00    -0.273 A  
HETATM    9  C   UNL     1     -11.129   6.829  67.422  1.00  0.00    -0.366 A  
HETATM   10  C   UNL     1     -10.556   5.757  66.735  1.00  0.00    -0.373 A  
HETATM   11  C   UNL     1      -9.462   5.944  65.883  1.00  0.00    -0.005 A  
HETATM   12  C   UNL     1      -8.904   7.228  65.784  1.00  0.00    -0.095 A  
HETATM   13  C   UNL     1      -9.500   8.307  66.478  1.00  0.00    -0.284 A  
BRANCH  11  14
HETATM   14  O   UNL     1      -8.943   4.938  65.109  1.00  0.00    -0.150 OA 
BRANCH  14  15
HETATM   15  C   UNL     1      -9.877   4.125  64.379  1.00  0.00    -0.152 C  
BRANCH  15  16
HETATM   16  C   UNL     1      -9.590   2.643  64.656  1.00  0.00    -0.099 C  
HETATM   17  H   UNL     1      -8.936   1.104  63.626  1.00  0.00     0.000 HD 
HETATM   18  O   UNL     1      -9.114   2.021  63.455  1.00  0.00    -0.091 OA 
BRANCH  16  19
HETATM   19  C   UNL     1      -8.544   2.437  65.771  1.00  0.00    -0.113 C  
BRANCH  19  20
HETATM   20  N   UNL     1      -9.167   2.249  67.086  1.00  0.00    -0.311 NA 
HETATM   21  H   UNL     1      -9.459   1.280  67.210  1.00  0.00     0.000 HD 
BRANCH  20  22
HETATM   22  C   UNL     1      -8.321   2.685  68.206  1.00  0.00    -0.069 C  
HETATM   23  C   UNL     1      -7.195   3.630  67.765  1.00  0.00    -0.059 C  
HETATM   24  C   UNL     1      -9.214   3.408  69.215  1.00  0.00    -0.221 C  
ENDBRANCH  20  22
ENDBRANCH  19  20
ENDBRANCH  16  19
ENDBRANCH  15  16
ENDBRANCH  14  15
ENDBRANCH  11  14
BRANCH  12  25
HETATM   25  C   UNL     1      -7.726   7.572  64.932  1.00  0.00    -0.115 C  
HETATM   26  C   UNL     1      -7.892   7.974  63.491  1.00  0.00    -0.146 C  
HETATM   27  O   UNL     1      -6.600   7.476  65.422  1.00  0.00    -0.044 OA 
ENDBRANCH  12  25
ENDBRANCH   6   8
ENDBRANCH   3   4
ENDBRANCH   2   3
TORSDOF 10
ENDMDL
MODEL      186
REMARK 921   NORMALIZED FREE ENERGY PREDICTED BY IDOCK:   -3.37 KCAL/MOL
REMARK 922        TOTAL FREE ENERGY PREDICTED BY IDOCK:   -6.37 KCAL/MOL
REMARK 923 INTER-LIGAND FREE ENERGY PREDICTED BY IDOCK:   -5.14 KCAL/MOL
REMARK 924 INTRA-LIGAND FREE ENERGY PREDICTED BY IDOCK:   -1.23 KCAL/MOL
REMARK 927      BINDING AFFINITY PREDICTED BY RF-SCORE:    0.00 PKD
ROOT
HETATM    1  C   UNL     1     -13.709  13.034  72.288  1.00  0.00    -0.608 C  
HETATM    2  C   UNL     1     -12.863  12.117  71.422  1.00  0.00    -0.378 C  
ENDROOT
BRANCH   2   3
HETATM    3  C   UNL     1     -12.161  12.893  70.316  1.00  0.00    -0.362 C  
BRANCH   3   4
HETATM    4  C   UNL     1     -11.722  11.964  69.208  1.00  0.00    -0.328 C  
HETATM    5  O   UNL     1     -12.265  12.017  68.108  1.00  0.00    -0.428 OA 
HETATM    6  N   UNL     1     -10.659  11.145  69.564  1.00  0.00    -0.430 N  
HETATM    7  H   UNL     1     -10.286  11.250  70.508  1.00  0.00     0.000 HD 
BRANCH   6   8
HETATM    8  C   UNL     1     -10.048  10.181  68.734  1.00  0.00    -0.187 A  
HETATM    9  C   UNL     1      -9.062  10.497  67.805  1.00  0.00    -0.140 A  
HETATM   10  C   UNL     1      -8.422   9.497  67.070  1.00  0.00    -0.128 A  
HETATM   11  C   UNL     1      -8.757   8.149  67.234  1.00  0.00    -0.124 A  
HETATM   12  C   UNL     1      -9.806   7.824  68.109  1.00  0.00    -0.190 A  
HETATM   13  C   UNL     1     -10.440   8.845  68.854  1.00  0.00    -0.225 A  
BRANCH  11  14
HETATM   14  O   UNL     1      -8.077   7.133  66.612  1.00  0.00    -0.105 OA 
BRANCH  14  15
HETATM   15  C   UNL     1      -7.063   7.508  65.665  1.00  0.00    -0.061 C  
BRANCH  15  16
HETATM   16  C   UNL     1      -7.650   7.469  64.247  1.00  0.00    -0.105 C  
HETATM   17  H   UNL     1      -7.353   8.424  62.557  1.00  0.00     0.000 HD 
HETATM   18  O   UNL     1      -6.991   8.449  63.435  1.00  0.00    -0.087 OA 
BRANCH  16  19
HETATM   19  C   UNL     1      -7.501   6.086  63.579  1.00  0.00    -0.073 C  
BRANCH  19  20
HETATM   20  N   UNL     1      -7.652   4.988  64.539  1.00  0.00    -0.075 NA 
HETATM   21  H   UNL     1      -7.536   5.327  65.494  1.00  0.00     0.000 HD 
BRANCH  20  22
HETATM   22  C   UNL     1      -8.916   4.252  64.399  1.00  0.00    -0.148 C  
HETATM   23  C   UNL     1      -8.835   3.132  63.353  1.00  0.00    -0.092 C  
HETATM   24  C   UNL     1      -9.258   3.642  65.759  1.00  0.00    -0.159 C  
ENDBRANCH  20  22
ENDBRANCH  19  20
ENDBRANCH  16  19
ENDBRANCH  15  16
ENDBRANCH  14  15
ENDBRANCH  11  14
BRANCH  12  25
HETATM   25  C   UNL     1     -10.286   6.433  68.369  1.00  0.00    -0.194 C  
HETATM   26  C   UNL     1      -9.686   5.588  69.460  1.00  0.00    -0.218 C  
HETATM   27  O   UNL     1     -11.161   5.969  67.636  1.00  0.00    -0.297 OA 
ENDBRANCH  12  25
ENDBRANCH   6   8
ENDBRANCH   3   4
ENDBRANCH   2   3
TORSDOF 10
ENDMDL
MODEL      187
REMARK 921   NORMALIZED FREE ENERGY PREDICTED BY IDOCK:   -3.36 KCAL/MOL
REMARK 922        TOTAL FREE ENERGY PREDICTED BY IDOCK:   -6.35 KCAL/MOL
REMARK 923 INTER-LIGAND FREE ENERGY PREDICTED BY IDOCK:   -5.31 KCAL/MOL
REMARK 924 INTRA-LIGAND FREE ENERGY PREDICTED BY IDOCK:   -1.05 KCAL/MOL
REMARK 927      BINDING AFFINITY PREDICTED BY RF-SCORE:    0.00 PKD
ROOT
HETATM    1  C   UNL     1     -10.985   3.615  73.336  1.00  0.00    -0.312 C  
HETATM    2  C   UNL     1     -10.831   5.126  73.319  1.00  0.00    -0.352 C  
ENDROOT
BRANCH   2   3
HETATM    3  C   UNL     1     -11.747   5.762  72.282  1.00  0.00    -0.265 C  
BRANCH   3   4
HETATM    4  C   UNL     1     -10.969   6.134  71.041  1.00  0.00    -0.293 C  
HETATM    5  O   UNL     1     -10.563   5.256  70.283  1.00  0.00    -0.278 OA 
HETATM    6  N   UNL     1     -10.840   7.504  70.860  1.00  0.00    -0.236 N  
HETATM    7  H   UNL     1     -11.272   8.109  71.558  1.00  0.00     0.000 HD 
BRANCH   6   8
HETATM    8  C   UNL     1     -10.162   8.134  69.793  1.00  0.00    -0.203 A  
HETATM    9  C   UNL     1     -10.781   8.459  68.590  1.00  0.00    -0.075 A  
HETATM   10  C   UNL     1     -10.095   9.163  67.599  1.00  0.00    -0.273 A  
HETATM   11  C   UNL     1      -8.764   9.554  67.776  1.00  0.00    -0.115 A  
HETATM   12  C   UNL     1      -8.105   9.163  68.952  1.00  0.00    -0.100 A  
HETATM   13  C   UNL     1      -8.813   8.458  69.952  1.00  0.00    -0.137 A  
BRANCH  11  14
HETATM   14  O   UNL     1      -8.094  10.340  66.873  1.00  0.00    -0.117 OA 
BRANCH  14  15
HETATM   15  C   UNL     1      -8.722  11.573  66.486  1.00  0.00    -0.183 C  
BRANCH  15  16
HETATM   16  C   UNL     1      -8.226  12.707  67.395  1.00  0.00    -0.184 C  
HETATM   17  H   UNL     1      -6.508  13.579  67.772  1.00  0.00     0.000 HD 
HETATM   18  O   UNL     1      -6.815  12.878  67.210  1.00  0.00    -0.150 OA 
BRANCH  16  19
HETATM   19  C   UNL     1      -8.932  14.049  67.111  1.00  0.00    -0.232 C  
BRANCH  19  20
HETATM   20  N   UNL     1      -9.648  14.038  65.831  1.00  0.00    -0.496 NA 
HETATM   21  H   UNL     1      -9.850  13.082  65.540  1.00  0.00     0.000 HD 
BRANCH  20  22
HETATM   22  C   UNL     1     -10.873  14.849  65.834  1.00  0.00    -0.334 C  
HETATM   23  C   UNL     1     -12.054  14.140  65.157  1.00  0.00    -0.416 C  
HETATM   24  C   UNL     1     -11.236  15.148  67.289  1.00  0.00    -0.324 C  
ENDBRANCH  20  22
ENDBRANCH  19  20
ENDBRANCH  16  19
ENDBRANCH  15  16
ENDBRANCH  14  15
ENDBRANCH  11  14
BRANCH  12  25
HETATM   25  C   UNL     1      -6.682   9.491  69.268  1.00  0.00    -0.049 C  
HETATM   26  C   UNL     1      -6.320  10.698  70.093  1.00  0.00    -0.139 C  
HETATM   27  O   UNL     1      -5.797   8.774  68.800  1.00  0.00    -0.040 OA 
ENDBRANCH  12  25
ENDBRANCH   6   8
ENDBRANCH   3   4
ENDBRANCH   2   3
TORSDOF 10
ENDMDL
MODEL      188
REMARK 921   NORMALIZED FREE ENERGY PREDICTED BY IDOCK:   -3.36 KCAL/MOL
REMARK 922        TOTAL FREE ENERGY PREDICTED BY IDOCK:   -6.35 KCAL/MOL
REMARK 923 INTER-LIGAND FREE ENERGY PREDICTED BY IDOCK:   -5.74 KCAL/MOL
REMARK 924 INTRA-LIGAND FREE ENERGY PREDICTED BY IDOCK:   -0.61 KCAL/MOL
REMARK 927      BINDING AFFINITY PREDICTED BY RF-SCORE:    0.00 PKD
ROOT
HETATM    1  C   UNL     1     -10.501   5.045  66.381  1.00  0.00    -0.349 C  
HETATM    2  C   UNL     1     -10.030   5.836  67.589  1.00  0.00    -0.165 C  
ENDROOT
BRANCH   2   3
HETATM    3  C   UNL     1     -11.207   6.327  68.421  1.00  0.00    -0.272 C  
BRANCH   3   4
HETATM    4  C   UNL     1     -11.030   7.782  68.790  1.00  0.00     0.144 C  
HETATM    5  O   UNL     1     -11.073   8.128  69.967  1.00  0.00    -0.233 OA 
HETATM    6  N   UNL     1     -10.772   8.600  67.698  1.00  0.00    -0.467 N  
HETATM    7  H   UNL     1     -10.725   8.153  66.782  1.00  0.00     0.000 HD 
BRANCH   6   8
HETATM    8  C   UNL     1     -10.570   9.996  67.745  1.00  0.00    -0.261 A  
HETATM    9  C   UNL     1     -11.614  10.909  67.853  1.00  0.00    -0.270 A  
HETATM   10  C   UNL     1     -11.361  12.275  67.987  1.00  0.00    -0.348 A  
HETATM   11  C   UNL     1     -10.054  12.772  68.007  1.00  0.00    -0.230 A  
HETATM   12  C   UNL     1      -8.994  11.871  67.818  1.00  0.00    -0.173 A  
HETATM   13  C   UNL     1      -9.263  10.488  67.692  1.00  0.00    -0.153 A  
BRANCH  11  14
HETATM   14  O   UNL     1      -9.763  14.091  68.246  1.00  0.00    -0.214 OA 
BRANCH  14  15
HETATM   15  C   UNL     1      -9.509  14.924  67.102  1.00  0.00    -0.225 C  
BRANCH  15  16
HETATM   16  C   UNL     1      -8.508  16.023  67.482  1.00  0.00    -0.163 C  
HETATM   17  H   UNL     1      -7.174  17.118  66.546  1.00  0.00     0.000 HD 
HETATM   18  O   UNL     1      -7.793  16.437  66.310  1.00  0.00    -0.296 OA 
BRANCH  16  19
HETATM   19  C   UNL     1      -9.189  17.256  68.112  1.00  0.00    -0.267 C  
BRANCH  19  20
HETATM   20  N   UNL     1      -8.497  18.504  67.774  1.00  0.00    -0.267 NA 
HETATM   21  H   UNL     1      -7.543  18.314  67.468  1.00  0.00     0.000 HD 
BRANCH  20  22
HETATM   22  C   UNL     1      -9.208  19.323  66.782  1.00  0.00    -0.323 C  
HETATM   23  C   UNL     1     -10.528  18.687  66.327  1.00  0.00    -0.468 C  
HETATM   24  C   UNL     1      -9.500  20.683  67.418  1.00  0.00    -0.516 C  
ENDBRANCH  20  22
ENDBRANCH  19  20
ENDBRANCH  16  19
ENDBRANCH  15  16
ENDBRANCH  14  15
ENDBRANCH  11  14
BRANCH  12  25
HETATM   25  C   UNL     1      -7.551  12.259  67.796  1.00  0.00    -0.131 C  
HETATM   26  C   UNL     1      -6.845  12.723  69.041  1.00  0.00    -0.081 C  
HETATM   27  O   UNL     1      -6.955  12.235  66.719  1.00  0.00    -0.012 OA 
ENDBRANCH  12  25
ENDBRANCH   6   8
ENDBRANCH   3   4
ENDBRANCH   2   3
TORSDOF 10
ENDMDL
MODEL      189
REMARK 921   NORMALIZED FREE ENERGY PREDICTED BY IDOCK:   -3.35 KCAL/MOL
REMARK 922        TOTAL FREE ENERGY PREDICTED BY IDOCK:   -6.34 KCAL/MOL
REMARK 923 INTER-LIGAND FREE ENERGY PREDICTED BY IDOCK:   -5.29 KCAL/MOL
REMARK 924 INTRA-LIGAND FREE ENERGY PREDICTED BY IDOCK:   -1.05 KCAL/MOL
REMARK 927      BINDING AFFINITY PREDICTED BY RF-SCORE:    0.00 PKD
ROOT
HETATM    1  C   UNL     1     -13.248  11.567  71.891  1.00  0.00    -0.479 C  
HETATM    2  C   UNL     1     -12.301  10.853  70.942  1.00  0.00    -0.501 C  
ENDROOT
BRANCH   2   3
HETATM    3  C   UNL     1     -11.922  11.743  69.766  1.00  0.00    -0.392 C  
BRANCH   3   4
HETATM    4  C   UNL     1     -11.397  10.914  68.617  1.00  0.00    -0.295 C  
HETATM    5  O   UNL     1     -11.876  11.045  67.494  1.00  0.00    -0.571 OA 
HETATM    6  N   UNL     1     -10.338  10.089  68.970  1.00  0.00    -0.194 N  
HETATM    7  H   UNL     1     -10.024  10.124  69.940  1.00  0.00     0.000 HD 
BRANCH   6   8
HETATM    8  C   UNL     1      -9.657   9.206  68.105  1.00  0.00    -0.144 A  
HETATM    9  C   UNL     1      -8.456   9.531  67.483  1.00  0.00    -0.126 A  
HETATM   10  C   UNL     1      -7.772   8.593  66.707  1.00  0.00    -0.093 A  
HETATM   11  C   UNL     1      -8.276   7.301  66.521  1.00  0.00    -0.117 A  
HETATM   12  C   UNL     1      -9.526   6.986  67.077  1.00  0.00    -0.184 A  
HETATM   13  C   UNL     1     -10.204   7.942  67.868  1.00  0.00    -0.263 A  
BRANCH  11  14
HETATM   14  O   UNL     1      -7.581   6.321  65.859  1.00  0.00    -0.080 OA 
BRANCH  14  15
HETATM   15  C   UNL     1      -7.920   6.097  64.480  1.00  0.00    -0.123 C  
BRANCH  15  16
HETATM   16  C   UNL     1      -6.938   6.861  63.582  1.00  0.00    -0.057 C  
HETATM   17  H   UNL     1      -5.518   6.395  62.308  1.00  0.00     0.000 HD 
HETATM   18  O   UNL     1      -6.126   5.922  62.865  1.00  0.00    -0.021 OA 
BRANCH  16  19
HETATM   19  C   UNL     1      -7.650   7.780  62.568  1.00  0.00    -0.114 C  
BRANCH  19  20
HETATM   20  N   UNL     1      -8.894   8.339  63.107  1.00  0.00    -0.277 NA 
HETATM   21  H   UNL     1      -9.096   7.947  64.026  1.00  0.00     0.000 HD 
BRANCH  20  22
HETATM   22  C   UNL     1      -8.908   9.808  63.154  1.00  0.00    -0.246 C  
HETATM   23  C   UNL     1      -9.768  10.355  64.301  1.00  0.00    -0.389 C  
HETATM   24  C   UNL     1      -7.467  10.286  63.336  1.00  0.00    -0.107 C  
ENDBRANCH  20  22
ENDBRANCH  19  20
ENDBRANCH  16  19
ENDBRANCH  15  16
ENDBRANCH  14  15
ENDBRANCH  11  14
BRANCH  12  25
HETATM   25  C   UNL     1     -10.196   5.657  66.944  1.00  0.00    -0.227 C  
HETATM   26  C   UNL     1      -9.545   4.397  67.450  1.00  0.00    -0.218 C  
HETATM   27  O   UNL     1     -11.282   5.603  66.366  1.00  0.00    -0.075 OA 
ENDBRANCH  12  25
ENDBRANCH   6   8
ENDBRANCH   3   4
ENDBRANCH   2   3
TORSDOF 10
ENDMDL
MODEL      190
REMARK 921   NORMALIZED FREE ENERGY PREDICTED BY IDOCK:   -3.35 KCAL/MOL
REMARK 922        TOTAL FREE ENERGY PREDICTED BY IDOCK:   -6.33 KCAL/MOL
REMARK 923 INTER-LIGAND FREE ENERGY PREDICTED BY IDOCK:   -4.98 KCAL/MOL
REMARK 924 INTRA-LIGAND FREE ENERGY PREDICTED BY IDOCK:   -1.35 KCAL/MOL
REMARK 927      BINDING AFFINITY PREDICTED BY RF-SCORE:    0.00 PKD
ROOT
HETATM    1  C   UNL     1     -12.509  12.163  70.881  1.00  0.00    -0.374 C  
HETATM    2  C   UNL     1     -13.129  11.146  71.823  1.00  0.00    -0.536 C  
ENDROOT
BRANCH   2   3
HETATM    3  C   UNL     1     -13.012   9.734  71.266  1.00  0.00    -0.470 C  
BRANCH   3   4
HETATM    4  C   UNL     1     -11.576   9.415  70.920  1.00  0.00    -0.312 C  
HETATM    5  O   UNL     1     -10.728   9.356  71.806  1.00  0.00    -0.334 OA 
HETATM    6  N   UNL     1     -11.377   9.159  69.570  1.00  0.00    -0.435 N  
HETATM    7  H   UNL     1     -12.195   9.206  68.961  1.00  0.00     0.000 HD 
BRANCH   6   8
HETATM    8  C   UNL     1     -10.142   8.840  68.965  1.00  0.00    -0.198 A  
HETATM    9  C   UNL     1      -9.482   7.634  69.181  1.00  0.00    -0.154 A  
HETATM   10  C   UNL     1      -8.309   7.325  68.491  1.00  0.00    -0.125 A  
HETATM   11  C   UNL     1      -7.753   8.218  67.570  1.00  0.00    -0.099 A  
HETATM   12  C   UNL     1      -8.364   9.470  67.401  1.00  0.00    -0.125 A  
HETATM   13  C   UNL     1      -9.557   9.768  68.100  1.00  0.00    -0.158 A  
BRANCH  11  14
HETATM   14  O   UNL     1      -6.665   7.905  66.794  1.00  0.00    -0.060 OA 
BRANCH  14  15
HETATM   15  C   UNL     1      -6.647   6.601  66.189  1.00  0.00    -0.044 C  
BRANCH  15  16
HETATM   16  C   UNL     1      -7.582   6.590  64.971  1.00  0.00    -0.092 C  
HETATM   17  H   UNL     1      -7.379   6.717  63.022  1.00  0.00     0.000 HD 
HETATM   18  O   UNL     1      -6.801   6.724  63.776  1.00  0.00    -0.050 OA 
BRANCH  16  19
HETATM   19  C   UNL     1      -8.421   5.299  64.876  1.00  0.00    -0.150 C  
BRANCH  19  20
HETATM   20  N   UNL     1      -8.327   4.487  66.094  1.00  0.00    -0.113 NA 
HETATM   21  H   UNL     1      -7.797   4.978  66.813  1.00  0.00     0.000 HD 
BRANCH  20  22
HETATM   22  C   UNL     1      -9.630   4.053  66.615  1.00  0.00    -0.209 C  
HETATM   23  C   UNL     1      -9.601   3.774  68.124  1.00  0.00    -0.176 C  
HETATM   24  C   UNL     1     -10.643   5.163  66.331  1.00  0.00    -0.336 C  
ENDBRANCH  20  22
ENDBRANCH  19  20
ENDBRANCH  16  19
ENDBRANCH  15  16
ENDBRANCH  14  15
ENDBRANCH  11  14
BRANCH  12  25
HETATM   25  C   UNL     1      -7.872  10.530  66.470  1.00  0.00    -0.134 C  
HETATM   26  C   UNL     1      -6.891  11.578  66.923  1.00  0.00    -0.138 C  
HETATM   27  O   UNL     1      -8.323  10.559  65.324  1.00  0.00    -0.161 OA 
ENDBRANCH  12  25
ENDBRANCH   6   8
ENDBRANCH   3   4
ENDBRANCH   2   3
TORSDOF 10
ENDMDL
MODEL      191
REMARK 921   NORMALIZED FREE ENERGY PREDICTED BY IDOCK:   -3.33 KCAL/MOL
REMARK 922        TOTAL FREE ENERGY PREDICTED BY IDOCK:   -6.31 KCAL/MOL
REMARK 923 INTER-LIGAND FREE ENERGY PREDICTED BY IDOCK:   -5.54 KCAL/MOL
REMARK 924 INTRA-LIGAND FREE ENERGY PREDICTED BY IDOCK:   -0.77 KCAL/MOL
REMARK 927      BINDING AFFINITY PREDICTED BY RF-SCORE:    0.00 PKD
ROOT
HETATM    1  C   UNL     1     -13.036  15.850  73.577  1.00  0.00    -0.707 C  
HETATM    2  C   UNL     1     -13.057  14.440  73.013  1.00  0.00    -0.581 C  
ENDROOT
BRANCH   2   3
HETATM    3  C   UNL     1     -13.399  14.443  71.529  1.00  0.00    -0.430 C  
BRANCH   3   4
HETATM    4  C   UNL     1     -12.357  13.684  70.740  1.00  0.00    -0.371 C  
HETATM    5  O   UNL     1     -11.427  14.286  70.210  1.00  0.00    -0.246 OA 
HETATM    6  N   UNL     1     -12.551  12.310  70.748  1.00  0.00    -0.268 N  
HETATM    7  H   UNL     1     -13.352  11.956  71.273  1.00  0.00     0.000 HD 
BRANCH   6   8
HETATM    8  C   UNL     1     -11.739  11.359  70.094  1.00  0.00    -0.328 A  
HETATM    9  C   UNL     1     -11.342  11.488  68.767  1.00  0.00    -0.327 A  
HETATM   10  C   UNL     1     -10.464  10.569  68.189  1.00  0.00    -0.217 A  
HETATM   11  C   UNL     1      -9.964   9.485  68.918  1.00  0.00    -0.179 A  
HETATM   12  C   UNL     1     -10.420   9.299  70.232  1.00  0.00    -0.271 A  
HETATM   13  C   UNL     1     -11.302  10.241  70.810  1.00  0.00    -0.421 A  
BRANCH  11  14
HETATM   14  O   UNL     1      -9.018   8.627  68.419  1.00  0.00    -0.141 OA 
BRANCH  14  15
HETATM   15  C   UNL     1      -7.969   9.201  67.621  1.00  0.00    -0.100 C  
BRANCH  15  16
HETATM   16  C   UNL     1      -6.688   8.372  67.788  1.00  0.00    -0.066 C  
HETATM   17  H   UNL     1      -5.804   7.398  69.245  1.00  0.00     0.000 HD 
HETATM   18  O   UNL     1      -6.597   7.911  69.142  1.00  0.00    -0.039 OA 
BRANCH  16  19
HETATM   19  C   UNL     1      -6.640   7.154  66.842  1.00  0.00    -0.055 C  
BRANCH  19  20
HETATM   20  N   UNL     1      -7.499   7.332  65.666  1.00  0.00    -0.081 NA 
HETATM   21  H   UNL     1      -7.652   8.323  65.480  1.00  0.00     0.000 HD 
BRANCH  20  22
HETATM   22  C   UNL     1      -7.002   6.648  64.465  1.00  0.00    -0.054 C  
HETATM   23  C   UNL     1      -6.635   7.623  63.337  1.00  0.00    -0.058 C  
HETATM   24  C   UNL     1      -5.759   5.849  64.858  1.00  0.00    -0.024 C  
ENDBRANCH  20  22
ENDBRANCH  19  20
ENDBRANCH  16  19
ENDBRANCH  15  16
ENDBRANCH  14  15
ENDBRANCH  11  14
BRANCH  12  25
HETATM   25  C   UNL     1      -9.990   8.178  71.122  1.00  0.00    -0.180 C  
HETATM   26  C   UNL     1     -10.891   7.002  71.393  1.00  0.00    -0.253 C  
HETATM   27  O   UNL     1      -8.892   8.255  71.673  1.00  0.00    -0.140 OA 
ENDBRANCH  12  25
ENDBRANCH   6   8
ENDBRANCH   3   4
ENDBRANCH   2   3
TORSDOF 10
ENDMDL
MODEL      192
REMARK 921   NORMALIZED FREE ENERGY PREDICTED BY IDOCK:   -3.27 KCAL/MOL
REMARK 922        TOTAL FREE ENERGY PREDICTED BY IDOCK:   -6.22 KCAL/MOL
REMARK 923 INTER-LIGAND FREE ENERGY PREDICTED BY IDOCK:   -5.06 KCAL/MOL
REMARK 924 INTRA-LIGAND FREE ENERGY PREDICTED BY IDOCK:   -1.16 KCAL/MOL
REMARK 927      BINDING AFFINITY PREDICTED BY RF-SCORE:    0.00 PKD
ROOT
HETATM    1  C   UNL     1      -9.642   2.983  64.867  1.00  0.00    -0.099 C  
HETATM    2  C   UNL     1      -8.659   2.517  65.927  1.00  0.00    -0.115 C  
ENDROOT
BRANCH   2   3
HETATM    3  C   UNL     1      -9.040   3.046  67.304  1.00  0.00    -0.203 C  
BRANCH   3   4
HETATM    4  C   UNL     1      -8.849   4.544  67.371  1.00  0.00    -0.106 C  
HETATM    5  O   UNL     1      -7.775   5.043  67.050  1.00  0.00    -0.091 OA 
HETATM    6  N   UNL     1      -9.992   5.228  67.761  1.00  0.00    -0.156 N  
HETATM    7  H   UNL     1     -10.825   4.671  67.955  1.00  0.00     0.000 HD 
BRANCH   6   8
HETATM    8  C   UNL     1     -10.103   6.627  67.914  1.00  0.00    -0.150 A  
HETATM    9  C   UNL     1     -10.702   7.447  66.963  1.00  0.00    -0.389 A  
HETATM   10  C   UNL     1     -10.871   8.813  67.198  1.00  0.00    -0.062 A  
HETATM   11  C   UNL     1     -10.434   9.403  68.388  1.00  0.00    -0.218 A  
HETATM   12  C   UNL     1      -9.757   8.603  69.321  1.00  0.00    -0.173 A  
HETATM   13  C   UNL     1      -9.600   7.219  69.076  1.00  0.00    -0.147 A  
BRANCH  11  14
HETATM   14  O   UNL     1     -10.680  10.716  68.700  1.00  0.00    -0.180 OA 
BRANCH  14  15
HETATM   15  C   UNL     1      -9.930  11.711  67.982  1.00  0.00    -0.188 C  
BRANCH  15  16
HETATM   16  C   UNL     1     -10.826  12.927  67.709  1.00  0.00    -0.229 C  
HETATM   17  H   UNL     1     -12.704  13.230  67.222  1.00  0.00     0.000 HD 
HETATM   18  O   UNL     1     -12.150  12.477  67.391  1.00  0.00    -0.466 OA 
BRANCH  16  19
HETATM   19  C   UNL     1     -10.903  13.891  68.912  1.00  0.00    -0.255 C  
BRANCH  19  20
HETATM   20  N   UNL     1     -11.482  13.251  70.098  1.00  0.00    -0.515 NA 
HETATM   21  H   UNL     1     -10.772  12.719  70.601  1.00  0.00     0.000 HD 
BRANCH  20  22
HETATM   22  C   UNL     1     -12.166  14.188  70.999  1.00  0.00    -0.358 C  
HETATM   23  C   UNL     1     -11.228  15.274  71.546  1.00  0.00    -0.369 C  
HETATM   24  C   UNL     1     -13.298  14.853  70.215  1.00  0.00     0.124 C  
ENDBRANCH  20  22
ENDBRANCH  19  20
ENDBRANCH  16  19
ENDBRANCH  15  16
ENDBRANCH  14  15
ENDBRANCH  11  14
BRANCH  12  25
HETATM   25  C   UNL     1      -9.218   9.099  70.624  1.00  0.00    -0.258 C  
HETATM   26  C   UNL     1      -7.756   9.411  70.799  1.00  0.00    -0.144 C  
HETATM   27  O   UNL     1      -9.992   9.205  71.576  1.00  0.00    -0.312 OA 
ENDBRANCH  12  25
ENDBRANCH   6   8
ENDBRANCH   3   4
ENDBRANCH   2   3
TORSDOF 10
ENDMDL
MODEL      193
REMARK 921   NORMALIZED FREE ENERGY PREDICTED BY IDOCK:   -3.27 KCAL/MOL
REMARK 922        TOTAL FREE ENERGY PREDICTED BY IDOCK:   -6.21 KCAL/MOL
REMARK 923 INTER-LIGAND FREE ENERGY PREDICTED BY IDOCK:   -5.66 KCAL/MOL
REMARK 924 INTRA-LIGAND FREE ENERGY PREDICTED BY IDOCK:   -0.54 KCAL/MOL
REMARK 927      BINDING AFFINITY PREDICTED BY RF-SCORE:    0.00 PKD
ROOT
HETATM    1  C   UNL     1     -10.526  14.994  66.253  1.00  0.00    -0.309 C  
HETATM    2  C   UNL     1     -11.383  14.363  65.169  1.00  0.00    -0.359 C  
ENDROOT
BRANCH   2   3
HETATM    3  C   UNL     1     -12.400  13.397  65.762  1.00  0.00    -0.513 C  
BRANCH   3   4
HETATM    4  C   UNL     1     -11.706  12.296  66.530  1.00  0.00    -0.352 C  
HETATM    5  O   UNL     1     -11.062  11.439  65.931  1.00  0.00    -0.257 OA 
HETATM    6  N   UNL     1     -11.841  12.415  67.907  1.00  0.00    -0.349 N  
HETATM    7  H   UNL     1     -12.375  13.211  68.256  1.00  0.00     0.000 HD 
BRANCH   6   8
HETATM    8  C   UNL     1     -11.303  11.530  68.866  1.00  0.00    -0.268 A  
HETATM    9  C   UNL     1     -12.084  10.870  69.810  1.00  0.00    -0.409 A  
HETATM   10  C   UNL     1     -11.521   9.935  70.680  1.00  0.00    -0.411 A  
HETATM   11  C   UNL     1     -10.155   9.639  70.641  1.00  0.00    -0.256 A  
HETATM   12  C   UNL     1      -9.342  10.356  69.748  1.00  0.00    -0.019 A  
HETATM   13  C   UNL     1      -9.926  11.294  68.866  1.00  0.00    -0.169 A  
BRANCH  11  14
HETATM   14  O   UNL     1      -9.586   8.650  71.402  1.00  0.00    -0.194 OA 
BRANCH  14  15
HETATM   15  C   UNL     1     -10.417   7.527  71.742  1.00  0.00    -0.193 C  
BRANCH  15  16
HETATM   16  C   UNL     1      -9.531   6.316  72.065  1.00  0.00    -0.151 C  
HETATM   17  H   UNL     1      -8.661   5.576  73.663  1.00  0.00     0.000 HD 
HETATM   18  O   UNL     1      -9.209   6.326  73.462  1.00  0.00    -0.131 OA 
BRANCH  16  19
HETATM   19  C   UNL     1     -10.209   4.973  71.720  1.00  0.00    -0.207 C  
BRANCH  19  20
HETATM   20  N   UNL     1      -9.900   4.532  70.356  1.00  0.00    -0.223 NA 
HETATM   21  H   UNL     1      -9.368   5.246  69.859  1.00  0.00     0.000 HD 
BRANCH  20  22
HETATM   22  C   UNL     1      -9.211   3.236  70.297  1.00  0.00    -0.157 C  
HETATM   23  C   UNL     1      -9.387   2.533  68.944  1.00  0.00    -0.218 C  
HETATM   24  C   UNL     1      -7.722   3.484  70.542  1.00  0.00    -0.043 C  
ENDBRANCH  20  22
ENDBRANCH  19  20
ENDBRANCH  16  19
ENDBRANCH  15  16
ENDBRANCH  14  15
ENDBRANCH  11  14
BRANCH  12  25
HETATM   25  C   UNL     1      -7.867  10.161  69.610  1.00  0.00    -0.175 C  
HETATM   26  C   UNL     1      -7.283   9.377  68.466  1.00  0.00    -0.072 C  
HETATM   27  O   UNL     1      -7.131  10.621  70.484  1.00  0.00    -0.227 OA 
ENDBRANCH  12  25
ENDBRANCH   6   8
ENDBRANCH   3   4
ENDBRANCH   2   3
TORSDOF 10
ENDMDL
MODEL      194
REMARK 921   NORMALIZED FREE ENERGY PREDICTED BY IDOCK:   -3.26 KCAL/MOL
REMARK 922        TOTAL FREE ENERGY PREDICTED BY IDOCK:   -6.19 KCAL/MOL
REMARK 923 INTER-LIGAND FREE ENERGY PREDICTED BY IDOCK:   -5.37 KCAL/MOL
REMARK 924 INTRA-LIGAND FREE ENERGY PREDICTED BY IDOCK:   -0.83 KCAL/MOL
REMARK 927      BINDING AFFINITY PREDICTED BY RF-SCORE:    0.00 PKD
ROOT
HETATM    1  C   UNL     1     -11.982  15.065  69.600  1.00  0.00    -0.356 C  
HETATM    2  C   UNL     1     -11.008  15.269  68.453  1.00  0.00    -0.271 C  
ENDROOT
BRANCH   2   3
HETATM    3  C   UNL     1     -11.524  14.632  67.169  1.00  0.00    -0.380 C  
BRANCH   3   4
HETATM    4  C   UNL     1     -11.340  13.132  67.207  1.00  0.00    -0.306 C  
HETATM    5  O   UNL     1     -12.154  12.398  66.653  1.00  0.00    -0.592 OA 
HETATM    6  N   UNL     1     -10.179  12.735  67.856  1.00  0.00    -0.223 N  
HETATM    7  H   UNL     1      -9.579  13.470  68.230  1.00  0.00     0.000 HD 
BRANCH   6   8
HETATM    8  C   UNL     1      -9.756  11.401  68.044  1.00  0.00    -0.186 A  
HETATM    9  C   UNL     1      -8.680  10.844  67.360  1.00  0.00    -0.130 A  
HETATM   10  C   UNL     1      -8.241   9.550  67.645  1.00  0.00    -0.121 A  
HETATM   11  C   UNL     1      -8.873   8.768  68.617  1.00  0.00    -0.138 A  
HETATM   12  C   UNL     1     -10.009   9.287  69.258  1.00  0.00    -0.180 A  
HETATM   13  C   UNL     1     -10.438  10.603  68.967  1.00  0.00    -0.237 A  
BRANCH  11  14
HETATM   14  O   UNL     1      -8.404   7.537  69.001  1.00  0.00    -0.126 OA 
BRANCH  14  15
HETATM   15  C   UNL     1      -7.669   6.782  68.023  1.00  0.00    -0.112 C  
BRANCH  15  16
HETATM   16  C   UNL     1      -8.549   5.641  67.492  1.00  0.00    -0.108 C  
HETATM   17  H   UNL     1      -9.477   4.089  68.256  1.00  0.00     0.000 HD 
HETATM   18  O   UNL     1      -8.932   4.794  68.584  1.00  0.00    -0.100 OA 
BRANCH  16  19
HETATM   19  C   UNL     1      -9.822   6.151  66.786  1.00  0.00    -0.164 C  
BRANCH  19  20
HETATM   20  N   UNL     1     -10.062   5.463  65.513  1.00  0.00    -0.376 NA 
HETATM   21  H   UNL     1     -10.228   6.137  64.766  1.00  0.00     0.000 HD 
BRANCH  20  22
HETATM   22  C   UNL     1      -8.994   4.526  65.139  1.00  0.00    -0.147 C  
HETATM   23  C   UNL     1      -9.504   3.090  64.954  1.00  0.00    -0.136 C  
HETATM   24  C   UNL     1      -8.381   5.012  63.825  1.00  0.00    -0.132 C  
ENDBRANCH  20  22
ENDBRANCH  19  20
ENDBRANCH  16  19
ENDBRANCH  15  16
ENDBRANCH  14  15
ENDBRANCH  11  14
BRANCH  12  25
HETATM   25  C   UNL     1     -10.796   8.560  70.299  1.00  0.00    -0.238 C  
HETATM   26  C   UNL     1     -10.754   8.976  71.745  1.00  0.00    -0.437 C  
HETATM   27  O   UNL     1     -11.451   7.575  69.957  1.00  0.00    -0.169 OA 
ENDBRANCH  12  25
ENDBRANCH   6   8
ENDBRANCH   3   4
ENDBRANCH   2   3
TORSDOF 10
ENDMDL
MODEL      195
REMARK 921   NORMALIZED FREE ENERGY PREDICTED BY IDOCK:   -3.25 KCAL/MOL
REMARK 922        TOTAL FREE ENERGY PREDICTED BY IDOCK:   -6.18 KCAL/MOL
REMARK 923 INTER-LIGAND FREE ENERGY PREDICTED BY IDOCK:   -5.32 KCAL/MOL
REMARK 924 INTRA-LIGAND FREE ENERGY PREDICTED BY IDOCK:   -0.86 KCAL/MOL
REMARK 927      BINDING AFFINITY PREDICTED BY RF-SCORE:    0.00 PKD
ROOT
HETATM    1  C   UNL     1      -8.799   6.359  74.413  1.00  0.00    -0.164 C  
HETATM    2  C   UNL     1      -8.433   7.831  74.332  1.00  0.00    -0.251 C  
ENDROOT
BRANCH   2   3
HETATM    3  C   UNL     1      -7.682   8.143  73.044  1.00  0.00    -0.199 C  
BRANCH   3   4
HETATM    4  C   UNL     1      -8.649   8.429  71.918  1.00  0.00    -0.186 C  
HETATM    5  O   UNL     1      -9.840   8.607  72.161  1.00  0.00    -0.297 OA 
HETATM    6  N   UNL     1      -8.040   8.513  70.674  1.00  0.00    -0.107 N  
HETATM    7  H   UNL     1      -7.028   8.381  70.641  1.00  0.00     0.000 HD 
BRANCH   6   8
HETATM    8  C   UNL     1      -8.696   8.764  69.450  1.00  0.00    -0.142 A  
HETATM    9  C   UNL     1      -9.530   9.859  69.249  1.00  0.00    -0.218 A  
HETATM   10  C   UNL     1     -10.085  10.117  67.995  1.00  0.00    -0.186 A  
HETATM   11  C   UNL     1      -9.833   9.280  66.904  1.00  0.00    -0.214 A  
HETATM   12  C   UNL     1      -9.059   8.127  67.112  1.00  0.00    -0.163 A  
HETATM   13  C   UNL     1      -8.494   7.882  68.385  1.00  0.00    -0.128 A  
BRANCH  11  14
HETATM   14  O   UNL     1     -10.270   9.560  65.634  1.00  0.00    -0.228 OA 
BRANCH  14  15
HETATM   15  C   UNL     1      -9.334  10.190  64.744  1.00  0.00    -0.268 C  
BRANCH  15  16
HETATM   16  C   UNL     1      -9.876  11.561  64.318  1.00  0.00    -0.244 C  
HETATM   17  H   UNL     1      -9.859  12.655  62.687  1.00  0.00     0.000 HD 
HETATM   18  O   UNL     1      -9.522  11.806  62.951  1.00  0.00    -0.364 OA 
BRANCH  16  19
HETATM   19  C   UNL     1     -11.409  11.665  64.462  1.00  0.00    -0.240 C  
BRANCH  19  20
HETATM   20  N   UNL     1     -11.811  12.112  65.800  1.00  0.00    -0.513 NA 
HETATM   21  H   UNL     1     -11.391  11.522  66.517  1.00  0.00     0.000 HD 
BRANCH  20  22
HETATM   22  C   UNL     1     -11.522  13.530  66.059  1.00  0.00    -0.325 C  
HETATM   23  C   UNL     1     -12.183  14.464  65.036  1.00  0.00    -0.418 C  
HETATM   24  C   UNL     1     -12.044  13.868  67.456  1.00  0.00    -0.366 C  
ENDBRANCH  20  22
ENDBRANCH  19  20
ENDBRANCH  16  19
ENDBRANCH  15  16
ENDBRANCH  14  15
ENDBRANCH  11  14
BRANCH  12  25
HETATM   25  C   UNL     1      -8.724   7.133  66.048  1.00  0.00    -0.147 C  
HETATM   26  C   UNL     1      -9.661   6.005  65.707  1.00  0.00     0.134 C  
HETATM   27  O   UNL     1      -7.635   7.227  65.480  1.00  0.00    -0.087 OA 
ENDBRANCH  12  25
ENDBRANCH   6   8
ENDBRANCH   3   4
ENDBRANCH   2   3
TORSDOF 10
ENDMDL
MODEL      196
REMARK 921   NORMALIZED FREE ENERGY PREDICTED BY IDOCK:   -3.23 KCAL/MOL
REMARK 922        TOTAL FREE ENERGY PREDICTED BY IDOCK:   -6.15 KCAL/MOL
REMARK 923 INTER-LIGAND FREE ENERGY PREDICTED BY IDOCK:   -5.12 KCAL/MOL
REMARK 924 INTRA-LIGAND FREE ENERGY PREDICTED BY IDOCK:   -1.03 KCAL/MOL
REMARK 927      BINDING AFFINITY PREDICTED BY RF-SCORE:    0.00 PKD
ROOT
HETATM    1  C   UNL     1     -12.779  10.762  71.320  1.00  0.00    -0.546 C  
HETATM    2  C   UNL     1     -11.559  10.517  70.449  1.00  0.00    -0.430 C  
ENDROOT
BRANCH   2   3
HETATM    3  C   UNL     1     -11.751  11.097  69.054  1.00  0.00    -0.408 C  
BRANCH   3   4
HETATM    4  C   UNL     1     -11.138  10.191  68.011  1.00  0.00    -0.240 C  
HETATM    5  O   UNL     1     -10.782  10.650  66.930  1.00  0.00    -0.257 OA 
HETATM    6  N   UNL     1     -10.990   8.878  68.439  1.00  0.00    -0.457 N  
HETATM    7  H   UNL     1     -11.297   8.660  69.387  1.00  0.00     0.000 HD 
BRANCH   6   8
HETATM    8  C   UNL     1     -10.453   7.819  67.676  1.00  0.00    -0.239 A  
HETATM    9  C   UNL     1     -11.145   6.638  67.428  1.00  0.00    -0.398 A  
HETATM   10  C   UNL     1     -10.611   5.655  66.593  1.00  0.00    -0.361 A  
HETATM   11  C   UNL     1      -9.361   5.819  65.988  1.00  0.00    -0.117 A  
HETATM   12  C   UNL     1      -8.617   6.970  66.293  1.00  0.00    -0.142 A  
HETATM   13  C   UNL     1      -9.173   7.962  67.134  1.00  0.00    -0.175 A  
BRANCH  11  14
HETATM   14  O   UNL     1      -8.853   4.928  65.077  1.00  0.00    -0.149 OA 
BRANCH  14  15
HETATM   15  C   UNL     1      -7.994   3.892  65.584  1.00  0.00    -0.093 C  
BRANCH  15  16
HETATM   16  C   UNL     1      -8.842   2.831  66.300  1.00  0.00    -0.144 C  
HETATM   17  H   UNL     1      -9.267   0.933  66.034  1.00  0.00     0.000 HD 
HETATM   18  O   UNL     1      -8.743   1.590  65.590  1.00  0.00    -0.104 OA 
BRANCH  16  19
HETATM   19  C   UNL     1      -8.402   2.606  67.762  1.00  0.00    -0.081 C  
BRANCH  19  20
HETATM   20  N   UNL     1      -9.523   2.714  68.700  1.00  0.00    -0.175 NA 
HETATM   21  H   UNL     1      -9.575   1.888  69.296  1.00  0.00     0.000 HD 
BRANCH  20  22
HETATM   22  C   UNL     1      -9.498   3.939  69.511  1.00  0.00    -0.189 C  
HETATM   23  C   UNL     1      -9.836   3.680  70.986  1.00  0.00    -0.186 C  
HETATM   24  C   UNL     1      -8.092   4.535  69.418  1.00  0.00    -0.064 C  
ENDBRANCH  20  22
ENDBRANCH  19  20
ENDBRANCH  16  19
ENDBRANCH  15  16
ENDBRANCH  14  15
ENDBRANCH  11  14
BRANCH  12  25
HETATM   25  C   UNL     1      -7.262   7.270  65.739  1.00  0.00    -0.070 C  
HETATM   26  C   UNL     1      -6.017   7.060  66.558  1.00  0.00    -0.034 C  
HETATM   27  O   UNL     1      -7.184   7.740  64.603  1.00  0.00    -0.065 OA 
ENDBRANCH  12  25
ENDBRANCH   6   8
ENDBRANCH   3   4
ENDBRANCH   2   3
TORSDOF 10
ENDMDL
MODEL      197
REMARK 921   NORMALIZED FREE ENERGY PREDICTED BY IDOCK:   -3.23 KCAL/MOL
REMARK 922        TOTAL FREE ENERGY PREDICTED BY IDOCK:   -6.15 KCAL/MOL
REMARK 923 INTER-LIGAND FREE ENERGY PREDICTED BY IDOCK:   -5.23 KCAL/MOL
REMARK 924 INTRA-LIGAND FREE ENERGY PREDICTED BY IDOCK:   -0.92 KCAL/MOL
REMARK 927      BINDING AFFINITY PREDICTED BY RF-SCORE:    0.00 PKD
ROOT
HETATM    1  C   UNL     1     -11.710  14.813  68.740  1.00  0.00    -0.354 C  
HETATM    2  C   UNL     1     -10.849  14.956  67.498  1.00  0.00    -0.292 C  
ENDROOT
BRANCH   2   3
HETATM    3  C   UNL     1     -11.615  14.557  66.245  1.00  0.00    -0.364 C  
BRANCH   3   4
HETATM    4  C   UNL     1     -11.511  13.068  66.008  1.00  0.00    -0.335 C  
HETATM    5  O   UNL     1     -12.490  12.436  65.620  1.00  0.00    -0.640 OA 
HETATM    6  N   UNL     1     -10.235  12.564  66.217  1.00  0.00    -0.243 N  
HETATM    7  H   UNL     1      -9.512  13.227  66.498  1.00  0.00     0.000 HD 
BRANCH   6   8
HETATM    8  C   UNL     1      -9.849  11.213  66.075  1.00  0.00    -0.228 A  
HETATM    9  C   UNL     1      -9.424  10.670  64.867  1.00  0.00    -0.293 A  
HETATM   10  C   UNL     1      -8.966   9.353  64.794  1.00  0.00    -0.241 A  
HETATM   11  C   UNL     1      -8.929   8.535  65.927  1.00  0.00    -0.189 A  
HETATM   12  C   UNL     1      -9.429   9.045  67.135  1.00  0.00    -0.196 A  
HETATM   13  C   UNL     1      -9.882  10.383  67.198  1.00  0.00    -0.221 A  
BRANCH  11  14
HETATM   14  O   UNL     1      -8.384   7.276  65.917  1.00  0.00    -0.130 OA 
BRANCH  14  15
HETATM   15  C   UNL     1      -8.431   6.552  64.676  1.00  0.00     0.101 C  
BRANCH  15  16
HETATM   16  C   UNL     1      -8.214   5.057  64.947  1.00  0.00    -0.132 C  
HETATM   17  H   UNL     1      -6.833   3.952  65.800  1.00  0.00     0.000 HD 
HETATM   18  O   UNL     1      -6.967   4.877  65.631  1.00  0.00    -0.060 OA 
BRANCH  16  19
HETATM   19  C   UNL     1      -9.342   4.437  65.798  1.00  0.00    -0.162 C  
BRANCH  19  20
HETATM   20  N   UNL     1      -9.796   3.150  65.261  1.00  0.00    -0.379 NA 
HETATM   21  H   UNL     1     -10.790   3.014  65.447  1.00  0.00     0.000 HD 
BRANCH  20  22
HETATM   22  C   UNL     1      -9.505   2.971  63.832  1.00  0.00    -0.123 C  
HETATM   23  C   UNL     1      -8.935   1.582  63.513  1.00  0.00    -0.088 C  
HETATM   24  C   UNL     1     -10.810   3.166  63.059  1.00  0.00    -0.186 C  
ENDBRANCH  20  22
ENDBRANCH  19  20
ENDBRANCH  16  19
ENDBRANCH  15  16
ENDBRANCH  14  15
ENDBRANCH  11  14
BRANCH  12  25
HETATM   25  C   UNL     1      -9.472   8.281  68.419  1.00  0.00    -0.139 C  
HETATM   26  C   UNL     1      -8.216   7.974  69.190  1.00  0.00    -0.130 C  
HETATM   27  O   UNL     1     -10.560   7.863  68.817  1.00  0.00    -0.200 OA 
ENDBRANCH  12  25
ENDBRANCH   6   8
ENDBRANCH   3   4
ENDBRANCH   2   3
TORSDOF 10
ENDMDL
MODEL      198
REMARK 921   NORMALIZED FREE ENERGY PREDICTED BY IDOCK:   -3.23 KCAL/MOL
REMARK 922        TOTAL FREE ENERGY PREDICTED BY IDOCK:   -6.14 KCAL/MOL
REMARK 923 INTER-LIGAND FREE ENERGY PREDICTED BY IDOCK:   -5.67 KCAL/MOL
REMARK 924 INTRA-LIGAND FREE ENERGY PREDICTED BY IDOCK:   -0.47 KCAL/MOL
REMARK 927      BINDING AFFINITY PREDICTED BY RF-SCORE:    0.00 PKD
ROOT
HETATM    1  C   UNL     1      -8.762   4.704  72.423  1.00  0.00    -0.124 C  
HETATM    2  C   UNL     1      -7.832   5.688  71.734  1.00  0.00    -0.109 C  
ENDROOT
BRANCH   2   3
HETATM    3  C   UNL     1      -7.260   5.101  70.450  1.00  0.00    -0.061 C  
BRANCH   3   4
HETATM    4  C   UNL     1      -7.416   6.073  69.304  1.00  0.00    -0.089 C  
HETATM    5  O   UNL     1      -6.425   6.489  68.710  1.00  0.00    -0.039 OA 
HETATM    6  N   UNL     1      -8.739   6.363  69.002  1.00  0.00    -0.123 N  
HETATM    7  H   UNL     1      -9.456   5.903  69.564  1.00  0.00     0.000 HD 
BRANCH   6   8
HETATM    8  C   UNL     1      -9.180   7.239  67.987  1.00  0.00    -0.131 A  
HETATM    9  C   UNL     1     -10.311   8.039  68.115  1.00  0.00    -0.250 A  
HETATM   10  C   UNL     1     -10.657   8.956  67.122  1.00  0.00    -0.301 A  
HETATM   11  C   UNL     1      -9.889   9.094  65.962  1.00  0.00    -0.272 A  
HETATM   12  C   UNL     1      -8.792   8.236  65.783  1.00  0.00    -0.194 A  
HETATM   13  C   UNL     1      -8.446   7.317  66.801  1.00  0.00    -0.121 A  
BRANCH  11  14
HETATM   14  O   UNL     1     -10.134  10.057  65.017  1.00  0.00    -0.323 OA 
BRANCH  14  15
HETATM   15  C   UNL     1     -10.062  11.427  65.445  1.00  0.00    -0.261 C  
BRANCH  15  16
HETATM   16  C   UNL     1     -11.290  12.190  64.927  1.00  0.00    -0.326 C  
HETATM   17  H   UNL     1     -13.005  12.795  65.665  1.00  0.00     0.000 HD 
HETATM   18  O   UNL     1     -12.246  12.322  65.986  1.00  0.00    -0.646 OA 
BRANCH  16  19
HETATM   19  C   UNL     1     -10.936  13.595  64.395  1.00  0.00    -0.366 C  
BRANCH  19  20
HETATM   20  N   UNL     1      -9.827  14.204  65.137  1.00  0.00    -0.582 NA 
HETATM   21  H   UNL     1      -9.021  14.343  64.528  1.00  0.00     0.000 HD 
BRANCH  20  22
HETATM   22  C   UNL     1     -10.189  15.456  65.815  1.00  0.00    -0.354 C  
HETATM   23  C   UNL     1      -8.968  16.328  66.139  1.00  0.00    -0.374 C  
HETATM   24  C   UNL     1     -11.129  16.235  64.894  1.00  0.00    -0.301 C  
ENDBRANCH  20  22
ENDBRANCH  19  20
ENDBRANCH  16  19
ENDBRANCH  15  16
ENDBRANCH  14  15
ENDBRANCH  11  14
BRANCH  12  25
HETATM   25  C   UNL     1      -7.894   8.253  64.588  1.00  0.00    -0.132 C  
HETATM   26  C   UNL     1      -6.820   9.296  64.430  1.00  0.00    -0.086 C  
HETATM   27  O   UNL     1      -8.081   7.418  63.703  1.00  0.00    -0.107 OA 
ENDBRANCH  12  25
ENDBRANCH   6   8
ENDBRANCH   3   4
ENDBRANCH   2   3
TORSDOF 10
ENDMDL
MODEL      199
REMARK 921   NORMALIZED FREE ENERGY PREDICTED BY IDOCK:   -3.22 KCAL/MOL
REMARK 922        TOTAL FREE ENERGY PREDICTED BY IDOCK:   -6.13 KCAL/MOL
REMARK 923 INTER-LIGAND FREE ENERGY PREDICTED BY IDOCK:   -4.65 KCAL/MOL
REMARK 924 INTRA-LIGAND FREE ENERGY PREDICTED BY IDOCK:   -1.48 KCAL/MOL
REMARK 927      BINDING AFFINITY PREDICTED BY RF-SCORE:    0.00 PKD
ROOT
HETATM    1  C   UNL     1      -7.905   7.482  62.331  1.00  0.00    -0.124 C  
HETATM    2  C   UNL     1      -7.340   7.088  63.684  1.00  0.00    -0.078 C  
ENDROOT
BRANCH   2   3
HETATM    3  C   UNL     1      -8.183   6.003  64.340  1.00  0.00    -0.082 C  
BRANCH   3   4
HETATM    4  C   UNL     1      -8.392   6.303  65.807  1.00  0.00    -0.145 C  
HETATM    5  O   UNL     1      -7.425   6.446  66.550  1.00  0.00    -0.083 OA 
HETATM    6  N   UNL     1      -9.728   6.443  66.157  1.00  0.00    -0.385 N  
HETATM    7  H   UNL     1     -10.418   6.336  65.412  1.00  0.00     0.000 HD 
BRANCH   6   8
HETATM    8  C   UNL     1     -10.216   6.719  67.452  1.00  0.00    -0.197 A  
HETATM    9  C   UNL     1     -10.623   5.725  68.336  1.00  0.00    -0.289 A  
HETATM   10  C   UNL     1     -11.013   6.039  69.639  1.00  0.00    -0.470 A  
HETATM   11  C   UNL     1     -11.018   7.361  70.095  1.00  0.00    -0.255 A  
HETATM   12  C   UNL     1     -10.687   8.381  69.190  1.00  0.00    -0.123 A  
HETATM   13  C   UNL     1     -10.285   8.049  67.875  1.00  0.00    -0.267 A  
BRANCH  11  14
HETATM   14  O   UNL     1     -11.289   7.696  71.398  1.00  0.00    -0.250 OA 
BRANCH  14  15
HETATM   15  C   UNL     1     -12.019   6.738  72.182  1.00  0.00    -0.273 C  
BRANCH  15  16
HETATM   16  C   UNL     1     -11.136   6.247  73.338  1.00  0.00    -0.043 C  
HETATM   17  H   UNL     1     -10.391   4.529  73.928  1.00  0.00     0.000 HD 
HETATM   18  O   UNL     1     -10.937   4.833  73.213  1.00  0.00    -0.260 OA 
BRANCH  16  19
HETATM   19  C   UNL     1      -9.759   6.942  73.373  1.00  0.00    -0.200 C  
BRANCH  19  20
HETATM   20  N   UNL     1      -8.773   6.260  72.529  1.00  0.00    -0.121 NA 
HETATM   21  H   UNL     1      -9.233   5.779  71.756  1.00  0.00     0.000 HD 
BRANCH  20  22
HETATM   22  C   UNL     1      -7.711   7.145  72.031  1.00  0.00    -0.091 C  
HETATM   23  C   UNL     1      -7.464   6.984  70.524  1.00  0.00    -0.088 C  
HETATM   24  C   UNL     1      -8.127   8.588  72.318  1.00  0.00    -0.150 C  
ENDBRANCH  20  22
ENDBRANCH  19  20
ENDBRANCH  16  19
ENDBRANCH  15  16
ENDBRANCH  14  15
ENDBRANCH  11  14
BRANCH  12  25
HETATM   25  C   UNL     1     -10.669   9.836  69.529  1.00  0.00    -0.233 C  
HETATM   26  C   UNL     1     -11.655  10.796  68.918  1.00  0.00    -0.361 C  
HETATM   27  O   UNL     1      -9.795  10.249  70.292  1.00  0.00    -0.085 OA 
ENDBRANCH  12  25
ENDBRANCH   6   8
ENDBRANCH   3   4
ENDBRANCH   2   3
TORSDOF 10
ENDMDL
MODEL      200
REMARK 921   NORMALIZED FREE ENERGY PREDICTED BY IDOCK:   -3.20 KCAL/MOL
REMARK 922        TOTAL FREE ENERGY PREDICTED BY IDOCK:   -6.10 KCAL/MOL
REMARK 923 INTER-LIGAND FREE ENERGY PREDICTED BY IDOCK:   -6.17 KCAL/MOL
REMARK 924 INTRA-LIGAND FREE ENERGY PREDICTED BY IDOCK:    0.06 KCAL/MOL
REMARK 927      BINDING AFFINITY PREDICTED BY RF-SCORE:    0.00 PKD
ROOT
HETATM    1  C   UNL     1     -10.602  10.661  64.270  1.00  0.00    -0.082 C  
HETATM    2  C   UNL     1     -11.491  11.503  63.371  1.00  0.00    -0.274 C  
ENDROOT
BRANCH   2   3
HETATM    3  C   UNL     1     -12.496  12.307  64.185  1.00  0.00    -0.530 C  
BRANCH   3   4
HETATM    4  C   UNL     1     -11.978  13.703  64.442  1.00  0.00    -0.437 C  
HETATM    5  O   UNL     1     -12.608  14.677  64.039  1.00  0.00    -0.819 OA 
HETATM    6  N   UNL     1     -10.810  13.730  65.192  1.00  0.00    -0.325 N  
HETATM    7  H   UNL     1     -10.429  12.832  65.491  1.00  0.00     0.000 HD 
BRANCH   6   8
HETATM    8  C   UNL     1     -10.104  14.890  65.578  1.00  0.00    -0.370 A  
HETATM    9  C   UNL     1     -10.528  16.175  65.256  1.00  0.00    -0.356 A  
HETATM   10  C   UNL     1      -9.847  17.296  65.736  1.00  0.00    -0.051 A  
HETATM   11  C   UNL     1      -8.713  17.164  66.544  1.00  0.00    -0.261 A  
HETATM   12  C   UNL     1      -8.229  15.874  66.810  1.00  0.00    -0.307 A  
HETATM   13  C   UNL     1      -8.933  14.746  66.325  1.00  0.00    -0.153 A  
BRANCH  11  14
HETATM   14  O   UNL     1      -8.084  18.237  67.123  1.00  0.00    -0.219 OA 
BRANCH  14  15
HETATM   15  C   UNL     1      -8.833  19.461  67.218  1.00  0.00    -0.296 C  
BRANCH  15  16
HETATM   16  C   UNL     1      -9.518  19.536  68.589  1.00  0.00    -0.397 C  
HETATM   17  H   UNL     1     -11.278  20.076  69.272  1.00  0.00     0.000 HD 
HETATM   18  O   UNL     1     -10.853  20.031  68.424  1.00  0.00    -0.073 OA 
BRANCH  16  19
HETATM   19  C   UNL     1      -9.579  18.167  69.299  1.00  0.00     0.076 C  
BRANCH  19  20
HETATM   20  N   UNL     1     -10.903  17.546  69.191  1.00  0.00    -0.269 NA 
HETATM   21  H   UNL     1     -11.407  17.911  68.384  1.00  0.00     0.000 HD 
BRANCH  20  22
HETATM   22  C   UNL     1     -10.864  16.077  69.158  1.00  0.00    -0.281 C  
HETATM   23  C   UNL     1     -10.288  15.471  70.445  1.00  0.00    -0.131 C  
HETATM   24  C   UNL     1     -12.294  15.573  68.964  1.00  0.00    -0.016 C  
ENDBRANCH  20  22
ENDBRANCH  19  20
ENDBRANCH  16  19
ENDBRANCH  15  16
ENDBRANCH  14  15
ENDBRANCH  11  14
BRANCH  12  25
HETATM   25  C   UNL     1      -7.020  15.581  67.638  1.00  0.00    -0.179 C  
HETATM   26  C   UNL     1      -6.794  16.261  68.962  1.00  0.00    -0.182 C  
HETATM   27  O   UNL     1      -6.180  14.799  67.192  1.00  0.00    -0.236 OA 
ENDBRANCH  12  25
ENDBRANCH   6   8
ENDBRANCH   3   4
ENDBRANCH   2   3
TORSDOF 10
ENDMDL
MODEL      201
REMARK 921   NORMALIZED FREE ENERGY PREDICTED BY IDOCK:   -3.18 KCAL/MOL
REMARK 922        TOTAL FREE ENERGY PREDICTED BY IDOCK:   -6.07 KCAL/MOL
REMARK 923 INTER-LIGAND FREE ENERGY PREDICTED BY IDOCK:   -4.95 KCAL/MOL
REMARK 924 INTRA-LIGAND FREE ENERGY PREDICTED BY IDOCK:   -1.13 KCAL/MOL
REMARK 927      BINDING AFFINITY PREDICTED BY RF-SCORE:    0.00 PKD
ROOT
HETATM    1  C   UNL     1     -10.750  19.747  65.965  1.00  0.00    -0.493 C  
HETATM    2  C   UNL     1      -9.768  20.001  67.095  1.00  0.00    -0.545 C  
ENDROOT
BRANCH   2   3
HETATM    3  C   UNL     1      -8.344  19.660  66.676  1.00  0.00    -0.349 C  
BRANCH   3   4
HETATM    4  C   UNL     1      -8.214  18.183  66.381  1.00  0.00    -0.253 C  
HETATM    5  O   UNL     1      -7.722  17.808  65.321  1.00  0.00     0.077 OA 
HETATM    6  N   UNL     1      -8.643  17.373  67.424  1.00  0.00    -0.212 N  
HETATM    7  H   UNL     1      -8.989  17.837  68.263  1.00  0.00     0.000 HD 
BRANCH   6   8
HETATM    8  C   UNL     1      -8.641  15.961  67.424  1.00  0.00    -0.172 A  
HETATM    9  C   UNL     1      -7.473  15.205  67.417  1.00  0.00    -0.239 A  
HETATM   10  C   UNL     1      -7.519  13.813  67.510  1.00  0.00    -0.182 A  
HETATM   11  C   UNL     1      -8.737  13.132  67.600  1.00  0.00    -0.192 A  
HETATM   12  C   UNL     1      -9.925  13.877  67.527  1.00  0.00    -0.240 A  
HETATM   13  C   UNL     1      -9.865  15.287  67.442  1.00  0.00    -0.217 A  
BRANCH  11  14
HETATM   14  O   UNL     1      -8.819  11.778  67.802  1.00  0.00    -0.151 OA 
BRANCH  14  15
HETATM   15  C   UNL     1      -7.853  11.189  68.690  1.00  0.00    -0.138 C  
BRANCH  15  16
HETATM   16  C   UNL     1      -7.544   9.757  68.231  1.00  0.00    -0.081 C  
HETATM   17  H   UNL     1      -7.927   7.943  68.878  1.00  0.00     0.000 HD 
HETATM   18  O   UNL     1      -8.118   8.829  69.162  1.00  0.00    -0.113 OA 
BRANCH  16  19
HETATM   19  C   UNL     1      -8.092   9.452  66.822  1.00  0.00    -0.109 C  
BRANCH  19  20
HETATM   20  N   UNL     1      -7.266  10.047  65.766  1.00  0.00    -0.111 NA 
HETATM   21  H   UNL     1      -6.535  10.634  66.169  1.00  0.00     0.000 HD 
BRANCH  20  22
HETATM   22  C   UNL     1      -6.690   9.061  64.842  1.00  0.00    -0.069 C  
HETATM   23  C   UNL     1      -5.184   8.855  65.059  1.00  0.00    -0.038 C  
HETATM   24  C   UNL     1      -7.413   7.732  65.062  1.00  0.00    -0.089 C  
ENDBRANCH  20  22
ENDBRANCH  19  20
ENDBRANCH  16  19
ENDBRANCH  15  16
ENDBRANCH  14  15
ENDBRANCH  11  14
BRANCH  12  25
HETATM   25  C   UNL     1     -11.296  13.285  67.590  1.00  0.00    -0.296 C  
HETATM   26  C   UNL     1     -12.143  13.139  66.354  1.00  0.00    -0.447 C  
HETATM   27  O   UNL     1     -11.743  12.957  68.689  1.00  0.00    -0.286 OA 
ENDBRANCH  12  25
ENDBRANCH   6   8
ENDBRANCH   3   4
ENDBRANCH   2   3
TORSDOF 10
ENDMDL
MODEL      202
REMARK 921   NORMALIZED FREE ENERGY PREDICTED BY IDOCK:   -3.18 KCAL/MOL
REMARK 922        TOTAL FREE ENERGY PREDICTED BY IDOCK:   -6.07 KCAL/MOL
REMARK 923 INTER-LIGAND FREE ENERGY PREDICTED BY IDOCK:   -4.41 KCAL/MOL
REMARK 924 INTRA-LIGAND FREE ENERGY PREDICTED BY IDOCK:   -1.66 KCAL/MOL
REMARK 927      BINDING AFFINITY PREDICTED BY RF-SCORE:    0.00 PKD
ROOT
HETATM    1  C   UNL     1     -11.881  15.528  69.667  1.00  0.00    -0.384 C  
HETATM    2  C   UNL     1     -10.785  16.093  68.780  1.00  0.00    -0.294 C  
ENDROOT
BRANCH   2   3
HETATM    3  C   UNL     1     -10.946  15.630  67.339  1.00  0.00    -0.293 C  
BRANCH   3   4
HETATM    4  C   UNL     1     -10.573  14.172  67.202  1.00  0.00    -0.278 C  
HETATM    5  O   UNL     1     -11.236  13.432  66.481  1.00  0.00    -0.296 OA 
HETATM    6  N   UNL     1      -9.428  13.826  67.907  1.00  0.00    -0.207 N  
HETATM    7  H   UNL     1      -8.962  14.568  68.430  1.00  0.00     0.000 HD 
BRANCH   6   8
HETATM    8  C   UNL     1      -8.853  12.539  67.965  1.00  0.00    -0.187 A  
HETATM    9  C   UNL     1      -7.728  12.178  67.229  1.00  0.00    -0.168 A  
HETATM   10  C   UNL     1      -7.141  10.922  67.387  1.00  0.00    -0.093 A  
HETATM   11  C   UNL     1      -7.667   9.981  68.278  1.00  0.00    -0.084 A  
HETATM   12  C   UNL     1      -8.848  10.303  68.967  1.00  0.00    -0.170 A  
HETATM   13  C   UNL     1      -9.429  11.582  68.805  1.00  0.00    -0.099 A  
BRANCH  11  14
HETATM   14  O   UNL     1      -7.056   8.782  68.541  1.00  0.00    -0.070 OA 
BRANCH  14  15
HETATM   15  C   UNL     1      -6.538   8.052  67.416  1.00  0.00    -0.058 C  
BRANCH  15  16
HETATM   16  C   UNL     1      -7.538   6.959  67.012  1.00  0.00    -0.102 C  
HETATM   17  H   UNL     1      -8.950   5.924  67.901  1.00  0.00     0.000 HD 
HETATM   18  O   UNL     1      -8.331   6.599  68.151  1.00  0.00    -0.116 OA 
BRANCH  16  19
HETATM   19  C   UNL     1      -8.478   7.405  65.872  1.00  0.00    -0.150 C  
BRANCH  19  20
HETATM   20  N   UNL     1      -7.843   8.383  64.982  1.00  0.00    -0.110 NA 
HETATM   21  H   UNL     1      -7.179   7.924  64.360  1.00  0.00     0.000 HD 
BRANCH  20  22
HETATM   22  C   UNL     1      -8.802   9.190  64.215  1.00  0.00    -0.100 C  
HETATM   23  C   UNL     1      -9.805   9.928  65.112  1.00  0.00    -0.348 C  
HETATM   24  C   UNL     1      -8.009  10.215  63.403  1.00  0.00    -0.160 C  
ENDBRANCH  20  22
ENDBRANCH  19  20
ENDBRANCH  16  19
ENDBRANCH  15  16
ENDBRANCH  14  15
ENDBRANCH  11  14
BRANCH  12  25
HETATM   25  C   UNL     1      -9.534   9.392  69.933  1.00  0.00    -0.213 C  
HETATM   26  C   UNL     1     -10.782   8.642  69.551  1.00  0.00    -0.189 C  
HETATM   27  O   UNL     1      -9.082   9.301  71.075  1.00  0.00    -0.239 OA 
ENDBRANCH  12  25
ENDBRANCH   6   8
ENDBRANCH   3   4
ENDBRANCH   2   3
TORSDOF 10
ENDMDL
MODEL      203
REMARK 921   NORMALIZED FREE ENERGY PREDICTED BY IDOCK:   -3.15 KCAL/MOL
REMARK 922        TOTAL FREE ENERGY PREDICTED BY IDOCK:   -6.02 KCAL/MOL
REMARK 923 INTER-LIGAND FREE ENERGY PREDICTED BY IDOCK:   -4.76 KCAL/MOL
REMARK 924 INTRA-LIGAND FREE ENERGY PREDICTED BY IDOCK:   -1.26 KCAL/MOL
REMARK 927      BINDING AFFINITY PREDICTED BY RF-SCORE:    0.00 PKD
ROOT
HETATM    1  C   UNL     1     -11.434  15.078  69.817  1.00  0.00    -0.324 C  
HETATM    2  C   UNL     1     -10.283  16.023  69.520  1.00  0.00    -0.274 C  
ENDROOT
BRANCH   2   3
HETATM    3  C   UNL     1      -9.533  15.603  68.263  1.00  0.00    -0.200 C  
BRANCH   3   4
HETATM    4  C   UNL     1      -9.285  14.112  68.263  1.00  0.00    -0.198 C  
HETATM    5  O   UNL     1      -8.333  13.647  68.883  1.00  0.00    -0.016 OA 
HETATM    6  N   UNL     1     -10.246  13.393  67.565  1.00  0.00    -0.225 N  
HETATM    7  H   UNL     1     -11.005  13.923  67.137  1.00  0.00     0.000 HD 
BRANCH   6   8
HETATM    8  C   UNL     1     -10.264  11.992  67.397  1.00  0.00    -0.200 A  
HETATM    9  C   UNL     1     -11.050  11.146  68.173  1.00  0.00    -0.324 A  
HETATM   10  C   UNL     1     -11.106   9.776  67.910  1.00  0.00    -0.161 A  
HETATM   11  C   UNL     1     -10.366   9.207  66.868  1.00  0.00    -0.251 A  
HETATM   12  C   UNL     1      -9.508  10.036  66.129  1.00  0.00    -0.242 A  
HETATM   13  C   UNL     1      -9.468  11.424  66.399  1.00  0.00    -0.224 A  
BRANCH  11  14
HETATM   14  O   UNL     1     -10.479   7.887  66.511  1.00  0.00    -0.233 OA 
BRANCH  14  15
HETATM   15  C   UNL     1     -10.738   6.944  67.565  1.00  0.00    -0.298 C  
BRANCH  15  16
HETATM   16  C   UNL     1      -9.504   6.055  67.770  1.00  0.00    -0.112 C  
HETATM   17  H   UNL     1      -8.013   5.414  66.665  1.00  0.00     0.000 HD 
HETATM   18  O   UNL     1      -8.777   5.964  66.538  1.00  0.00    -0.119 OA 
BRANCH  16  19
HETATM   19  C   UNL     1      -8.560   6.591  68.867  1.00  0.00    -0.125 C  
BRANCH  19  20
HETATM   20  N   UNL     1      -9.284   7.326  69.910  1.00  0.00    -0.142 NA 
HETATM   21  H   UNL     1      -9.762   6.680  70.538  1.00  0.00     0.000 HD 
BRANCH  20  22
HETATM   22  C   UNL     1      -8.440   8.259  70.668  1.00  0.00    -0.130 C  
HETATM   23  C   UNL     1      -8.013   9.478  69.840  1.00  0.00    -0.154 C  
HETATM   24  C   UNL     1      -9.238   8.733  71.883  1.00  0.00    -0.320 C  
ENDBRANCH  20  22
ENDBRANCH  19  20
ENDBRANCH  16  19
ENDBRANCH  15  16
ENDBRANCH  14  15
ENDBRANCH  11  14
BRANCH  12  25
HETATM   25  C   UNL     1      -8.645   9.566  65.004  1.00  0.00    -0.167 C  
HETATM   26  C   UNL     1      -7.194   9.224  65.218  1.00  0.00    -0.090 C  
HETATM   27  O   UNL     1      -9.135   9.505  63.875  1.00  0.00    -0.230 OA 
ENDBRANCH  12  25
ENDBRANCH   6   8
ENDBRANCH   3   4
ENDBRANCH   2   3
TORSDOF 10
ENDMDL
MODEL      204
REMARK 921   NORMALIZED FREE ENERGY PREDICTED BY IDOCK:   -3.12 KCAL/MOL
REMARK 922        TOTAL FREE ENERGY PREDICTED BY IDOCK:   -5.98 KCAL/MOL
REMARK 923 INTER-LIGAND FREE ENERGY PREDICTED BY IDOCK:   -5.14 KCAL/MOL
REMARK 924 INTRA-LIGAND FREE ENERGY PREDICTED BY IDOCK:   -0.84 KCAL/MOL
REMARK 927      BINDING AFFINITY PREDICTED BY RF-SCORE:    0.00 PKD
ROOT
HETATM    1  C   UNL     1      -7.177   1.802  69.196  1.00  0.00    -0.039 C  
HETATM    2  C   UNL     1      -7.838   2.371  70.440  1.00  0.00    -0.047 C  
ENDROOT
BRANCH   2   3
HETATM    3  C   UNL     1      -9.321   2.627  70.209  1.00  0.00    -0.201 C  
BRANCH   3   4
HETATM    4  C   UNL     1      -9.532   3.962  69.532  1.00  0.00    -0.189 C  
HETATM    5  O   UNL     1      -9.733   4.013  68.321  1.00  0.00    -0.144 OA 
HETATM    6  N   UNL     1      -9.527   5.035  70.413  1.00  0.00    -0.157 N  
HETATM    7  H   UNL     1      -9.388   4.825  71.402  1.00  0.00     0.000 HD 
BRANCH   6   8
HETATM    8  C   UNL     1      -9.695   6.391  70.060  1.00  0.00    -0.165 A  
HETATM    9  C   UNL     1     -10.933   6.944  69.747  1.00  0.00    -0.310 A  
HETATM   10  C   UNL     1     -11.065   8.310  69.493  1.00  0.00     0.039 A  
HETATM   11  C   UNL     1      -9.959   9.165  69.534  1.00  0.00    -0.189 A  
HETATM   12  C   UNL     1      -8.692   8.608  69.770  1.00  0.00    -0.132 A  
HETATM   13  C   UNL     1      -8.573   7.223  70.034  1.00  0.00    -0.140 A  
BRANCH  11  14
HETATM   14  O   UNL     1     -10.066  10.526  69.398  1.00  0.00    -0.222 OA 
BRANCH  14  15
HETATM   15  C   UNL     1     -10.163  11.045  68.061  1.00  0.00    -0.179 C  
BRANCH  15  16
HETATM   16  C   UNL     1     -11.449  11.871  67.926  1.00  0.00    -0.316 C  
HETATM   17  H   UNL     1     -12.169  13.522  68.710  1.00  0.00     0.000 HD 
HETATM   18  O   UNL     1     -11.373  13.010  68.794  1.00  0.00    -0.252 OA 
BRANCH  16  19
HETATM   19  C   UNL     1     -11.694  12.360  66.483  1.00  0.00    -0.379 C  
BRANCH  19  20
HETATM   20  N   UNL     1     -10.607  11.975  65.577  1.00  0.00    -0.263 NA 
HETATM   21  H   UNL     1      -9.991  11.295  66.022  1.00  0.00     0.000 HD 
BRANCH  20  22
HETATM   22  C   UNL     1     -11.073  11.479  64.275  1.00  0.00    -0.315 C  
HETATM   23  C   UNL     1     -12.117  12.400  63.630  1.00  0.00    -0.648 C  
HETATM   24  C   UNL     1      -9.859  11.374  63.350  1.00  0.00    -0.422 C  
ENDBRANCH  20  22
ENDBRANCH  19  20
ENDBRANCH  16  19
ENDBRANCH  15  16
ENDBRANCH  14  15
ENDBRANCH  11  14
BRANCH  12  25
HETATM   25  C   UNL     1      -7.422   9.393  69.822  1.00  0.00    -0.087 C  
HETATM   26  C   UNL     1      -6.417   9.334  68.702  1.00  0.00    -0.053 C  
HETATM   27  O   UNL     1      -7.187  10.062  70.829  1.00  0.00    -0.328 OA 
ENDBRANCH  12  25
ENDBRANCH   6   8
ENDBRANCH   3   4
ENDBRANCH   2   3
TORSDOF 10
ENDMDL
MODEL      205
REMARK 921   NORMALIZED FREE ENERGY PREDICTED BY IDOCK:   -3.09 KCAL/MOL
REMARK 922        TOTAL FREE ENERGY PREDICTED BY IDOCK:   -5.93 KCAL/MOL
REMARK 923 INTER-LIGAND FREE ENERGY PREDICTED BY IDOCK:   -4.83 KCAL/MOL
REMARK 924 INTRA-LIGAND FREE ENERGY PREDICTED BY IDOCK:   -1.10 KCAL/MOL
REMARK 927      BINDING AFFINITY PREDICTED BY RF-SCORE:    0.00 PKD
ROOT
HETATM    1  C   UNL     1     -11.474  14.838  67.205  1.00  0.00    -0.375 C  
HETATM    2  C   UNL     1     -10.568  14.697  65.994  1.00  0.00    -0.314 C  
ENDROOT
BRANCH   2   3
HETATM    3  C   UNL     1     -11.305  14.060  64.824  1.00  0.00    -0.366 C  
BRANCH   3   4
HETATM    4  C   UNL     1     -11.242  12.552  64.912  1.00  0.00    -0.305 C  
HETATM    5  O   UNL     1     -12.175  11.872  64.493  1.00  0.00    -0.262 OA 
HETATM    6  N   UNL     1     -10.049  12.079  65.439  1.00  0.00    -0.252 N  
HETATM    7  H   UNL     1      -9.349  12.773  65.704  1.00  0.00     0.000 HD 
BRANCH   6   8
HETATM    8  C   UNL     1      -9.717  10.722  65.640  1.00  0.00    -0.237 A  
HETATM    9  C   UNL     1      -9.001   9.971  64.713  1.00  0.00    -0.247 A  
HETATM   10  C   UNL     1      -8.618   8.659  64.994  1.00  0.00    -0.185 A  
HETATM   11  C   UNL     1      -8.950   8.052  66.210  1.00  0.00    -0.171 A  
HETATM   12  C   UNL     1      -9.740   8.770  67.121  1.00  0.00    -0.248 A  
HETATM   13  C   UNL     1     -10.115  10.102  66.828  1.00  0.00    -0.277 A  
BRANCH  11  14
HETATM   14  O   UNL     1      -8.498   6.806  66.566  1.00  0.00    -0.115 OA 
BRANCH  14  15
HETATM   15  C   UNL     1      -9.100   5.679  65.907  1.00  0.00    -0.148 C  
BRANCH  15  16
HETATM   16  C   UNL     1      -8.901   4.421  66.764  1.00  0.00    -0.114 C  
HETATM   17  H   UNL     1      -9.201   2.493  66.549  1.00  0.00     0.000 HD 
HETATM   18  O   UNL     1      -9.324   3.271  66.019  1.00  0.00    -0.157 OA 
BRANCH  16  19
HETATM   19  C   UNL     1      -7.434   4.222  67.197  1.00  0.00    -0.077 C  
BRANCH  19  20
HETATM   20  N   UNL     1      -7.319   3.870  68.616  1.00  0.00    -0.054 NA 
HETATM   21  H   UNL     1      -6.385   4.083  68.965  1.00  0.00     0.000 HD 
BRANCH  20  22
HETATM   22  C   UNL     1      -8.345   4.494  69.463  1.00  0.00    -0.073 C  
HETATM   23  C   UNL     1      -9.044   3.486  70.386  1.00  0.00    -0.197 C  
HETATM   24  C   UNL     1      -7.663   5.564  70.316  1.00  0.00    -0.085 C  
ENDBRANCH  20  22
ENDBRANCH  19  20
ENDBRANCH  16  19
ENDBRANCH  15  16
ENDBRANCH  14  15
ENDBRANCH  11  14
BRANCH  12  25
HETATM   25  C   UNL     1     -10.187   8.244  68.446  1.00  0.00    -0.209 C  
HETATM   26  C   UNL     1      -9.834   8.949  69.728  1.00  0.00    -0.186 C  
HETATM   27  O   UNL     1     -10.819   7.187  68.474  1.00  0.00    -0.177 OA 
ENDBRANCH  12  25
ENDBRANCH   6   8
ENDBRANCH   3   4
ENDBRANCH   2   3
TORSDOF 10
ENDMDL
MODEL      206
REMARK 921   NORMALIZED FREE ENERGY PREDICTED BY IDOCK:   -3.06 KCAL/MOL
REMARK 922        TOTAL FREE ENERGY PREDICTED BY IDOCK:   -5.89 KCAL/MOL
REMARK 923 INTER-LIGAND FREE ENERGY PREDICTED BY IDOCK:   -4.85 KCAL/MOL
REMARK 924 INTRA-LIGAND FREE ENERGY PREDICTED BY IDOCK:   -1.04 KCAL/MOL
REMARK 927      BINDING AFFINITY PREDICTED BY RF-SCORE:    0.00 PKD
ROOT
HETATM    1  C   UNL     1      -8.708   5.051  73.891  1.00  0.00    -0.112 C  
HETATM    2  C   UNL     1      -8.478   6.525  73.609  1.00  0.00    -0.130 C  
ENDROOT
BRANCH   2   3
HETATM    3  C   UNL     1      -7.439   6.723  72.514  1.00  0.00    -0.091 C  
BRANCH   3   4
HETATM    4  C   UNL     1      -7.852   7.838  71.581  1.00  0.00    -0.089 C  
HETATM    5  O   UNL     1      -7.202   8.879  71.540  1.00  0.00    -0.151 OA 
HETATM    6  N   UNL     1      -8.952   7.521  70.795  1.00  0.00    -0.149 N  
HETATM    7  H   UNL     1      -9.359   6.593  70.917  1.00  0.00     0.000 HD 
BRANCH   6   8
HETATM    8  C   UNL     1      -9.556   8.369  69.843  1.00  0.00    -0.171 A  
HETATM    9  C   UNL     1     -10.727   9.077  70.094  1.00  0.00    -0.258 A  
HETATM   10  C   UNL     1     -11.239   9.974  69.154  1.00  0.00    -0.197 A  
HETATM   11  C   UNL     1     -10.599  10.183  67.928  1.00  0.00    -0.249 A  
HETATM   12  C   UNL     1      -9.462   9.417  67.629  1.00  0.00    -0.154 A  
HETATM   13  C   UNL     1      -8.948   8.517  68.593  1.00  0.00    -0.139 A  
BRANCH  11  14
HETATM   14  O   UNL     1     -11.010  11.134  67.029  1.00  0.00    -0.275 OA 
BRANCH  14  15
HETATM   15  C   UNL     1     -10.974  12.504  67.463  1.00  0.00    -0.251 C  
BRANCH  15  16
HETATM   16  C   UNL     1     -10.465  13.389  66.317  1.00  0.00    -0.289 C  
HETATM   17  H   UNL     1     -11.270  14.492  64.906  1.00  0.00     0.000 HD 
HETATM   18  O   UNL     1     -11.585  13.944  65.615  1.00  0.00    -0.319 OA 
BRANCH  16  19
HETATM   19  C   UNL     1      -9.566  14.542  66.810  1.00  0.00    -0.263 C  
BRANCH  19  20
HETATM   20  N   UNL     1     -10.344  15.720  67.207  1.00  0.00    -0.283 NA 
HETATM   21  H   UNL     1     -11.335  15.580  67.010  1.00  0.00     0.000 HD 
BRANCH  20  22
HETATM   22  C   UNL     1     -10.145  16.113  68.609  1.00  0.00    -0.231 C  
HETATM   23  C   UNL     1     -11.342  15.755  69.500  1.00  0.00    -0.328 C  
HETATM   24  C   UNL     1      -8.901  15.391  69.128  1.00  0.00    -0.249 C  
ENDBRANCH  20  22
ENDBRANCH  19  20
ENDBRANCH  16  19
ENDBRANCH  15  16
ENDBRANCH  14  15
ENDBRANCH  11  14
BRANCH  12  25
HETATM   25  C   UNL     1      -8.689   9.517  66.354  1.00  0.00    -0.135 C  
HETATM   26  C   UNL     1      -7.667  10.601  66.141  1.00  0.00    -0.145 C  
HETATM   27  O   UNL     1      -8.938   8.715  65.454  1.00  0.00    -0.189 OA 
ENDBRANCH  12  25
ENDBRANCH   6   8
ENDBRANCH   3   4
ENDBRANCH   2   3
TORSDOF 10
ENDMDL
MODEL      207
REMARK 921   NORMALIZED FREE ENERGY PREDICTED BY IDOCK:   -3.04 KCAL/MOL
REMARK 922        TOTAL FREE ENERGY PREDICTED BY IDOCK:   -5.84 KCAL/MOL
REMARK 923 INTER-LIGAND FREE ENERGY PREDICTED BY IDOCK:   -5.68 KCAL/MOL
REMARK 924 INTRA-LIGAND FREE ENERGY PREDICTED BY IDOCK:   -0.16 KCAL/MOL
REMARK 927      BINDING AFFINITY PREDICTED BY RF-SCORE:    0.00 PKD
ROOT
HETATM    1  C   UNL     1     -12.792  11.949  63.492  1.00  0.00    -0.435 C  
HETATM    2  C   UNL     1     -11.459  11.222  63.462  1.00  0.00     0.004 C  
ENDROOT
BRANCH   2   3
HETATM    3  C   UNL     1     -10.300  12.199  63.316  1.00  0.00    -0.352 C  
BRANCH   3   4
HETATM    4  C   UNL     1     -10.431  13.334  64.305  1.00  0.00    -0.352 C  
HETATM    5  O   UNL     1     -11.224  14.247  64.094  1.00  0.00    -0.206 OA 
HETATM    6  N   UNL     1      -9.631  13.180  65.430  1.00  0.00    -0.489 N  
HETATM    7  H   UNL     1      -9.054  12.341  65.480  1.00  0.00     0.000 HD 
BRANCH   6   8
HETATM    8  C   UNL     1      -9.547  14.084  66.510  1.00  0.00    -0.293 A  
HETATM    9  C   UNL     1      -8.570  15.071  66.598  1.00  0.00    -0.246 A  
HETATM   10  C   UNL     1      -8.580  16.001  67.639  1.00  0.00    -0.175 A  
HETATM   11  C   UNL     1      -9.564  15.965  68.633  1.00  0.00    -0.209 A  
HETATM   12  C   UNL     1     -10.507  14.927  68.601  1.00  0.00    -0.242 A  
HETATM   13  C   UNL     1     -10.492  13.996  67.536  1.00  0.00    -0.252 A  
BRANCH  11  14
HETATM   14  O   UNL     1      -9.671  16.925  69.607  1.00  0.00     0.005 OA 
BRANCH  14  15
HETATM   15  C   UNL     1     -10.483  18.073  69.309  1.00  0.00     0.192 C  
BRANCH  15  16
HETATM   16  C   UNL     1      -9.598  19.326  69.261  1.00  0.00    -0.197 C  
HETATM   17  H   UNL     1      -7.676  19.706  69.128  1.00  0.00     0.000 HD 
HETATM   18  O   UNL     1      -8.224  18.931  69.158  1.00  0.00    -0.199 OA 
BRANCH  16  19
HETATM   19  C   UNL     1      -9.940  20.251  68.074  1.00  0.00    -0.319 C  
BRANCH  19  20
HETATM   20  N   UNL     1     -10.882  19.626  67.140  1.00  0.00    -0.465 NA 
HETATM   21  H   UNL     1     -11.704  20.216  67.010  1.00  0.00     0.000 HD 
BRANCH  20  22
HETATM   22  C   UNL     1     -10.284  19.277  65.844  1.00  0.00    -0.362 C  
HETATM   23  C   UNL     1      -8.753  19.395  65.848  1.00  0.00    -0.025 C  
HETATM   24  C   UNL     1     -10.673  17.834  65.521  1.00  0.00    -0.009 C  
ENDBRANCH  20  22
ENDBRANCH  19  20
ENDBRANCH  16  19
ENDBRANCH  15  16
ENDBRANCH  14  15
ENDBRANCH  11  14
BRANCH  12  25
HETATM   25  C   UNL     1     -11.601  14.750  69.605  1.00  0.00    -0.304 C  
HETATM   26  C   UNL     1     -11.913  13.401  70.194  1.00  0.00    -0.396 C  
HETATM   27  O   UNL     1     -12.279  15.731  69.911  1.00  0.00    -0.352 OA 
ENDBRANCH  12  25
ENDBRANCH   6   8
ENDBRANCH   3   4
ENDBRANCH   2   3
TORSDOF 10
ENDMDL
MODEL      208
REMARK 921   NORMALIZED FREE ENERGY PREDICTED BY IDOCK:   -3.02 KCAL/MOL
REMARK 922        TOTAL FREE ENERGY PREDICTED BY IDOCK:   -5.82 KCAL/MOL
REMARK 923 INTER-LIGAND FREE ENERGY PREDICTED BY IDOCK:   -5.24 KCAL/MOL
REMARK 924 INTRA-LIGAND FREE ENERGY PREDICTED BY IDOCK:   -0.57 KCAL/MOL
REMARK 927      BINDING AFFINITY PREDICTED BY RF-SCORE:    0.00 PKD
ROOT
HETATM    1  C   UNL     1     -10.625   5.156  70.779  1.00  0.00    -0.205 C  
HETATM    2  C   UNL     1     -10.958   5.995  72.000  1.00  0.00    -0.313 C  
ENDROOT
BRANCH   2   3
HETATM    3  C   UNL     1     -12.089   6.972  71.707  1.00  0.00    -0.371 C  
BRANCH   3   4
HETATM    4  C   UNL     1     -11.541   8.346  71.401  1.00  0.00    -0.284 C  
HETATM    5  O   UNL     1     -11.255   9.113  72.316  1.00  0.00    -0.249 OA 
HETATM    6  N   UNL     1     -11.364   8.580  70.044  1.00  0.00    -0.450 N  
HETATM    7  H   UNL     1     -11.609   7.823  69.405  1.00  0.00     0.000 HD 
BRANCH   6   8
HETATM    8  C   UNL     1     -10.873   9.772  69.470  1.00  0.00    -0.240 A  
HETATM    9  C   UNL     1     -11.704  10.765  68.960  1.00  0.00    -0.357 A  
HETATM   10  C   UNL     1     -11.178  11.967  68.486  1.00  0.00    -0.306 A  
HETATM   11  C   UNL     1      -9.801  12.210  68.496  1.00  0.00    -0.162 A  
HETATM   12  C   UNL     1      -8.946  11.186  68.933  1.00  0.00    -0.089 A  
HETATM   13  C   UNL     1      -9.492   9.976  69.420  1.00  0.00    -0.237 A  
BRANCH  11  14
HETATM   14  O   UNL     1      -9.256  13.418  68.141  1.00  0.00    -0.205 OA 
BRANCH  14  15
HETATM   15  C   UNL     1      -9.045  13.654  66.739  1.00  0.00    -0.217 C  
BRANCH  15  16
HETATM   16  C   UNL     1     -10.293  13.226  65.955  1.00  0.00    -0.292 C  
HETATM   17  H   UNL     1     -11.723  14.127  64.955  1.00  0.00     0.000 HD 
HETATM   18  O   UNL     1     -10.951  14.391  65.441  1.00  0.00    -0.309 OA 
BRANCH  16  19
HETATM   19  C   UNL     1      -9.964  12.281  64.780  1.00  0.00    -0.190 C  
BRANCH  19  20
HETATM   20  N   UNL     1      -9.594  10.938  65.238  1.00  0.00    -0.215 NA 
HETATM   21  H   UNL     1     -10.385  10.483  65.693  1.00  0.00     0.000 HD 
BRANCH  20  22
HETATM   22  C   UNL     1      -9.045  10.083  64.176  1.00  0.00    -0.255 C  
HETATM   23  C   UNL     1      -8.843  10.838  62.854  1.00  0.00    -0.261 C  
HETATM   24  C   UNL     1      -7.697   9.545  64.655  1.00  0.00    -0.120 C  
ENDBRANCH  20  22
ENDBRANCH  19  20
ENDBRANCH  16  19
ENDBRANCH  15  16
ENDBRANCH  14  15
ENDBRANCH  11  14
BRANCH  12  25
HETATM   25  C   UNL     1      -7.456  11.295  68.980  1.00  0.00    -0.116 C  
HETATM   26  C   UNL     1      -6.760  12.054  70.078  1.00  0.00     0.267 C  
HETATM   27  O   UNL     1      -6.802  10.785  68.070  1.00  0.00    -0.067 OA 
ENDBRANCH  12  25
ENDBRANCH   6   8
ENDBRANCH   3   4
ENDBRANCH   2   3
TORSDOF 10
ENDMDL
MODEL      209
REMARK 921   NORMALIZED FREE ENERGY PREDICTED BY IDOCK:   -2.93 KCAL/MOL
REMARK 922        TOTAL FREE ENERGY PREDICTED BY IDOCK:   -5.67 KCAL/MOL
REMARK 923 INTER-LIGAND FREE ENERGY PREDICTED BY IDOCK:   -5.01 KCAL/MOL
REMARK 924 INTRA-LIGAND FREE ENERGY PREDICTED BY IDOCK:   -0.66 KCAL/MOL
REMARK 927      BINDING AFFINITY PREDICTED BY RF-SCORE:    0.00 PKD
ROOT
HETATM    1  C   UNL     1     -11.380  14.689  70.900  1.00  0.00    -0.140 C  
HETATM    2  C   UNL     1     -12.083  15.799  70.139  1.00  0.00    -0.355 C  
ENDROOT
BRANCH   2   3
HETATM    3  C   UNL     1     -11.590  15.881  68.700  1.00  0.00    -0.383 C  
BRANCH   3   4
HETATM    4  C   UNL     1     -11.574  14.511  68.063  1.00  0.00    -0.336 C  
HETATM    5  O   UNL     1     -12.630  13.932  67.822  1.00  0.00     0.045 OA 
HETATM    6  N   UNL     1     -10.298  14.058  67.758  1.00  0.00    -0.234 N  
HETATM    7  H   UNL     1      -9.519  14.677  67.984  1.00  0.00     0.000 HD 
BRANCH   6   8
HETATM    8  C   UNL     1      -9.984  12.817  67.164  1.00  0.00    -0.218 A  
HETATM    9  C   UNL     1      -9.424  11.758  67.873  1.00  0.00    -0.191 A  
HETATM   10  C   UNL     1      -9.215  10.519  67.265  1.00  0.00    -0.156 A  
HETATM   11  C   UNL     1      -9.549  10.303  65.924  1.00  0.00    -0.209 A  
HETATM   12  C   UNL     1     -10.039  11.385  65.176  1.00  0.00    -0.319 A  
HETATM   13  C   UNL     1     -10.256  12.633  65.806  1.00  0.00    -0.288 A  
BRANCH  11  14
HETATM   14  O   UNL     1      -9.460   9.073  65.325  1.00  0.00    -0.186 OA 
BRANCH  14  15
HETATM   15  C   UNL     1      -8.149   8.624  64.943  1.00  0.00    -0.146 C  
BRANCH  15  16
HETATM   16  C   UNL     1      -7.882   7.243  65.559  1.00  0.00    -0.115 C  
HETATM   17  H   UNL     1      -8.243   6.357  67.273  1.00  0.00     0.000 HD 
HETATM   18  O   UNL     1      -8.408   7.211  66.892  1.00  0.00    -0.115 OA 
BRANCH  16  19
HETATM   19  C   UNL     1      -8.517   6.097  64.745  1.00  0.00    -0.005 C  
BRANCH  19  20
HETATM   20  N   UNL     1      -8.006   4.783  65.148  1.00  0.00    -0.094 NA 
HETATM   21  H   UNL     1      -7.386   4.870  65.953  1.00  0.00     0.000 HD 
BRANCH  20  22
HETATM   22  C   UNL     1      -9.061   3.794  65.410  1.00  0.00    -0.145 C  
HETATM   23  C   UNL     1     -10.028   4.239  66.516  1.00  0.00    -0.214 C  
HETATM   24  C   UNL     1      -9.844   3.588  64.113  1.00  0.00    -0.177 C  
ENDBRANCH  20  22
ENDBRANCH  19  20
ENDBRANCH  16  19
ENDBRANCH  15  16
ENDBRANCH  14  15
ENDBRANCH  11  14
BRANCH  12  25
HETATM   25  C   UNL     1     -10.418  11.309  63.733  1.00  0.00    -0.399 C  
HETATM   26  C   UNL     1      -9.380  11.130  62.658  1.00  0.00    -0.336 C  
HETATM   27  O   UNL     1     -11.605  11.443  63.431  1.00  0.00    -0.294 OA 
ENDBRANCH  12  25
ENDBRANCH   6   8
ENDBRANCH   3   4
ENDBRANCH   2   3
TORSDOF 10
ENDMDL
MODEL      210
REMARK 921   NORMALIZED FREE ENERGY PREDICTED BY IDOCK:   -2.91 KCAL/MOL
REMARK 922        TOTAL FREE ENERGY PREDICTED BY IDOCK:   -5.64 KCAL/MOL
REMARK 923 INTER-LIGAND FREE ENERGY PREDICTED BY IDOCK:   -4.60 KCAL/MOL
REMARK 924 INTRA-LIGAND FREE ENERGY PREDICTED BY IDOCK:   -1.04 KCAL/MOL
REMARK 927      BINDING AFFINITY PREDICTED BY RF-SCORE:    0.00 PKD
ROOT
HETATM    1  C   UNL     1      -8.345  10.160  65.041  1.00  0.00    -0.158 C  
HETATM    2  C   UNL     1      -7.325   9.062  64.796  1.00  0.00    -0.100 C  
ENDROOT
BRANCH   2   3
HETATM    3  C   UNL     1      -7.996   7.699  64.688  1.00  0.00    -0.136 C  
BRANCH   3   4
HETATM    4  C   UNL     1      -8.602   7.296  66.013  1.00  0.00    -0.151 C  
HETATM    5  O   UNL     1      -9.809   7.088  66.099  1.00  0.00    -0.006 OA 
HETATM    6  N   UNL     1      -7.665   7.149  67.026  1.00  0.00    -0.105 N  
HETATM    7  H   UNL     1      -6.688   7.318  66.785  1.00  0.00     0.000 HD 
BRANCH   6   8
HETATM    8  C   UNL     1      -7.945   6.787  68.361  1.00  0.00    -0.115 A  
HETATM    9  C   UNL     1      -8.621   7.621  69.247  1.00  0.00    -0.136 A  
HETATM   10  C   UNL     1      -8.955   7.184  70.529  1.00  0.00    -0.155 A  
HETATM   11  C   UNL     1      -8.615   5.902  70.971  1.00  0.00    -0.131 A  
HETATM   12  C   UNL     1      -7.864   5.079  70.117  1.00  0.00    -0.067 A  
HETATM   13  C   UNL     1      -7.538   5.530  68.816  1.00  0.00    -0.083 A  
BRANCH  11  14
HETATM   14  O   UNL     1      -9.021   5.400  72.181  1.00  0.00    -0.133 OA 
BRANCH  14  15
HETATM   15  C   UNL     1     -10.333   4.814  72.239  1.00  0.00    -0.201 C  
BRANCH  15  16
HETATM   16  C   UNL     1     -11.268   5.731  73.039  1.00  0.00    -0.246 C  
HETATM   17  H   UNL     1     -11.065   7.119  74.413  1.00  0.00     0.000 HD 
HETATM   18  O   UNL     1     -10.486   6.551  73.918  1.00  0.00    -0.310 OA 
BRANCH  16  19
HETATM   19  C   UNL     1     -12.122   6.644  72.135  1.00  0.00    -0.259 C  
BRANCH  19  20
HETATM   20  N   UNL     1     -12.091   8.043  72.574  1.00  0.00    -0.541 NA 
HETATM   21  H   UNL     1     -11.309   8.538  72.145  1.00  0.00     0.000 HD 
BRANCH  20  22
HETATM   22  C   UNL     1     -13.351   8.762  72.340  1.00  0.00    -0.399 C  
HETATM   23  C   UNL     1     -13.152  10.066  71.556  1.00  0.00    -0.531 C  
HETATM   24  C   UNL     1     -14.279   7.839  71.549  1.00  0.00    -0.540 C  
ENDBRANCH  20  22
ENDBRANCH  19  20
ENDBRANCH  16  19
ENDBRANCH  15  16
ENDBRANCH  14  15
ENDBRANCH  11  14
BRANCH  12  25
HETATM   25  C   UNL     1      -7.412   3.697  70.460  1.00  0.00    -0.041 C  
HETATM   26  C   UNL     1      -6.010   3.426  70.936  1.00  0.00    -0.017 C  
HETATM   27  O   UNL     1      -8.202   2.766  70.301  1.00  0.00    -0.042 OA 
ENDBRANCH  12  25
ENDBRANCH   6   8
ENDBRANCH   3   4
ENDBRANCH   2   3
TORSDOF 10
ENDMDL
MODEL      211
REMARK 921   NORMALIZED FREE ENERGY PREDICTED BY IDOCK:   -2.90 KCAL/MOL
REMARK 922        TOTAL FREE ENERGY PREDICTED BY IDOCK:   -5.63 KCAL/MOL
REMARK 923 INTER-LIGAND FREE ENERGY PREDICTED BY IDOCK:   -4.31 KCAL/MOL
REMARK 924 INTRA-LIGAND FREE ENERGY PREDICTED BY IDOCK:   -1.31 KCAL/MOL
REMARK 927      BINDING AFFINITY PREDICTED BY RF-SCORE:    0.00 PKD
ROOT
HETATM    1  C   UNL     1      -9.514   2.277  68.576  1.00  0.00    -0.213 C  
HETATM    2  C   UNL     1      -9.092   3.735  68.608  1.00  0.00    -0.198 C  
ENDROOT
BRANCH   2   3
HETATM    3  C   UNL     1      -7.638   3.899  68.186  1.00  0.00    -0.066 C  
BRANCH   3   4
HETATM    4  C   UNL     1      -7.414   5.256  67.559  1.00  0.00    -0.084 C  
HETATM    5  O   UNL     1      -6.964   5.341  66.420  1.00  0.00    -0.064 OA 
HETATM    6  N   UNL     1      -7.813   6.310  68.369  1.00  0.00    -0.103 N  
HETATM    7  H   UNL     1      -8.210   6.074  69.279  1.00  0.00     0.000 HD 
BRANCH   6   8
HETATM    8  C   UNL     1      -7.717   7.680  68.044  1.00  0.00    -0.119 A  
HETATM    9  C   UNL     1      -6.571   8.435  68.274  1.00  0.00    -0.060 A  
HETATM   10  C   UNL     1      -6.490   9.763  67.853  1.00  0.00    -0.060 A  
HETATM   11  C   UNL     1      -7.560  10.383  67.199  1.00  0.00    -0.096 A  
HETATM   12  C   UNL     1      -8.751   9.659  67.033  1.00  0.00    -0.135 A  
HETATM   13  C   UNL     1      -8.817   8.310  67.455  1.00  0.00    -0.138 A  
BRANCH  11  14
HETATM   14  O   UNL     1      -7.478  11.648  66.675  1.00  0.00    -0.122 OA 
BRANCH  14  15
HETATM   15  C   UNL     1      -6.808  12.643  67.467  1.00  0.00    -0.151 C  
BRANCH  15  16
HETATM   16  C   UNL     1      -7.770  13.179  68.536  1.00  0.00    -0.117 C  
HETATM   17  H   UNL     1      -7.760  14.628  69.861  1.00  0.00     0.000 HD 
HETATM   18  O   UNL     1      -7.164  14.295  69.200  1.00  0.00    -0.119 OA 
BRANCH  16  19
HETATM   19  C   UNL     1      -9.125  13.624  67.947  1.00  0.00    -0.198 C  
BRANCH  19  20
HETATM   20  N   UNL     1     -10.260  13.129  68.733  1.00  0.00    -0.410 NA 
HETATM   21  H   UNL     1      -9.987  12.980  69.704  1.00  0.00     0.000 HD 
BRANCH  20  22
HETATM   22  C   UNL     1     -11.450  13.987  68.655  1.00  0.00    -0.302 C  
HETATM   23  C   UNL     1     -12.224  14.048  69.979  1.00  0.00    -0.414 C  
HETATM   24  C   UNL     1     -10.991  15.396  68.278  1.00  0.00    -0.288 C  
ENDBRANCH  20  22
ENDBRANCH  19  20
ENDBRANCH  16  19
ENDBRANCH  15  16
ENDBRANCH  14  15
ENDBRANCH  11  14
BRANCH  12  25
HETATM   25  C   UNL     1      -9.979  10.196  66.372  1.00  0.00    -0.234 C  
HETATM   26  C   UNL     1     -10.106  10.241  64.873  1.00  0.00    -0.346 C  
HETATM   27  O   UNL     1     -10.877  10.647  67.084  1.00  0.00    -0.274 OA 
ENDBRANCH  12  25
ENDBRANCH   6   8
ENDBRANCH   3   4
ENDBRANCH   2   3
TORSDOF 10
ENDMDL
MODEL      212
REMARK 921   NORMALIZED FREE ENERGY PREDICTED BY IDOCK:   -2.90 KCAL/MOL
REMARK 922        TOTAL FREE ENERGY PREDICTED BY IDOCK:   -5.62 KCAL/MOL
REMARK 923 INTER-LIGAND FREE ENERGY PREDICTED BY IDOCK:   -4.88 KCAL/MOL
REMARK 924 INTRA-LIGAND FREE ENERGY PREDICTED BY IDOCK:   -0.75 KCAL/MOL
REMARK 927      BINDING AFFINITY PREDICTED BY RF-SCORE:    0.00 PKD
ROOT
HETATM    1  C   UNL     1     -10.722  16.167  67.280  1.00  0.00    -0.277 C  
HETATM    2  C   UNL     1     -11.639  14.962  67.178  1.00  0.00    -0.327 C  
ENDROOT
BRANCH   2   3
HETATM    3  C   UNL     1     -11.075  13.916  66.226  1.00  0.00    -0.304 C  
BRANCH   3   4
HETATM    4  C   UNL     1     -10.421  12.792  66.995  1.00  0.00    -0.237 C  
HETATM    5  O   UNL     1      -9.298  12.942  67.469  1.00  0.00    -0.178 OA 
HETATM    6  N   UNL     1     -11.230  11.672  67.131  1.00  0.00    -0.297 N  
HETATM    7  H   UNL     1     -12.161  11.717  66.714  1.00  0.00     0.000 HD 
BRANCH   6   8
HETATM    8  C   UNL     1     -10.879  10.477  67.794  1.00  0.00    -0.294 A  
HETATM    9  C   UNL     1     -10.158   9.456  67.184  1.00  0.00    -0.292 A  
HETATM   10  C   UNL     1      -9.755   8.331  67.906  1.00  0.00    -0.192 A  
HETATM   11  C   UNL     1     -10.071   8.188  69.261  1.00  0.00    -0.202 A  
HETATM   12  C   UNL     1     -10.866   9.172  69.868  1.00  0.00    -0.242 A  
HETATM   13  C   UNL     1     -11.261  10.311  69.128  1.00  0.00    -0.268 A  
BRANCH  11  14
HETATM   14  O   UNL     1      -9.600   7.153  70.029  1.00  0.00    -0.165 OA 
BRANCH  14  15
HETATM   15  C   UNL     1     -10.227   5.872  69.854  1.00  0.00    -0.218 C  
BRANCH  15  16
HETATM   16  C   UNL     1      -9.296   4.772  70.385  1.00  0.00    -0.151 C  
HETATM   17  H   UNL     1      -9.196   3.646  71.991  1.00  0.00     0.000 HD 
HETATM   18  O   UNL     1      -9.771   4.327  71.662  1.00  0.00    -0.155 OA 
BRANCH  16  19
HETATM   19  C   UNL     1      -9.208   3.558  69.436  1.00  0.00    -0.157 C  
BRANCH  19  20
HETATM   20  N   UNL     1     -10.232   3.600  68.388  1.00  0.00     0.556 NA 
HETATM   21  H   UNL     1     -10.819   4.428  68.491  1.00  0.00     0.000 HD 
BRANCH  20  22
HETATM   22  C   UNL     1      -9.686   3.517  67.026  1.00  0.00    -0.007 C  
HETATM   23  C   UNL     1      -9.814   4.838  66.255  1.00  0.00    -0.236 C  
HETATM   24  C   UNL     1      -8.207   3.142  67.135  1.00  0.00    -0.084 C  
ENDBRANCH  20  22
ENDBRANCH  19  20
ENDBRANCH  16  19
ENDBRANCH  15  16
ENDBRANCH  14  15
ENDBRANCH  11  14
BRANCH  12  25
HETATM   25  C   UNL     1     -11.298   9.143  71.299  1.00  0.00    -0.336 C  
HETATM   26  C   UNL     1     -12.702   9.510  71.701  1.00  0.00    -0.478 C  
HETATM   27  O   UNL     1     -10.464   8.853  72.157  1.00  0.00    -0.336 OA 
ENDBRANCH  12  25
ENDBRANCH   6   8
ENDBRANCH   3   4
ENDBRANCH   2   3
TORSDOF 10
ENDMDL
MODEL      213
REMARK 921   NORMALIZED FREE ENERGY PREDICTED BY IDOCK:   -2.88 KCAL/MOL
REMARK 922        TOTAL FREE ENERGY PREDICTED BY IDOCK:   -5.60 KCAL/MOL
REMARK 923 INTER-LIGAND FREE ENERGY PREDICTED BY IDOCK:   -5.54 KCAL/MOL
REMARK 924 INTRA-LIGAND FREE ENERGY PREDICTED BY IDOCK:   -0.06 KCAL/MOL
REMARK 927      BINDING AFFINITY PREDICTED BY RF-SCORE:    0.00 PKD
ROOT
HETATM    1  C   UNL     1     -10.935  15.953  67.208  1.00  0.00    -0.234 C  
HETATM    2  C   UNL     1     -11.740  14.669  67.307  1.00  0.00    -0.406 C  
ENDROOT
BRANCH   2   3
HETATM    3  C   UNL     1     -10.964  13.485  66.746  1.00  0.00    -0.297 C  
BRANCH   3   4
HETATM    4  C   UNL     1     -10.344  12.677  67.863  1.00  0.00    -0.218 C  
HETATM    5  O   UNL     1      -9.351  13.099  68.450  1.00  0.00    -0.207 OA 
HETATM    6  N   UNL     1     -11.036  11.508  68.149  1.00  0.00    -0.226 N  
HETATM    7  H   UNL     1     -11.873  11.316  67.597  1.00  0.00     0.000 HD 
BRANCH   6   8
HETATM    8  C   UNL     1     -10.684  10.563  69.135  1.00  0.00    -0.231 A  
HETATM    9  C   UNL     1      -9.446   9.929  69.170  1.00  0.00    -0.201 A  
HETATM   10  C   UNL     1      -9.109   9.069  70.216  1.00  0.00    -0.227 A  
HETATM   11  C   UNL     1     -10.006   8.807  71.257  1.00  0.00    -0.263 A  
HETATM   12  C   UNL     1     -11.288   9.376  71.192  1.00  0.00    -0.422 A  
HETATM   13  C   UNL     1     -11.614  10.253  70.132  1.00  0.00    -0.376 A  
BRANCH  11  14
HETATM   14  O   UNL     1      -9.672   8.056  72.355  1.00  0.00    -0.193 OA 
BRANCH  14  15
HETATM   15  C   UNL     1      -9.371   6.668  72.132  1.00  0.00    -0.141 C  
BRANCH  15  16
HETATM   16  C   UNL     1      -9.156   5.969  73.482  1.00  0.00    -0.131 C  
HETATM   17  H   UNL     1     -10.256   5.529  75.047  1.00  0.00     0.000 HD 
HETATM   18  O   UNL     1     -10.389   5.962  74.212  1.00  0.00    -0.272 OA 
BRANCH  16  19
HETATM   19  C   UNL     1      -8.660   4.516  73.327  1.00  0.00    -0.101 C  
BRANCH  19  20
HETATM   20  N   UNL     1      -8.637   4.086  71.925  1.00  0.00    -0.102 NA 
HETATM   21  H   UNL     1      -7.805   3.529  71.733  1.00  0.00     0.000 HD 
BRANCH  20  22
HETATM   22  C   UNL     1      -9.850   3.368  71.509  1.00  0.00    -0.142 C  
HETATM   23  C   UNL     1      -9.625   2.498  70.265  1.00  0.00    -0.102 C  
HETATM   24  C   UNL     1     -10.290   2.476  72.670  1.00  0.00    -0.228 C  
ENDBRANCH  20  22
ENDBRANCH  19  20
ENDBRANCH  16  19
ENDBRANCH  15  16
ENDBRANCH  14  15
ENDBRANCH  11  14
BRANCH  12  25
HETATM   25  C   UNL     1     -12.354   9.169  72.218  1.00  0.00    -0.309 C  
HETATM   26  C   UNL     1     -13.584  10.036  72.256  1.00  0.00    -0.282 C  
HETATM   27  O   UNL     1     -12.186   8.296  73.070  1.00  0.00    -0.228 OA 
ENDBRANCH  12  25
ENDBRANCH   6   8
ENDBRANCH   3   4
ENDBRANCH   2   3
TORSDOF 10
ENDMDL
MODEL      214
REMARK 921   NORMALIZED FREE ENERGY PREDICTED BY IDOCK:   -2.87 KCAL/MOL
REMARK 922        TOTAL FREE ENERGY PREDICTED BY IDOCK:   -5.57 KCAL/MOL
REMARK 923 INTER-LIGAND FREE ENERGY PREDICTED BY IDOCK:   -4.70 KCAL/MOL
REMARK 924 INTRA-LIGAND FREE ENERGY PREDICTED BY IDOCK:   -0.88 KCAL/MOL
REMARK 927      BINDING AFFINITY PREDICTED BY RF-SCORE:    0.00 PKD
ROOT
HETATM    1  C   UNL     1      -8.768   9.767  63.171  1.00  0.00    -0.229 C  
HETATM    2  C   UNL     1      -7.292   9.542  63.446  1.00  0.00    -0.106 C  
ENDROOT
BRANCH   2   3
HETATM    3  C   UNL     1      -7.015   8.093  63.824  1.00  0.00    -0.076 C  
BRANCH   3   4
HETATM    4  C   UNL     1      -7.930   7.649  64.942  1.00  0.00    -0.135 C  
HETATM    5  O   UNL     1      -8.706   6.713  64.768  1.00  0.00     0.102 OA 
HETATM    6  N   UNL     1      -7.742   8.355  66.122  1.00  0.00    -0.095 N  
HETATM    7  H   UNL     1      -7.024   9.080  66.122  1.00  0.00     0.000 HD 
BRANCH   6   8
HETATM    8  C   UNL     1      -8.457   8.158  67.323  1.00  0.00    -0.125 A  
HETATM    9  C   UNL     1      -9.605   8.874  67.647  1.00  0.00    -0.181 A  
HETATM   10  C   UNL     1     -10.331   8.582  68.803  1.00  0.00    -0.233 A  
HETATM   11  C   UNL     1      -9.923   7.570  69.679  1.00  0.00    -0.184 A  
HETATM   12  C   UNL     1      -8.723   6.895  69.406  1.00  0.00    -0.133 A  
HETATM   13  C   UNL     1      -8.002   7.194  68.226  1.00  0.00    -0.123 A  
BRANCH  11  14
HETATM   14  O   UNL     1     -10.667   7.182  70.764  1.00  0.00    -0.224 OA 
BRANCH  14  15
HETATM   15  C   UNL     1     -12.078   7.004  70.559  1.00  0.00    -0.229 C  
BRANCH  15  16
HETATM   16  C   UNL     1     -12.817   7.202  71.891  1.00  0.00    -0.260 C  
HETATM   17  H   UNL     1     -12.315   7.542  73.758  1.00  0.00     0.000 HD 
HETATM   18  O   UNL     1     -11.858   7.419  72.934  1.00  0.00    -0.146 OA 
BRANCH  16  19
HETATM   19  C   UNL     1     -13.794   8.396  71.856  1.00  0.00    -0.408 C  
BRANCH  19  20
HETATM   20  N   UNL     1     -13.219   9.600  72.464  1.00  0.00    -0.562 NA 
HETATM   21  H   UNL     1     -12.287   9.408  72.831  1.00  0.00     0.000 HD 
BRANCH  20  22
HETATM   22  C   UNL     1     -13.193  10.761  71.563  1.00  0.00    -0.334 C  
HETATM   23  C   UNL     1     -13.213  12.097  72.318  1.00  0.00    -0.286 C  
HETATM   24  C   UNL     1     -11.915  10.678  70.727  1.00  0.00    -0.477 C  
ENDBRANCH  20  22
ENDBRANCH  19  20
ENDBRANCH  16  19
ENDBRANCH  15  16
ENDBRANCH  14  15
ENDBRANCH  11  14
BRANCH  12  25
HETATM   25  C   UNL     1      -8.154   5.809  70.260  1.00  0.00    -0.105 C  
HETATM   26  C   UNL     1      -7.104   6.098  71.299  1.00  0.00    -0.077 C  
HETATM   27  O   UNL     1      -8.530   4.653  70.066  1.00  0.00    -0.073 OA 
ENDBRANCH  12  25
ENDBRANCH   6   8
ENDBRANCH   3   4
ENDBRANCH   2   3
TORSDOF 10
ENDMDL
MODEL      215
REMARK 921   NORMALIZED FREE ENERGY PREDICTED BY IDOCK:   -2.81 KCAL/MOL
REMARK 922        TOTAL FREE ENERGY PREDICTED BY IDOCK:   -5.49 KCAL/MOL
REMARK 923 INTER-LIGAND FREE ENERGY PREDICTED BY IDOCK:   -4.59 KCAL/MOL
REMARK 924 INTRA-LIGAND FREE ENERGY PREDICTED BY IDOCK:   -0.89 KCAL/MOL
REMARK 927      BINDING AFFINITY PREDICTED BY RF-SCORE:    0.00 PKD
ROOT
HETATM    1  C   UNL     1      -8.666  11.018  62.342  1.00  0.00    -0.356 C  
HETATM    2  C   UNL     1      -9.598  10.190  63.208  1.00  0.00    -0.231 C  
ENDROOT
BRANCH   2   3
HETATM    3  C   UNL     1      -9.959  10.926  64.491  1.00  0.00    -0.376 C  
BRANCH   3   4
HETATM    4  C   UNL     1      -9.682  10.061  65.699  1.00  0.00    -0.272 C  
HETATM    5  O   UNL     1      -9.465   8.860  65.559  1.00  0.00    -0.202 OA 
HETATM    6  N   UNL     1      -9.651  10.771  66.891  1.00  0.00    -0.169 N  
HETATM    7  H   UNL     1      -9.810  11.777  66.838  1.00  0.00     0.000 HD 
BRANCH   6   8
HETATM    8  C   UNL     1      -9.420  10.222  68.171  1.00  0.00    -0.147 A  
HETATM    9  C   UNL     1      -8.163  10.196  68.768  1.00  0.00    -0.113 A  
HETATM   10  C   UNL     1      -7.998   9.725  70.072  1.00  0.00    -0.196 A  
HETATM   11  C   UNL     1      -9.085   9.256  70.816  1.00  0.00    -0.244 A  
HETATM   12  C   UNL     1     -10.344   9.202  70.198  1.00  0.00    -0.244 A  
HETATM   13  C   UNL     1     -10.500   9.689  68.880  1.00  0.00    -0.234 A  
BRANCH  11  14
HETATM   14  O   UNL     1      -8.980   8.889  72.134  1.00  0.00    -0.381 OA 
BRANCH  14  15
HETATM   15  C   UNL     1      -9.032   7.483  72.429  1.00  0.00    -0.135 C  
BRANCH  15  16
HETATM   16  C   UNL     1      -7.940   6.754  71.634  1.00  0.00    -0.102 C  
HETATM   17  H   UNL     1      -6.116   6.114  71.981  1.00  0.00     0.000 HD 
HETATM   18  O   UNL     1      -6.792   6.566  72.472  1.00  0.00    -0.067 OA 
BRANCH  16  19
HETATM   19  C   UNL     1      -8.403   5.380  71.108  1.00  0.00    -0.124 C  
BRANCH  19  20
HETATM   20  N   UNL     1      -7.819   5.062  69.801  1.00  0.00    -0.070 NA 
HETATM   21  H   UNL     1      -8.550   4.840  69.125  1.00  0.00     0.000 HD 
BRANCH  20  22
HETATM   22  C   UNL     1      -6.931   6.111  69.281  1.00  0.00    -0.064 C  
HETATM   23  C   UNL     1      -5.494   5.616  69.065  1.00  0.00    -0.007 C  
HETATM   24  C   UNL     1      -7.502   6.590  67.946  1.00  0.00    -0.094 C  
ENDBRANCH  20  22
ENDBRANCH  19  20
ENDBRANCH  16  19
ENDBRANCH  15  16
ENDBRANCH  14  15
ENDBRANCH  11  14
BRANCH  12  25
HETATM   25  C   UNL     1     -11.588   8.706  70.861  1.00  0.00    -0.269 C  
HETATM   26  C   UNL     1     -12.135   7.333  70.576  1.00  0.00    -0.154 C  
HETATM   27  O   UNL     1     -12.190   9.467  71.620  1.00  0.00    -0.341 OA 
ENDBRANCH  12  25
ENDBRANCH   6   8
ENDBRANCH   3   4
ENDBRANCH   2   3
TORSDOF 10
ENDMDL
MODEL      216
REMARK 921   NORMALIZED FREE ENERGY PREDICTED BY IDOCK:   -2.81 KCAL/MOL
REMARK 922        TOTAL FREE ENERGY PREDICTED BY IDOCK:   -5.48 KCAL/MOL
REMARK 923 INTER-LIGAND FREE ENERGY PREDICTED BY IDOCK:   -5.28 KCAL/MOL
REMARK 924 INTRA-LIGAND FREE ENERGY PREDICTED BY IDOCK:   -0.21 KCAL/MOL
REMARK 927      BINDING AFFINITY PREDICTED BY RF-SCORE:    0.00 PKD
ROOT
HETATM    1  C   UNL     1     -11.735  12.235  63.659  1.00  0.00    -0.591 C  
HETATM    2  C   UNL     1     -12.747  12.839  64.617  1.00  0.00    -0.439 C  
ENDROOT
BRANCH   2   3
HETATM    3  C   UNL     1     -12.077  13.785  65.604  1.00  0.00    -0.444 C  
BRANCH   3   4
HETATM    4  C   UNL     1     -11.107  13.034  66.487  1.00  0.00    -0.288 C  
HETATM    5  O   UNL     1      -9.905  13.280  66.429  1.00  0.00    -0.269 OA 
HETATM    6  N   UNL     1     -11.724  12.138  67.349  1.00  0.00    -0.333 N  
HETATM    7  H   UNL     1     -12.742  12.078  67.307  1.00  0.00     0.000 HD 
BRANCH   6   8
HETATM    8  C   UNL     1     -11.068  11.303  68.278  1.00  0.00    -0.240 A  
HETATM    9  C   UNL     1     -11.741  10.386  69.080  1.00  0.00    -0.167 A  
HETATM   10  C   UNL     1     -11.041   9.518  69.919  1.00  0.00    -0.244 A  
HETATM   11  C   UNL     1      -9.645   9.547  69.991  1.00  0.00    -0.238 A  
HETATM   12  C   UNL     1      -8.958  10.520  69.248  1.00  0.00    -0.148 A  
HETATM   13  C   UNL     1      -9.678  11.389  68.395  1.00  0.00    -0.203 A  
BRANCH  11  14
HETATM   14  O   UNL     1      -8.918   8.638  70.718  1.00  0.00    -0.147 OA 
BRANCH  14  15
HETATM   15  C   UNL     1      -8.972   7.266  70.293  1.00  0.00    -0.151 C  
BRANCH  15  16
HETATM   16  C   UNL     1      -8.574   6.353  71.460  1.00  0.00    -0.130 C  
HETATM   17  H   UNL     1      -7.752   6.582  73.229  1.00  0.00     0.000 HD 
HETATM   18  O   UNL     1      -7.997   7.147  72.505  1.00  0.00    -0.095 OA 
BRANCH  16  19
HETATM   19  C   UNL     1      -9.771   5.566  72.035  1.00  0.00    -0.160 C  
BRANCH  19  20
HETATM   20  N   UNL     1      -9.536   4.119  72.027  1.00  0.00    -0.130 NA 
HETATM   21  H   UNL     1      -8.628   3.904  71.616  1.00  0.00     0.000 HD 
BRANCH  20  22
HETATM   22  C   UNL     1      -9.668   3.493  73.350  1.00  0.00    -0.109 C  
HETATM   23  C   UNL     1      -9.702   4.520  74.490  1.00  0.00    -0.173 C  
HETATM   24  C   UNL     1     -10.969   2.689  73.362  1.00  0.00    -0.299 C  
ENDBRANCH  20  22
ENDBRANCH  19  20
ENDBRANCH  16  19
ENDBRANCH  15  16
ENDBRANCH  14  15
ENDBRANCH  11  14
BRANCH  12  25
HETATM   25  C   UNL     1      -7.473  10.684  69.242  1.00  0.00    -0.130 C  
HETATM   26  C   UNL     1      -6.626  10.105  68.140  1.00  0.00    -0.058 C  
HETATM   27  O   UNL     1      -6.943  11.267  70.188  1.00  0.00    -0.090 OA 
ENDBRANCH  12  25
ENDBRANCH   6   8
ENDBRANCH   3   4
ENDBRANCH   2   3
TORSDOF 10
ENDMDL
MODEL      217
REMARK 921   NORMALIZED FREE ENERGY PREDICTED BY IDOCK:   -2.76 KCAL/MOL
REMARK 922        TOTAL FREE ENERGY PREDICTED BY IDOCK:   -5.41 KCAL/MOL
REMARK 923 INTER-LIGAND FREE ENERGY PREDICTED BY IDOCK:   -4.41 KCAL/MOL
REMARK 924 INTRA-LIGAND FREE ENERGY PREDICTED BY IDOCK:   -1.00 KCAL/MOL
REMARK 927      BINDING AFFINITY PREDICTED BY RF-SCORE:    0.00 PKD
ROOT
HETATM    1  C   UNL     1     -11.762  12.991  66.608  1.00  0.00    -0.438 C  
HETATM    2  C   UNL     1     -12.118  13.476  68.002  1.00  0.00    -0.298 C  
ENDROOT
BRANCH   2   3
HETATM    3  C   UNL     1     -10.962  13.269  68.971  1.00  0.00    -0.249 C  
BRANCH   3   4
HETATM    4  C   UNL     1     -11.172  12.018  69.792  1.00  0.00    -0.029 C  
HETATM    5  O   UNL     1     -12.102  11.955  70.592  1.00  0.00    -0.373 OA 
HETATM    6  N   UNL     1     -10.270  11.005  69.496  1.00  0.00    -0.440 N  
HETATM    7  H   UNL     1      -9.577  11.196  68.772  1.00  0.00     0.000 HD 
BRANCH   6   8
HETATM    8  C   UNL     1     -10.228   9.734  70.108  1.00  0.00    -0.275 A  
HETATM    9  C   UNL     1     -11.164   8.737  69.849  1.00  0.00    -0.059 A  
HETATM   10  C   UNL     1     -11.031   7.465  70.408  1.00  0.00    -0.269 A  
HETATM   11  C   UNL     1      -9.961   7.153  71.253  1.00  0.00    -0.189 A  
HETATM   12  C   UNL     1      -9.055   8.172  71.586  1.00  0.00    -0.214 A  
HETATM   13  C   UNL     1      -9.195   9.454  71.006  1.00  0.00    -0.181 A  
BRANCH  11  14
HETATM   14  O   UNL     1      -9.737   5.887  71.732  1.00  0.00    -0.155 OA 
BRANCH  14  15
HETATM   15  C   UNL     1      -8.936   5.013  70.920  1.00  0.00    -0.134 C  
BRANCH  15  16
HETATM   16  C   UNL     1      -9.852   4.064  70.134  1.00  0.00    -0.137 C  
HETATM   17  H   UNL     1     -10.448   3.880  68.273  1.00  0.00     0.000 HD 
HETATM   18  O   UNL     1      -9.882   4.467  68.759  1.00  0.00    -0.163 OA 
BRANCH  16  19
HETATM   19  C   UNL     1      -9.392   2.593  70.212  1.00  0.00    -0.131 C  
BRANCH  19  20
HETATM   20  N   UNL     1      -8.974   2.074  68.906  1.00  0.00    -0.096 NA 
HETATM   21  H   UNL     1      -9.261   2.706  68.159  1.00  0.00     0.000 HD 
BRANCH  20  22
HETATM   22  C   UNL     1      -7.536   1.785  68.818  1.00  0.00    -0.043 C  
HETATM   23  C   UNL     1      -6.756   2.885  68.084  1.00  0.00    -0.040 C  
HETATM   24  C   UNL     1      -6.995   1.654  70.242  1.00  0.00    -0.033 C  
ENDBRANCH  20  22
ENDBRANCH  19  20
ENDBRANCH  16  19
ENDBRANCH  15  16
ENDBRANCH  14  15
ENDBRANCH  11  14
BRANCH  12  25
HETATM   25  C   UNL     1      -7.879   7.991  72.491  1.00  0.00    -0.123 C  
HETATM   26  C   UNL     1      -8.014   8.114  73.985  1.00  0.00    -0.290 C  
HETATM   27  O   UNL     1      -6.776   7.782  71.984  1.00  0.00    -0.053 OA 
ENDBRANCH  12  25
ENDBRANCH   6   8
ENDBRANCH   3   4
ENDBRANCH   2   3
TORSDOF 10
ENDMDL
MODEL      218
REMARK 921   NORMALIZED FREE ENERGY PREDICTED BY IDOCK:   -2.75 KCAL/MOL
REMARK 922        TOTAL FREE ENERGY PREDICTED BY IDOCK:   -5.40 KCAL/MOL
REMARK 923 INTER-LIGAND FREE ENERGY PREDICTED BY IDOCK:   -4.94 KCAL/MOL
REMARK 924 INTRA-LIGAND FREE ENERGY PREDICTED BY IDOCK:   -0.46 KCAL/MOL
REMARK 927      BINDING AFFINITY PREDICTED BY RF-SCORE:    0.00 PKD
ROOT
HETATM    1  C   UNL     1     -11.833  12.737  65.096  1.00  0.00    -0.428 C  
HETATM    2  C   UNL     1     -11.962  13.448  66.432  1.00  0.00    -0.457 C  
ENDROOT
BRANCH   2   3
HETATM    3  C   UNL     1     -10.765  13.160  67.328  1.00  0.00    -0.262 C  
BRANCH   3   4
HETATM    4  C   UNL     1     -11.200  12.435  68.581  1.00  0.00    -0.271 C  
HETATM    5  O   UNL     1     -11.955  12.982  69.379  1.00  0.00    -0.306 OA 
HETATM    6  N   UNL     1     -10.709  11.139  68.666  1.00  0.00    -0.186 N  
HETATM    7  H   UNL     1     -10.125  10.811  67.897  1.00  0.00     0.000 HD 
BRANCH   6   8
HETATM    8  C   UNL     1     -10.949  10.235  69.723  1.00  0.00    -0.289 A  
HETATM    9  C   UNL     1     -12.215   9.750  70.034  1.00  0.00     0.135 A  
HETATM   10  C   UNL     1     -12.392   8.789  71.030  1.00  0.00    -0.186 A  
HETATM   11  C   UNL     1     -11.306   8.289  71.755  1.00  0.00    -0.288 A  
HETATM   12  C   UNL     1     -10.033   8.827  71.508  1.00  0.00    -0.370 A  
HETATM   13  C   UNL     1      -9.866   9.795  70.490  1.00  0.00    -0.228 A  
BRANCH  11  14
HETATM   14  O   UNL     1     -11.425   7.267  72.663  1.00  0.00    -0.294 OA 
BRANCH  14  15
HETATM   15  C   UNL     1     -11.243   5.929  72.169  1.00  0.00    -0.287 C  
BRANCH  15  16
HETATM   16  C   UNL     1     -10.490   5.096  73.215  1.00  0.00    -0.218 C  
HETATM   17  H   UNL     1     -10.918   3.616  74.432  1.00  0.00     0.000 HD 
HETATM   18  O   UNL     1     -11.384   4.132  73.785  1.00  0.00    -0.219 OA 
BRANCH  16  19
HETATM   19  C   UNL     1      -9.272   4.356  72.622  1.00  0.00    -0.125 C  
BRANCH  19  20
HETATM   20  N   UNL     1      -9.457   2.902  72.617  1.00  0.00    -0.100 NA 
HETATM   21  H   UNL     1     -10.045   2.616  71.834  1.00  0.00     0.000 HD 
BRANCH  20  22
HETATM   22  C   UNL     1      -8.196   2.147  72.622  1.00  0.00    -0.054 C  
HETATM   23  C   UNL     1      -6.974   3.036  72.353  1.00  0.00    -0.031 C  
HETATM   24  C   UNL     1      -8.046   1.491  73.995  1.00  0.00    -0.045 C  
ENDBRANCH  20  22
ENDBRANCH  19  20
ENDBRANCH  16  19
ENDBRANCH  15  16
ENDBRANCH  14  15
ENDBRANCH  11  14
BRANCH  12  25
HETATM   25  C   UNL     1      -8.787   8.407  72.218  1.00  0.00    -0.220 C  
HETATM   26  C   UNL     1      -7.976   7.230  71.746  1.00  0.00    -0.095 C  
HETATM   27  O   UNL     1      -8.456   9.019  73.234  1.00  0.00    -0.111 OA 
ENDBRANCH  12  25
ENDBRANCH   6   8
ENDBRANCH   3   4
ENDBRANCH   2   3
TORSDOF 10
ENDMDL
MODEL      219
REMARK 921   NORMALIZED FREE ENERGY PREDICTED BY IDOCK:   -2.75 KCAL/MOL
REMARK 922        TOTAL FREE ENERGY PREDICTED BY IDOCK:   -5.39 KCAL/MOL
REMARK 923 INTER-LIGAND FREE ENERGY PREDICTED BY IDOCK:   -4.82 KCAL/MOL
REMARK 924 INTRA-LIGAND FREE ENERGY PREDICTED BY IDOCK:   -0.57 KCAL/MOL
REMARK 927      BINDING AFFINITY PREDICTED BY RF-SCORE:    0.00 PKD
ROOT
HETATM    1  C   UNL     1      -9.024   1.995  66.707  1.00  0.00    -0.123 C  
HETATM    2  C   UNL     1      -7.875   2.547  65.881  1.00  0.00    -0.081 C  
ENDROOT
BRANCH   2   3
HETATM    3  C   UNL     1      -6.959   3.425  66.725  1.00  0.00    -0.054 C  
BRANCH   3   4
HETATM    4  C   UNL     1      -7.270   4.887  66.503  1.00  0.00    -0.077 C  
HETATM    5  O   UNL     1      -6.687   5.513  65.622  1.00  0.00    -0.043 OA 
HETATM    6  N   UNL     1      -8.272   5.370  67.332  1.00  0.00    -0.101 N  
HETATM    7  H   UNL     1      -8.692   4.711  67.989  1.00  0.00     0.000 HD 
BRANCH   6   8
HETATM    8  C   UNL     1      -8.762   6.694  67.348  1.00  0.00    -0.118 A  
HETATM    9  C   UNL     1      -8.926   7.455  66.194  1.00  0.00    -0.182 A  
HETATM   10  C   UNL     1      -9.498   8.726  66.249  1.00  0.00    -0.300 A  
HETATM   11  C   UNL     1      -9.915   9.283  67.462  1.00  0.00    -0.202 A  
HETATM   12  C   UNL     1      -9.682   8.560  68.643  1.00  0.00    -0.171 A  
HETATM   13  C   UNL     1      -9.109   7.268  68.574  1.00  0.00    -0.136 A  
BRANCH  11  14
HETATM   14  O   UNL     1     -10.580  10.480  67.542  1.00  0.00    -0.221 OA 
BRANCH  14  15
HETATM   15  C   UNL     1      -9.778  11.673  67.572  1.00  0.00    -0.177 C  
BRANCH  15  16
HETATM   16  C   UNL     1     -10.694  12.902  67.660  1.00  0.00    -0.223 C  
HETATM   17  H   UNL     1     -10.679  14.621  68.608  1.00  0.00     0.000 HD 
HETATM   18  O   UNL     1     -10.113  13.861  68.554  1.00  0.00    -0.232 OA 
BRANCH  16  19
HETATM   19  C   UNL     1     -10.923  13.572  66.290  1.00  0.00    -0.289 C  
BRANCH  19  20
HETATM   20  N   UNL     1     -10.959  12.597  65.195  1.00  0.00    -0.284 NA 
HETATM   21  H   UNL     1     -11.521  11.787  65.454  1.00  0.00     0.000 HD 
BRANCH  20  22
HETATM   22  C   UNL     1     -11.416  13.160  63.918  1.00  0.00    -0.401 C  
HETATM   23  C   UNL     1     -12.620  12.406  63.336  1.00  0.00    -0.481 C  
HETATM   24  C   UNL     1     -11.808  14.618  64.161  1.00  0.00    -0.263 C  
ENDBRANCH  20  22
ENDBRANCH  19  20
ENDBRANCH  16  19
ENDBRANCH  15  16
ENDBRANCH  14  15
ENDBRANCH  11  14
BRANCH  12  25
HETATM   25  C   UNL     1     -10.054   9.035  70.010  1.00  0.00    -0.196 C  
HETATM   26  C   UNL     1      -9.007   9.306  71.057  1.00  0.00    -0.225 C  
HETATM   27  O   UNL     1     -11.248   9.160  70.282  1.00  0.00    -0.245 OA 
ENDBRANCH  12  25
ENDBRANCH   6   8
ENDBRANCH   3   4
ENDBRANCH   2   3
TORSDOF 10
ENDMDL
MODEL      220
REMARK 921   NORMALIZED FREE ENERGY PREDICTED BY IDOCK:   -2.72 KCAL/MOL
REMARK 922        TOTAL FREE ENERGY PREDICTED BY IDOCK:   -5.34 KCAL/MOL
REMARK 923 INTER-LIGAND FREE ENERGY PREDICTED BY IDOCK:   -4.19 KCAL/MOL
REMARK 924 INTRA-LIGAND FREE ENERGY PREDICTED BY IDOCK:   -1.15 KCAL/MOL
REMARK 927      BINDING AFFINITY PREDICTED BY RF-SCORE:    0.00 PKD
ROOT
HETATM    1  C   UNL     1      -9.697   2.908  64.500  1.00  0.00    -0.114 C  
HETATM    2  C   UNL     1      -8.693   3.438  65.509  1.00  0.00    -0.121 C  
ENDROOT
BRANCH   2   3
HETATM    3  C   UNL     1      -9.375   3.832  66.812  1.00  0.00    -0.209 C  
BRANCH   3   4
HETATM    4  C   UNL     1      -8.819   5.137  67.332  1.00  0.00    -0.105 C  
HETATM    5  O   UNL     1      -7.844   5.138  68.077  1.00  0.00    -0.087 OA 
HETATM    6  N   UNL     1      -9.480   6.254  66.838  1.00  0.00    -0.133 N  
HETATM    7  H   UNL     1     -10.250   6.090  66.189  1.00  0.00     0.000 HD 
BRANCH   6   8
HETATM    8  C   UNL     1      -9.179   7.596  67.155  1.00  0.00    -0.132 A  
HETATM    9  C   UNL     1      -8.017   8.232  66.730  1.00  0.00    -0.099 A  
HETATM   10  C   UNL     1      -7.804   9.587  66.991  1.00  0.00    -0.098 A  
HETATM   11  C   UNL     1      -8.744  10.346  67.694  1.00  0.00    -0.118 A  
HETATM   12  C   UNL     1      -9.884   9.699  68.197  1.00  0.00    -0.172 A  
HETATM   13  C   UNL     1     -10.092   8.328  67.919  1.00  0.00    -0.252 A  
BRANCH  11  14
HETATM   14  O   UNL     1      -8.622  11.701  67.874  1.00  0.00    -0.137 OA 
BRANCH  14  15
HETATM   15  C   UNL     1      -7.661  12.148  68.844  1.00  0.00     0.003 C  
BRANCH  15  16
HETATM   16  C   UNL     1      -7.153  13.543  68.454  1.00  0.00    -0.107 C  
HETATM   17  H   UNL     1      -6.710  14.481  66.787  1.00  0.00     0.000 HD 
HETATM   18  O   UNL     1      -7.024  13.618  67.028  1.00  0.00    -0.008 OA 
BRANCH  16  19
HETATM   19  C   UNL     1      -8.091  14.672  68.929  1.00  0.00    -0.147 C  
BRANCH  19  20
HETATM   20  N   UNL     1      -9.467  14.204  69.124  1.00  0.00    -0.401 NA 
HETATM   21  H   UNL     1      -9.684  14.129  70.117  1.00  0.00     0.000 HD 
BRANCH  20  22
HETATM   22  C   UNL     1     -10.472  15.022  68.433  1.00  0.00    -0.238 C  
HETATM   23  C   UNL     1     -10.681  14.596  66.973  1.00  0.00    -0.290 C  
HETATM   24  C   UNL     1     -11.794  14.882  69.189  1.00  0.00    -0.340 C  
ENDBRANCH  20  22
ENDBRANCH  19  20
ENDBRANCH  16  19
ENDBRANCH  15  16
ENDBRANCH  14  15
ENDBRANCH  11  14
BRANCH  12  25
HETATM   25  C   UNL     1     -10.961  10.375  68.982  1.00  0.00    -0.238 C  
HETATM   26  C   UNL     1     -11.356   9.889  70.351  1.00  0.00    -0.376 C  
HETATM   27  O   UNL     1     -11.557  11.320  68.465  1.00  0.00    -0.274 OA 
ENDBRANCH  12  25
ENDBRANCH   6   8
ENDBRANCH   3   4
ENDBRANCH   2   3
TORSDOF 10
ENDMDL
MODEL      221
REMARK 921   NORMALIZED FREE ENERGY PREDICTED BY IDOCK:   -2.72 KCAL/MOL
REMARK 922        TOTAL FREE ENERGY PREDICTED BY IDOCK:   -5.34 KCAL/MOL
REMARK 923 INTER-LIGAND FREE ENERGY PREDICTED BY IDOCK:   -5.39 KCAL/MOL
REMARK 924 INTRA-LIGAND FREE ENERGY PREDICTED BY IDOCK:    0.05 KCAL/MOL
REMARK 927      BINDING AFFINITY PREDICTED BY RF-SCORE:    0.00 PKD
ROOT
HETATM    1  C   UNL     1      -7.955   8.484  64.574  1.00  0.00    -0.145 C  
HETATM    2  C   UNL     1      -8.751   9.446  63.709  1.00  0.00    -0.223 C  
ENDROOT
BRANCH   2   3
HETATM    3  C   UNL     1      -9.888  10.085  64.496  1.00  0.00    -0.244 C  
BRANCH   3   4
HETATM    4  C   UNL     1      -9.625  11.558  64.710  1.00  0.00    -0.174 C  
HETATM    5  O   UNL     1      -9.809  12.355  63.795  1.00  0.00    -0.297 OA 
HETATM    6  N   UNL     1      -9.234  11.866  66.006  1.00  0.00    -0.328 N  
HETATM    7  H   UNL     1      -9.167  11.093  66.669  1.00  0.00     0.000 HD 
BRANCH   6   8
HETATM    8  C   UNL     1      -8.921  13.155  66.487  1.00  0.00    -0.059 A  
HETATM    9  C   UNL     1      -9.643  14.291  66.137  1.00  0.00    -0.300 A  
HETATM   10  C   UNL     1      -9.353  15.531  66.708  1.00  0.00    -0.267 A  
HETATM   11  C   UNL     1      -8.322  15.676  67.642  1.00  0.00    -0.155 A  
HETATM   12  C   UNL     1      -7.533  14.554  67.944  1.00  0.00    -0.159 A  
HETATM   13  C   UNL     1      -7.843  13.302  67.365  1.00  0.00    -0.159 A  
BRANCH  11  14
HETATM   14  O   UNL     1      -8.079  16.852  68.305  1.00  0.00    -0.200 OA 
BRANCH  14  15
HETATM   15  C   UNL     1      -6.803  17.476  68.083  1.00  0.00    -0.197 C  
BRANCH  15  16
HETATM   16  C   UNL     1      -6.967  18.630  67.084  1.00  0.00    -0.203 C  
HETATM   17  H   UNL     1      -7.433  18.813  65.186  1.00  0.00     0.000 HD 
HETATM   18  O   UNL     1      -7.332  18.099  65.804  1.00  0.00    -0.484 OA 
BRANCH  16  19
HETATM   19  C   UNL     1      -8.037  19.651  67.524  1.00  0.00    -0.298 C  
BRANCH  19  20
HETATM   20  N   UNL     1      -8.850  20.121  66.397  1.00  0.00    -0.523 NA 
HETATM   21  H   UNL     1      -8.298  20.141  65.540  1.00  0.00     0.000 HD 
BRANCH  20  22
HETATM   22  C   UNL     1     -10.086  19.352  66.201  1.00  0.00    -0.452 C  
HETATM   23  C   UNL     1     -10.774  18.991  67.525  1.00  0.00    -0.532 C  
HETATM   24  C   UNL     1     -11.039  20.200  65.358  1.00  0.00     0.234 C  
ENDBRANCH  20  22
ENDBRANCH  19  20
ENDBRANCH  16  19
ENDBRANCH  15  16
ENDBRANCH  14  15
ENDBRANCH  11  14
BRANCH  12  25
HETATM   25  C   UNL     1      -6.388  14.563  68.904  1.00  0.00    -0.089 C  
HETATM   26  C   UNL     1      -6.612  14.493  70.391  1.00  0.00    -0.044 C  
HETATM   27  O   UNL     1      -5.247  14.676  68.454  1.00  0.00    -0.091 OA 
ENDBRANCH  12  25
ENDBRANCH   6   8
ENDBRANCH   3   4
ENDBRANCH   2   3
TORSDOF 10
ENDMDL
MODEL      222
REMARK 921   NORMALIZED FREE ENERGY PREDICTED BY IDOCK:   -2.70 KCAL/MOL
REMARK 922        TOTAL FREE ENERGY PREDICTED BY IDOCK:   -5.31 KCAL/MOL
REMARK 923 INTER-LIGAND FREE ENERGY PREDICTED BY IDOCK:   -5.02 KCAL/MOL
REMARK 924 INTRA-LIGAND FREE ENERGY PREDICTED BY IDOCK:   -0.29 KCAL/MOL
REMARK 927      BINDING AFFINITY PREDICTED BY RF-SCORE:    0.00 PKD
ROOT
HETATM    1  C   UNL     1      -8.270   1.467  67.526  1.00  0.00    -0.071 C  
HETATM    2  C   UNL     1      -7.032   2.325  67.331  1.00  0.00    -0.044 C  
ENDROOT
BRANCH   2   3
HETATM    3  C   UNL     1      -6.687   3.095  68.599  1.00  0.00    -0.040 C  
BRANCH   3   4
HETATM    4  C   UNL     1      -7.177   4.522  68.506  1.00  0.00    -0.060 C  
HETATM    5  O   UNL     1      -6.507   5.365  67.917  1.00  0.00    -0.044 OA 
HETATM    6  N   UNL     1      -8.423   4.716  69.085  1.00  0.00    -0.079 N  
HETATM    7  H   UNL     1      -8.876   3.902  69.501  1.00  0.00     0.000 HD 
BRANCH   6   8
HETATM    8  C   UNL     1      -9.120   5.943  69.149  1.00  0.00    -0.122 A  
HETATM    9  C   UNL     1      -8.950   6.959  68.215  1.00  0.00    -0.124 A  
HETATM   10  C   UNL     1      -9.727   8.118  68.267  1.00  0.00    -0.175 A  
HETATM   11  C   UNL     1     -10.691   8.301  69.263  1.00  0.00    -0.128 A  
HETATM   12  C   UNL     1     -10.816   7.319  70.259  1.00  0.00    -0.264 A  
HETATM   13  C   UNL     1     -10.030   6.145  70.190  1.00  0.00    -0.218 A  
BRANCH  11  14
HETATM   14  O   UNL     1     -11.546   9.373  69.283  1.00  0.00     0.166 OA 
BRANCH  14  15
HETATM   15  C   UNL     1     -11.114  10.542  70.000  1.00  0.00    -0.308 C  
BRANCH  15  16
HETATM   16  C   UNL     1     -11.920  11.759  69.527  1.00  0.00    -0.300 C  
HETATM   17  H   UNL     1     -12.621  13.404  70.338  1.00  0.00     0.000 HD 
HETATM   18  O   UNL     1     -12.122  12.650  70.631  1.00  0.00    -0.357 OA 
BRANCH  16  19
HETATM   19  C   UNL     1     -11.221  12.529  68.387  1.00  0.00    -0.272 C  
BRANCH  19  20
HETATM   20  N   UNL     1     -12.161  12.937  67.337  1.00  0.00    -0.353 NA 
HETATM   21  H   UNL     1     -12.981  13.386  67.744  1.00  0.00     0.000 HD 
BRANCH  20  22
HETATM   22  C   UNL     1     -11.557  13.792  66.306  1.00  0.00    -0.350 C  
HETATM   23  C   UNL     1     -10.197  13.269  65.825  1.00  0.00    -0.296 C  
HETATM   24  C   UNL     1     -12.520  13.847  65.119  1.00  0.00    -0.479 C  
ENDBRANCH  20  22
ENDBRANCH  19  20
ENDBRANCH  16  19
ENDBRANCH  15  16
ENDBRANCH  14  15
ENDBRANCH  11  14
BRANCH  12  25
HETATM   25  C   UNL     1     -11.786   7.388  71.394  1.00  0.00    -0.288 C  
HETATM   26  C   UNL     1     -11.363   7.862  72.758  1.00  0.00    -0.453 C  
HETATM   27  O   UNL     1     -12.940   7.003  71.202  1.00  0.00    -0.360 OA 
ENDBRANCH  12  25
ENDBRANCH   6   8
ENDBRANCH   3   4
ENDBRANCH   2   3
TORSDOF 10
ENDMDL
MODEL      223
REMARK 921   NORMALIZED FREE ENERGY PREDICTED BY IDOCK:   -2.68 KCAL/MOL
REMARK 922        TOTAL FREE ENERGY PREDICTED BY IDOCK:   -5.28 KCAL/MOL
REMARK 923 INTER-LIGAND FREE ENERGY PREDICTED BY IDOCK:   -4.85 KCAL/MOL
REMARK 924 INTRA-LIGAND FREE ENERGY PREDICTED BY IDOCK:   -0.43 KCAL/MOL
REMARK 927      BINDING AFFINITY PREDICTED BY RF-SCORE:    0.00 PKD
ROOT
HETATM    1  C   UNL     1     -11.442  11.738  64.483  1.00  0.00    -0.322 C  
HETATM    2  C   UNL     1     -11.660  12.465  65.799  1.00  0.00    -0.449 C  
ENDROOT
BRANCH   2   3
HETATM    3  C   UNL     1     -12.590  13.658  65.623  1.00  0.00    -0.531 C  
BRANCH   3   4
HETATM    4  C   UNL     1     -11.842  14.953  65.844  1.00  0.00    -0.113 C  
HETATM    5  O   UNL     1     -11.518  15.648  64.885  1.00  0.00    -0.326 OA 
HETATM    6  N   UNL     1     -11.642  15.253  67.184  1.00  0.00    -0.204 N  
HETATM    7  H   UNL     1     -12.010  14.592  67.869  1.00  0.00     0.000 HD 
BRANCH   6   8
HETATM    8  C   UNL     1     -10.973  16.391  67.683  1.00  0.00    -0.225 A  
HETATM    9  C   UNL     1     -10.769  16.616  69.041  1.00  0.00    -0.343 A  
HETATM   10  C   UNL     1     -10.023  17.709  69.484  1.00  0.00     0.139 A  
HETATM   11  C   UNL     1      -9.465  18.619  68.580  1.00  0.00    -0.359 A  
HETATM   12  C   UNL     1      -9.730  18.450  67.212  1.00  0.00    -0.304 A  
HETATM   13  C   UNL     1     -10.480  17.333  66.776  1.00  0.00    -0.261 A  
BRANCH  11  14
HETATM   14  O   UNL     1      -8.637  19.641  68.970  1.00  0.00    -0.301 OA 
BRANCH  14  15
HETATM   15  C   UNL     1      -7.620  19.326  69.936  1.00  0.00     0.459 C  
BRANCH  15  16
HETATM   16  C   UNL     1      -6.508  18.511  69.260  1.00  0.00    -0.258 C  
HETATM   17  H   UNL     1      -4.545  18.489  69.284  1.00  0.00     0.000 HD 
HETATM   18  O   UNL     1      -5.233  18.994  69.702  1.00  0.00    -0.179 OA 
BRANCH  16  19
HETATM   19  C   UNL     1      -6.604  17.002  69.569  1.00  0.00    -0.194 C  
BRANCH  19  20
HETATM   20  N   UNL     1      -5.730  16.203  68.705  1.00  0.00    -0.108 NA 
HETATM   21  H   UNL     1      -4.781  16.178  69.078  1.00  0.00     0.000 HD 
BRANCH  20  22
HETATM   22  C   UNL     1      -6.227  14.842  68.459  1.00  0.00    -0.091 C  
HETATM   23  C   UNL     1      -6.085  13.930  69.685  1.00  0.00    -0.119 C  
HETATM   24  C   UNL     1      -7.705  14.944  68.080  1.00  0.00    -0.128 C  
ENDBRANCH  20  22
ENDBRANCH  19  20
ENDBRANCH  16  19
ENDBRANCH  15  16
ENDBRANCH  14  15
ENDBRANCH  11  14
BRANCH  12  25
HETATM   25  C   UNL     1      -9.219  19.352  66.136  1.00  0.00    -0.288 C  
HETATM   26  C   UNL     1     -10.135  20.298  65.407  1.00  0.00     0.104 C  
HETATM   27  O   UNL     1      -8.031  19.276  65.822  1.00  0.00    -0.446 OA 
ENDBRANCH  12  25
ENDBRANCH   6   8
ENDBRANCH   3   4
ENDBRANCH   2   3
TORSDOF 10
ENDMDL
MODEL      224
REMARK 921   NORMALIZED FREE ENERGY PREDICTED BY IDOCK:   -2.67 KCAL/MOL
REMARK 922        TOTAL FREE ENERGY PREDICTED BY IDOCK:   -5.26 KCAL/MOL
REMARK 923 INTER-LIGAND FREE ENERGY PREDICTED BY IDOCK:   -4.46 KCAL/MOL
REMARK 924 INTRA-LIGAND FREE ENERGY PREDICTED BY IDOCK:   -0.80 KCAL/MOL
REMARK 927      BINDING AFFINITY PREDICTED BY RF-SCORE:    0.00 PKD
ROOT
HETATM    1  C   UNL     1     -11.972  12.169  63.629  1.00  0.00    -0.628 C  
HETATM    2  C   UNL     1     -12.562  12.825  64.865  1.00  0.00    -0.541 C  
ENDROOT
BRANCH   2   3
HETATM    3  C   UNL     1     -11.472  13.412  65.752  1.00  0.00    -0.341 C  
BRANCH   3   4
HETATM    4  C   UNL     1     -10.453  12.356  66.114  1.00  0.00    -0.248 C  
HETATM    5  O   UNL     1      -9.257  12.633  66.124  1.00  0.00    -0.168 OA 
HETATM    6  N   UNL     1     -11.020  11.139  66.465  1.00  0.00    -0.249 N  
HETATM    7  H   UNL     1     -12.038  11.077  66.449  1.00  0.00     0.000 HD 
BRANCH   6   8
HETATM    8  C   UNL     1     -10.311   9.978  66.843  1.00  0.00    -0.234 A  
HETATM    9  C   UNL     1     -10.672   9.190  67.931  1.00  0.00    -0.224 A  
HETATM   10  C   UNL     1      -9.997   8.002  68.212  1.00  0.00    -0.210 A  
HETATM   11  C   UNL     1      -8.930   7.569  67.418  1.00  0.00    -0.126 A  
HETATM   12  C   UNL     1      -8.504   8.394  66.365  1.00  0.00    -0.127 A  
HETATM   13  C   UNL     1      -9.202   9.591  66.085  1.00  0.00    -0.226 A  
BRANCH  11  14
HETATM   14  O   UNL     1      -8.315   6.356  67.597  1.00  0.00    -0.117 OA 
BRANCH  14  15
HETATM   15  C   UNL     1      -9.135   5.182  67.477  1.00  0.00    -0.114 C  
BRANCH  15  16
HETATM   16  C   UNL     1      -8.464   4.012  68.210  1.00  0.00    -0.093 C  
HETATM   17  H   UNL     1      -6.651   3.272  68.348  1.00  0.00     0.000 HD 
HETATM   18  O   UNL     1      -7.066   3.996  67.894  1.00  0.00    -0.057 OA 
BRANCH  16  19
HETATM   19  C   UNL     1      -8.627   4.098  69.742  1.00  0.00    -0.064 C  
BRANCH  19  20
HETATM   20  N   UNL     1      -7.647   5.001  70.353  1.00  0.00    -0.062 NA 
HETATM   21  H   UNL     1      -7.303   5.674  69.669  1.00  0.00     0.000 HD 
BRANCH  20  22
HETATM   22  C   UNL     1      -8.147   5.689  71.552  1.00  0.00    -0.118 C  
HETATM   23  C   UNL     1      -9.472   6.423  71.304  1.00  0.00    -0.175 C  
HETATM   24  C   UNL     1      -8.353   4.639  72.645  1.00  0.00    -0.114 C  
ENDBRANCH  20  22
ENDBRANCH  19  20
ENDBRANCH  16  19
ENDBRANCH  15  16
ENDBRANCH  14  15
ENDBRANCH  11  14
BRANCH  12  25
HETATM   25  C   UNL     1      -7.369   8.072  65.449  1.00  0.00    -0.069 C  
HETATM   26  C   UNL     1      -7.603   7.439  64.103  1.00  0.00    -0.109 C  
HETATM   27  O   UNL     1      -6.221   8.294  65.837  1.00  0.00    -0.047 OA 
ENDBRANCH  12  25
ENDBRANCH   6   8
ENDBRANCH   3   4
ENDBRANCH   2   3
TORSDOF 10
ENDMDL
MODEL      225
REMARK 921   NORMALIZED FREE ENERGY PREDICTED BY IDOCK:   -2.66 KCAL/MOL
REMARK 922        TOTAL FREE ENERGY PREDICTED BY IDOCK:   -5.25 KCAL/MOL
REMARK 923 INTER-LIGAND FREE ENERGY PREDICTED BY IDOCK:   -4.87 KCAL/MOL
REMARK 924 INTRA-LIGAND FREE ENERGY PREDICTED BY IDOCK:   -0.38 KCAL/MOL
REMARK 927      BINDING AFFINITY PREDICTED BY RF-SCORE:    0.00 PKD
ROOT
HETATM    1  C   UNL     1      -9.044   9.267  70.489  1.00  0.00    -0.307 C  
HETATM    2  C   UNL     1      -7.684   8.831  69.971  1.00  0.00    -0.082 C  
ENDROOT
BRANCH   2   3
HETATM    3  C   UNL     1      -6.710  10.001  69.923  1.00  0.00    -0.099 C  
BRANCH   3   4
HETATM    4  C   UNL     1      -7.011  10.897  68.744  1.00  0.00    -0.078 C  
HETATM    5  O   UNL     1      -7.058  10.427  67.610  1.00  0.00    -0.083 OA 
HETATM    6  N   UNL     1      -7.264  12.214  69.102  1.00  0.00    -0.295 N  
HETATM    7  H   UNL     1      -7.228  12.441  70.095  1.00  0.00     0.000 HD 
BRANCH   6   8
HETATM    8  C   UNL     1      -7.567  13.266  68.211  1.00  0.00    -0.139 A  
HETATM    9  C   UNL     1      -8.654  13.233  67.342  1.00  0.00    -0.204 A  
HETATM   10  C   UNL     1      -8.968  14.335  66.544  1.00  0.00    -0.161 A  
HETATM   11  C   UNL     1      -8.196  15.500  66.582  1.00  0.00    -0.209 A  
HETATM   12  C   UNL     1      -7.051  15.517  67.393  1.00  0.00    -0.235 A  
HETATM   13  C   UNL     1      -6.749  14.398  68.204  1.00  0.00    -0.129 A  
BRANCH  11  14
HETATM   14  O   UNL     1      -8.536  16.639  65.896  1.00  0.00    -0.451 OA 
BRANCH  14  15
HETATM   15  C   UNL     1      -9.279  17.638  66.614  1.00  0.00    -0.271 C  
BRANCH  15  16
HETATM   16  C   UNL     1      -9.868  17.018  67.890  1.00  0.00    -0.269 C  
HETATM   17  H   UNL     1     -10.194  17.602  69.736  1.00  0.00     0.000 HD 
HETATM   18  O   UNL     1      -9.829  17.986  68.947  1.00  0.00    -0.352 OA 
BRANCH  16  19
HETATM   19  C   UNL     1     -11.324  16.543  67.703  1.00  0.00     0.070 C  
BRANCH  19  20
HETATM   20  N   UNL     1     -11.878  15.961  68.929  1.00  0.00    -0.465 NA 
HETATM   21  H   UNL     1     -12.619  16.553  69.305  1.00  0.00     0.000 HD 
BRANCH  20  22
HETATM   22  C   UNL     1     -12.350  14.579  68.765  1.00  0.00    -0.029 C  
HETATM   23  C   UNL     1     -12.311  14.110  67.304  1.00  0.00    -0.182 C  
HETATM   24  C   UNL     1     -11.451  13.672  69.606  1.00  0.00    -0.286 C  
ENDBRANCH  20  22
ENDBRANCH  19  20
ENDBRANCH  16  19
ENDBRANCH  15  16
ENDBRANCH  14  15
ENDBRANCH  11  14
BRANCH  12  25
HETATM   25  C   UNL     1      -6.123  16.682  67.518  1.00  0.00    -0.154 C  
HETATM   26  C   UNL     1      -6.151  17.580  68.726  1.00  0.00    -0.183 C  
HETATM   27  O   UNL     1      -5.357  16.924  66.585  1.00  0.00    -0.277 OA 
ENDBRANCH  12  25
ENDBRANCH   6   8
ENDBRANCH   3   4
ENDBRANCH   2   3
TORSDOF 10
ENDMDL
MODEL      226
REMARK 921   NORMALIZED FREE ENERGY PREDICTED BY IDOCK:   -2.64 KCAL/MOL
REMARK 922        TOTAL FREE ENERGY PREDICTED BY IDOCK:   -5.22 KCAL/MOL
REMARK 923 INTER-LIGAND FREE ENERGY PREDICTED BY IDOCK:   -4.63 KCAL/MOL
REMARK 924 INTRA-LIGAND FREE ENERGY PREDICTED BY IDOCK:   -0.60 KCAL/MOL
REMARK 927      BINDING AFFINITY PREDICTED BY RF-SCORE:    0.00 PKD
ROOT
HETATM    1  C   UNL     1     -11.127  16.051  67.944  1.00  0.00    -0.307 C  
HETATM    2  C   UNL     1     -11.332  14.591  67.578  1.00  0.00    -0.355 C  
ENDROOT
BRANCH   2   3
HETATM    3  C   UNL     1     -11.923  13.807  68.741  1.00  0.00    -0.400 C  
BRANCH   3   4
HETATM    4  C   UNL     1     -11.613  12.334  68.604  1.00  0.00    -0.323 C  
HETATM    5  O   UNL     1     -12.338  11.613  67.925  1.00  0.00    -0.404 OA 
HETATM    6  N   UNL     1     -10.448  11.952  69.256  1.00  0.00    -0.435 N  
HETATM    7  H   UNL     1      -9.929  12.681  69.747  1.00  0.00     0.000 HD 
BRANCH   6   8
HETATM    8  C   UNL     1      -9.920  10.644  69.301  1.00  0.00    -0.193 A  
HETATM    9  C   UNL     1     -10.347   9.685  70.214  1.00  0.00    -0.336 A  
HETATM   10  C   UNL     1      -9.861   8.378  70.162  1.00  0.00    -0.183 A  
HETATM   11  C   UNL     1      -8.923   7.991  69.200  1.00  0.00    -0.145 A  
HETATM   12  C   UNL     1      -8.424   8.968  68.324  1.00  0.00    -0.129 A  
HETATM   13  C   UNL     1      -8.931  10.287  68.381  1.00  0.00    -0.132 A  
BRANCH  11  14
HETATM   14  O   UNL     1      -8.506   6.693  69.048  1.00  0.00    -0.128 OA 
BRANCH  14  15
HETATM   15  C   UNL     1      -8.302   5.927  70.247  1.00  0.00    -0.122 C  
BRANCH  15  16
HETATM   16  C   UNL     1      -9.193   4.678  70.213  1.00  0.00    -0.132 C  
HETATM   17  H   UNL     1     -11.074   4.261  70.594  1.00  0.00     0.000 HD 
HETATM   18  O   UNL     1     -10.522   5.034  70.616  1.00  0.00    -0.234 OA 
BRANCH  16  19
HETATM   19  C   UNL     1      -9.254   4.028  68.814  1.00  0.00    -0.151 C  
BRANCH  19  20
HETATM   20  N   UNL     1      -7.920   3.817  68.244  1.00  0.00    -0.071 NA 
HETATM   21  H   UNL     1      -7.217   4.331  68.774  1.00  0.00     0.000 HD 
BRANCH  20  22
HETATM   22  C   UNL     1      -7.547   2.401  68.124  1.00  0.00    -0.055 C  
HETATM   23  C   UNL     1      -7.383   1.715  69.488  1.00  0.00    -0.036 C  
HETATM   24  C   UNL     1      -8.649   1.690  67.336  1.00  0.00    -0.105 C  
ENDBRANCH  20  22
ENDBRANCH  19  20
ENDBRANCH  16  19
ENDBRANCH  15  16
ENDBRANCH  14  15
ENDBRANCH  11  14
BRANCH  12  25
HETATM   25  C   UNL     1      -7.406   8.706  67.261  1.00  0.00    -0.088 C  
HETATM   26  C   UNL     1      -6.579   9.819  66.677  1.00  0.00    -0.071 C  
HETATM   27  O   UNL     1      -7.288   7.557  66.834  1.00  0.00    -0.088 OA 
ENDBRANCH  12  25
ENDBRANCH   6   8
ENDBRANCH   3   4
ENDBRANCH   2   3
TORSDOF 10
ENDMDL
MODEL      227
REMARK 921   NORMALIZED FREE ENERGY PREDICTED BY IDOCK:   -2.63 KCAL/MOL
REMARK 922        TOTAL FREE ENERGY PREDICTED BY IDOCK:   -5.20 KCAL/MOL
REMARK 923 INTER-LIGAND FREE ENERGY PREDICTED BY IDOCK:   -4.16 KCAL/MOL
REMARK 924 INTRA-LIGAND FREE ENERGY PREDICTED BY IDOCK:   -1.04 KCAL/MOL
REMARK 927      BINDING AFFINITY PREDICTED BY RF-SCORE:    0.00 PKD
ROOT
HETATM    1  C   UNL     1      -7.713   7.872  74.486  1.00  0.00    -0.254 C  
HETATM    2  C   UNL     1      -6.362   8.483  74.158  1.00  0.00    -0.147 C  
ENDROOT
BRANCH   2   3
HETATM    3  C   UNL     1      -5.745   7.833  72.927  1.00  0.00    -0.044 C  
BRANCH   3   4
HETATM    4  C   UNL     1      -6.350   8.401  71.664  1.00  0.00    -0.055 C  
HETATM    5  O   UNL     1      -6.685   9.581  71.619  1.00  0.00    -0.310 OA 
HETATM    6  N   UNL     1      -6.413   7.486  70.622  1.00  0.00    -0.038 N  
HETATM    7  H   UNL     1      -6.053   6.548  70.803  1.00  0.00     0.000 HD 
BRANCH   6   8
HETATM    8  C   UNL     1      -6.932   7.738  69.334  1.00  0.00    -0.063 A  
HETATM    9  C   UNL     1      -6.136   8.124  68.259  1.00  0.00    -0.046 A  
HETATM   10  C   UNL     1      -6.680   8.274  66.982  1.00  0.00    -0.062 A  
HETATM   11  C   UNL     1      -8.040   8.054  66.742  1.00  0.00    -0.107 A  
HETATM   12  C   UNL     1      -8.868   7.743  67.832  1.00  0.00    -0.123 A  
HETATM   13  C   UNL     1      -8.304   7.585  69.120  1.00  0.00    -0.135 A  
BRANCH  11  14
HETATM   14  O   UNL     1      -8.587   8.085  65.485  1.00  0.00    -0.155 OA 
BRANCH  14  15
HETATM   15  C   UNL     1      -7.884   8.838  64.483  1.00  0.00    -0.129 C  
BRANCH  15  16
HETATM   16  C   UNL     1      -8.493  10.243  64.378  1.00  0.00    -0.179 C  
HETATM   17  H   UNL     1      -8.640  11.631  62.997  1.00  0.00     0.000 HD 
HETATM   18  O   UNL     1      -8.262  10.761  63.062  1.00  0.00    -0.130 OA 
BRANCH  16  19
HETATM   19  C   UNL     1     -10.010  10.256  64.660  1.00  0.00    -0.307 C  
BRANCH  19  20
HETATM   20  N   UNL     1     -10.531  11.617  64.825  1.00  0.00    -0.279 NA 
HETATM   21  H   UNL     1     -11.191  11.842  64.081  1.00  0.00     0.000 HD 
BRANCH  20  22
HETATM   22  C   UNL     1     -11.131  11.862  66.144  1.00  0.00    -0.326 C  
HETATM   23  C   UNL     1     -10.082  12.149  67.227  1.00  0.00    -0.214 C  
HETATM   24  C   UNL     1     -12.064  13.068  66.019  1.00  0.00    -0.493 C  
ENDBRANCH  20  22
ENDBRANCH  19  20
ENDBRANCH  16  19
ENDBRANCH  15  16
ENDBRANCH  14  15
ENDBRANCH  11  14
BRANCH  12  25
HETATM   25  C   UNL     1     -10.339   7.502  67.731  1.00  0.00    -0.216 C  
HETATM   26  C   UNL     1     -10.889   6.142  67.392  1.00  0.00    -0.431 C  
HETATM   27  O   UNL     1     -11.102   8.456  67.887  1.00  0.00     0.083 OA 
ENDBRANCH  12  25
ENDBRANCH   6   8
ENDBRANCH   3   4
ENDBRANCH   2   3
TORSDOF 10
ENDMDL
MODEL      228
REMARK 921   NORMALIZED FREE ENERGY PREDICTED BY IDOCK:   -2.62 KCAL/MOL
REMARK 922        TOTAL FREE ENERGY PREDICTED BY IDOCK:   -5.18 KCAL/MOL
REMARK 923 INTER-LIGAND FREE ENERGY PREDICTED BY IDOCK:   -6.11 KCAL/MOL
REMARK 924 INTRA-LIGAND FREE ENERGY PREDICTED BY IDOCK:    0.93 KCAL/MOL
REMARK 927      BINDING AFFINITY PREDICTED BY RF-SCORE:    0.00 PKD
ROOT
HETATM    1  C   UNL     1     -13.155  12.210  64.127  1.00  0.00    -0.113 C  
HETATM    2  C   UNL     1     -12.024  12.288  65.137  1.00  0.00    -0.395 C  
ENDROOT
BRANCH   2   3
HETATM    3  C   UNL     1     -10.754  12.842  64.504  1.00  0.00    -0.392 C  
BRANCH   3   4
HETATM    4  C   UNL     1     -10.521  14.271  64.940  1.00  0.00    -0.430 C  
HETATM    5  O   UNL     1     -11.387  15.120  64.754  1.00  0.00    -0.400 OA 
HETATM    6  N   UNL     1      -9.306  14.459  65.585  1.00  0.00    -0.503 N  
HETATM    7  H   UNL     1      -8.709  13.640  65.702  1.00  0.00     0.000 HD 
BRANCH   6   8
HETATM    8  C   UNL     1      -8.825  15.685  66.093  1.00  0.00    -0.276 A  
HETATM    9  C   UNL     1      -7.537  15.843  66.595  1.00  0.00    -0.150 A  
HETATM   10  C   UNL     1      -7.074  17.095  67.003  1.00  0.00    -0.225 A  
HETATM   11  C   UNL     1      -7.891  18.228  66.932  1.00  0.00    -0.230 A  
HETATM   12  C   UNL     1      -9.218  18.068  66.503  1.00  0.00    -0.286 A  
HETATM   13  C   UNL     1      -9.672  16.796  66.084  1.00  0.00    -0.315 A  
BRANCH  11  14
HETATM   14  O   UNL     1      -7.438  19.491  67.219  1.00  0.00    -0.226 OA 
BRANCH  14  15
HETATM   15  C   UNL     1      -6.182  19.594  67.911  1.00  0.00    -0.215 C  
BRANCH  15  16
HETATM   16  C   UNL     1      -6.441  19.870  69.399  1.00  0.00    -0.347 C  
HETATM   17  H   UNL     1      -8.012  19.996  70.570  1.00  0.00     0.000 HD 
HETATM   18  O   UNL     1      -7.852  19.826  69.649  1.00  0.00    -0.048 OA 
BRANCH  16  19
HETATM   19  C   UNL     1      -5.739  18.853  70.323  1.00  0.00    -0.227 C  
BRANCH  19  20
HETATM   20  N   UNL     1      -5.509  17.567  69.658  1.00  0.00    -0.194 NA 
HETATM   21  H   UNL     1      -4.511  17.394  69.544  1.00  0.00     0.000 HD 
BRANCH  20  22
HETATM   22  C   UNL     1      -6.159  16.432  70.328  1.00  0.00     0.005 C  
HETATM   23  C   UNL     1      -7.437  15.974  69.610  1.00  0.00    -0.005 C  
HETATM   24  C   UNL     1      -5.162  15.273  70.363  1.00  0.00    -0.124 C  
ENDBRANCH  20  22
ENDBRANCH  19  20
ENDBRANCH  16  19
ENDBRANCH  15  16
ENDBRANCH  14  15
ENDBRANCH  11  14
BRANCH  12  25
HETATM   25  C   UNL     1     -10.209  19.182  66.395  1.00  0.00    -0.438 C  
HETATM   26  C   UNL     1     -11.161  19.495  67.519  1.00  0.00    -0.232 C  
HETATM   27  O   UNL     1     -10.265  19.817  65.342  1.00  0.00    -0.347 OA 
ENDBRANCH  12  25
ENDBRANCH   6   8
ENDBRANCH   3   4
ENDBRANCH   2   3
TORSDOF 10
ENDMDL
MODEL      229
REMARK 921   NORMALIZED FREE ENERGY PREDICTED BY IDOCK:   -2.61 KCAL/MOL
REMARK 922        TOTAL FREE ENERGY PREDICTED BY IDOCK:   -5.17 KCAL/MOL
REMARK 923 INTER-LIGAND FREE ENERGY PREDICTED BY IDOCK:   -4.09 KCAL/MOL
REMARK 924 INTRA-LIGAND FREE ENERGY PREDICTED BY IDOCK:   -1.08 KCAL/MOL
REMARK 927      BINDING AFFINITY PREDICTED BY RF-SCORE:    0.00 PKD
ROOT
HETATM    1  C   UNL     1     -11.519  15.096  65.905  1.00  0.00    -0.159 C  
HETATM    2  C   UNL     1     -11.051  13.853  66.641  1.00  0.00    -0.310 C  
ENDROOT
BRANCH   2   3
HETATM    3  C   UNL     1     -11.252  12.602  65.796  1.00  0.00    -0.347 C  
BRANCH   3   4
HETATM    4  C   UNL     1     -10.336  11.493  66.260  1.00  0.00    -0.239 C  
HETATM    5  O   UNL     1      -9.136  11.539  66.006  1.00  0.00    -0.209 OA 
HETATM    6  N   UNL     1     -10.984  10.518  67.006  1.00  0.00    -0.227 N  
HETATM    7  H   UNL     1     -11.983  10.642  67.168  1.00  0.00     0.000 HD 
BRANCH   6   8
HETATM    8  C   UNL     1     -10.380   9.368  67.561  1.00  0.00    -0.255 A  
HETATM    9  C   UNL     1      -9.875   8.329  66.785  1.00  0.00    -0.333 A  
HETATM   10  C   UNL     1      -9.205   7.255  67.374  1.00  0.00    -0.140 A  
HETATM   11  C   UNL     1      -9.030   7.181  68.759  1.00  0.00    -0.128 A  
HETATM   12  C   UNL     1      -9.605   8.182  69.559  1.00  0.00    -0.168 A  
HETATM   13  C   UNL     1     -10.273   9.270  68.950  1.00  0.00    -0.217 A  
BRANCH  11  14
HETATM   14  O   UNL     1      -8.285   6.201  69.363  1.00  0.00    -0.110 OA 
BRANCH  14  15
HETATM   15  C   UNL     1      -6.977   5.946  68.823  1.00  0.00    -0.072 C  
BRANCH  15  16
HETATM   16  C   UNL     1      -6.385   4.694  69.485  1.00  0.00    -0.028 C  
HETATM   17  H   UNL     1      -6.419   3.878  71.270  1.00  0.00     0.000 HD 
HETATM   18  O   UNL     1      -6.785   4.654  70.861  1.00  0.00    -0.033 OA 
BRANCH  16  19
HETATM   19  C   UNL     1      -6.836   3.388  68.797  1.00  0.00    -0.045 C  
BRANCH  19  20
HETATM   20  N   UNL     1      -8.221   3.038  69.126  1.00  0.00    -0.058 NA 
HETATM   21  H   UNL     1      -8.674   3.800  69.631  1.00  0.00     0.000 HD 
BRANCH  20  22
HETATM   22  C   UNL     1      -9.022   2.640  67.960  1.00  0.00    -0.160 C  
HETATM   23  C   UNL     1      -9.222   3.787  66.960  1.00  0.00    -0.202 C  
HETATM   24  C   UNL     1      -8.296   1.489  67.262  1.00  0.00    -0.082 C  
ENDBRANCH  20  22
ENDBRANCH  19  20
ENDBRANCH  16  19
ENDBRANCH  15  16
ENDBRANCH  14  15
ENDBRANCH  11  14
BRANCH  12  25
HETATM   25  C   UNL     1      -9.517   8.223  71.050  1.00  0.00    -0.161 C  
HETATM   26  C   UNL     1      -8.218   8.523  71.751  1.00  0.00    -0.209 C  
HETATM   27  O   UNL     1     -10.526   7.960  71.704  1.00  0.00    -0.202 OA 
ENDBRANCH  12  25
ENDBRANCH   6   8
ENDBRANCH   3   4
ENDBRANCH   2   3
TORSDOF 10
ENDMDL
MODEL      230
REMARK 921   NORMALIZED FREE ENERGY PREDICTED BY IDOCK:   -2.60 KCAL/MOL
REMARK 922        TOTAL FREE ENERGY PREDICTED BY IDOCK:   -5.15 KCAL/MOL
REMARK 923 INTER-LIGAND FREE ENERGY PREDICTED BY IDOCK:   -4.03 KCAL/MOL
REMARK 924 INTRA-LIGAND FREE ENERGY PREDICTED BY IDOCK:   -1.12 KCAL/MOL
REMARK 927      BINDING AFFINITY PREDICTED BY RF-SCORE:    0.00 PKD
ROOT
HETATM    1  C   UNL     1     -10.536   6.902  73.866  1.00  0.00    -0.352 C  
HETATM    2  C   UNL     1      -9.268   6.705  73.053  1.00  0.00    -0.144 C  
ENDROOT
BRANCH   2   3
HETATM    3  C   UNL     1      -8.221   7.755  73.400  1.00  0.00    -0.220 C  
BRANCH   3   4
HETATM    4  C   UNL     1      -7.854   8.566  72.179  1.00  0.00    -0.082 C  
HETATM    5  O   UNL     1      -6.999   9.444  72.258  1.00  0.00    -0.215 OA 
HETATM    6  N   UNL     1      -8.525   8.170  71.031  1.00  0.00    -0.125 N  
HETATM    7  H   UNL     1      -9.178   7.391  71.118  1.00  0.00     0.000 HD 
BRANCH   6   8
HETATM    8  C   UNL     1      -8.383   8.750  69.752  1.00  0.00    -0.127 A  
HETATM    9  C   UNL     1      -7.551   8.223  68.769  1.00  0.00    -0.101 A  
HETATM   10  C   UNL     1      -7.512   8.778  67.489  1.00  0.00    -0.089 A  
HETATM   11  C   UNL     1      -8.297   9.886  67.154  1.00  0.00    -0.121 A  
HETATM   12  C   UNL     1      -9.080  10.477  68.159  1.00  0.00    -0.141 A  
HETATM   13  C   UNL     1      -9.118   9.900  69.450  1.00  0.00    -0.216 A  
BRANCH  11  14
HETATM   14  O   UNL     1      -8.368  10.390  65.881  1.00  0.00    -0.140 OA 
BRANCH  14  15
HETATM   15  C   UNL     1      -9.005   9.570  64.887  1.00  0.00    -0.219 C  
BRANCH  15  16
HETATM   16  C   UNL     1      -7.977   9.168  63.820  1.00  0.00    -0.146 C  
HETATM   17  H   UNL     1      -6.246   9.844  63.187  1.00  0.00     0.000 HD 
HETATM   18  O   UNL     1      -6.882  10.093  63.847  1.00  0.00    -0.131 OA 
BRANCH  16  19
HETATM   19  C   UNL     1      -7.429   7.741  64.030  1.00  0.00    -0.103 C  
BRANCH  19  20
HETATM   20  N   UNL     1      -8.361   6.896  64.784  1.00  0.00    -0.319 NA 
HETATM   21  H   UNL     1      -9.326   7.121  64.543  1.00  0.00     0.000 HD 
BRANCH  20  22
HETATM   22  C   UNL     1      -8.109   5.456  64.629  1.00  0.00    -0.125 C  
HETATM   23  C   UNL     1      -6.612   5.119  64.589  1.00  0.00    -0.043 C  
HETATM   24  C   UNL     1      -8.753   4.736  65.814  1.00  0.00    -0.127 C  
ENDBRANCH  20  22
ENDBRANCH  19  20
ENDBRANCH  16  19
ENDBRANCH  15  16
ENDBRANCH  14  15
ENDBRANCH  11  14
BRANCH  12  25
HETATM   25  C   UNL     1      -9.950  11.674  67.954  1.00  0.00    -0.182 C  
HETATM   26  C   UNL     1     -11.407  11.532  67.601  1.00  0.00    -0.358 C  
HETATM   27  O   UNL     1      -9.439  12.791  68.036  1.00  0.00    -0.201 OA 
ENDBRANCH  12  25
ENDBRANCH   6   8
ENDBRANCH   3   4
ENDBRANCH   2   3
TORSDOF 10
ENDMDL
MODEL      231
REMARK 921   NORMALIZED FREE ENERGY PREDICTED BY IDOCK:   -2.59 KCAL/MOL
REMARK 922        TOTAL FREE ENERGY PREDICTED BY IDOCK:   -5.14 KCAL/MOL
REMARK 923 INTER-LIGAND FREE ENERGY PREDICTED BY IDOCK:   -4.32 KCAL/MOL
REMARK 924 INTRA-LIGAND FREE ENERGY PREDICTED BY IDOCK:   -0.82 KCAL/MOL
REMARK 927      BINDING AFFINITY PREDICTED BY RF-SCORE:    0.00 PKD
ROOT
HETATM    1  C   UNL     1      -8.952  11.292  62.529  1.00  0.00    -0.287 C  
HETATM    2  C   UNL     1     -10.284  10.848  63.109  1.00  0.00    -0.253 C  
ENDROOT
BRANCH   2   3
HETATM    3  C   UNL     1     -10.577  11.556  64.425  1.00  0.00    -0.392 C  
BRANCH   3   4
HETATM    4  C   UNL     1      -9.951  10.811  65.582  1.00  0.00    -0.260 C  
HETATM    5  O   UNL     1      -9.710  11.398  66.633  1.00  0.00    -0.194 OA 
HETATM    6  N   UNL     1      -9.758   9.460  65.329  1.00  0.00    -0.453 N  
HETATM    7  H   UNL     1     -10.051   9.111  64.416  1.00  0.00     0.000 HD 
BRANCH   6   8
HETATM    8  C   UNL     1      -9.191   8.527  66.223  1.00  0.00    -0.207 A  
HETATM    9  C   UNL     1      -7.818   8.395  66.410  1.00  0.00    -0.098 A  
HETATM   10  C   UNL     1      -7.306   7.522  67.372  1.00  0.00    -0.099 A  
HETATM   11  C   UNL     1      -8.152   6.744  68.169  1.00  0.00    -0.115 A  
HETATM   12  C   UNL     1      -9.535   6.808  67.935  1.00  0.00    -0.118 A  
HETATM   13  C   UNL     1     -10.042   7.703  66.965  1.00  0.00    -0.338 A  
BRANCH  11  14
HETATM   14  O   UNL     1      -7.692   5.960  69.196  1.00  0.00    -0.087 OA 
BRANCH  14  15
HETATM   15  C   UNL     1      -7.420   4.581  68.894  1.00  0.00    -0.056 C  
BRANCH  15  16
HETATM   16  C   UNL     1      -7.242   4.415  67.378  1.00  0.00    -0.069 C  
HETATM   17  H   UNL     1      -5.745   4.106  66.146  1.00  0.00     0.000 HD 
HETATM   18  O   UNL     1      -5.855   4.209  67.084  1.00  0.00    -0.021 OA 
BRANCH  16  19
HETATM   19  C   UNL     1      -8.053   3.232  66.810  1.00  0.00    -0.080 C  
BRANCH  19  20
HETATM   20  N   UNL     1      -9.240   3.678  66.072  1.00  0.00    -0.156 NA 
HETATM   21  H   UNL     1      -9.170   4.669  65.844  1.00  0.00     0.000 HD 
BRANCH  20  22
HETATM   22  C   UNL     1      -9.516   2.885  64.866  1.00  0.00    -0.123 C  
HETATM   23  C   UNL     1     -10.418   3.623  63.867  1.00  0.00    -0.276 C  
HETATM   24  C   UNL     1      -8.179   2.569  64.194  1.00  0.00    -0.082 C  
ENDBRANCH  20  22
ENDBRANCH  19  20
ENDBRANCH  16  19
ENDBRANCH  15  16
ENDBRANCH  14  15
ENDBRANCH  11  14
BRANCH  12  25
HETATM   25  C   UNL     1     -10.555   6.023  68.693  1.00  0.00    -0.266 C  
HETATM   26  C   UNL     1     -11.287   6.616  69.867  1.00  0.00    -0.422 C  
HETATM   27  O   UNL     1     -10.756   4.853  68.365  1.00  0.00     0.138 OA 
ENDBRANCH  12  25
ENDBRANCH   6   8
ENDBRANCH   3   4
ENDBRANCH   2   3
TORSDOF 10
ENDMDL
MODEL      232
REMARK 921   NORMALIZED FREE ENERGY PREDICTED BY IDOCK:   -2.55 KCAL/MOL
REMARK 922        TOTAL FREE ENERGY PREDICTED BY IDOCK:   -5.08 KCAL/MOL
REMARK 923 INTER-LIGAND FREE ENERGY PREDICTED BY IDOCK:   -6.05 KCAL/MOL
REMARK 924 INTRA-LIGAND FREE ENERGY PREDICTED BY IDOCK:    0.97 KCAL/MOL
REMARK 927      BINDING AFFINITY PREDICTED BY RF-SCORE:    0.00 PKD
ROOT
HETATM    1  C   UNL     1      -7.963  10.650  62.341  1.00  0.00    -0.217 C  
HETATM    2  C   UNL     1      -9.400  10.205  62.553  1.00  0.00    -0.313 C  
ENDROOT
BRANCH   2   3
HETATM    3  C   UNL     1     -10.008  10.868  63.781  1.00  0.00    -0.408 C  
BRANCH   3   4
HETATM    4  C   UNL     1      -9.464  10.247  65.047  1.00  0.00    -0.257 C  
HETATM    5  O   UNL     1      -8.318  10.495  65.411  1.00  0.00    -0.162 OA 
HETATM    6  N   UNL     1     -10.391   9.463  65.720  1.00  0.00    -0.189 N  
HETATM    7  H   UNL     1     -11.322   9.387  65.310  1.00  0.00     0.000 HD 
BRANCH   6   8
HETATM    8  C   UNL     1     -10.159   8.761  66.922  1.00  0.00    -0.278 A  
HETATM    9  C   UNL     1     -10.712   7.512  67.189  1.00  0.00    -0.379 A  
HETATM   10  C   UNL     1     -10.381   6.815  68.352  1.00  0.00    -0.214 A  
HETATM   11  C   UNL     1      -9.495   7.351  69.292  1.00  0.00    -0.154 A  
HETATM   12  C   UNL     1      -8.993   8.644  69.074  1.00  0.00    -0.142 A  
HETATM   13  C   UNL     1      -9.328   9.336  67.887  1.00  0.00    -0.143 A  
BRANCH  11  14
HETATM   14  O   UNL     1      -9.062   6.651  70.390  1.00  0.00    -0.151 OA 
BRANCH  14  15
HETATM   15  C   UNL     1      -9.942   6.608  71.526  1.00  0.00    -0.175 C  
BRANCH  15  16
HETATM   16  C   UNL     1     -11.304   7.203  71.141  1.00  0.00    -0.275 C  
HETATM   17  H   UNL     1     -13.190   6.765  71.466  1.00  0.00     0.000 HD 
HETATM   18  O   UNL     1     -12.347   6.397  71.704  1.00  0.00    -0.312 OA 
BRANCH  16  19
HETATM   19  C   UNL     1     -11.478   8.656  71.629  1.00  0.00    -0.305 C  
BRANCH  19  20
HETATM   20  N   UNL     1     -12.239   9.472  70.678  1.00  0.00    -0.466 NA 
HETATM   21  H   UNL     1     -13.241   9.346  70.818  1.00  0.00     0.000 HD 
BRANCH  20  22
HETATM   22  C   UNL     1     -11.885  10.898  70.709  1.00  0.00    -0.319 C  
HETATM   23  C   UNL     1     -11.902  11.542  69.315  1.00  0.00    -0.414 C  
HETATM   24  C   UNL     1     -12.897  11.614  71.603  1.00  0.00    -0.454 C  
ENDBRANCH  20  22
ENDBRANCH  19  20
ENDBRANCH  16  19
ENDBRANCH  15  16
ENDBRANCH  14  15
ENDBRANCH  11  14
BRANCH  12  25
HETATM   25  C   UNL     1      -8.055   9.351  69.998  1.00  0.00    -0.152 C  
HETATM   26  C   UNL     1      -7.295   8.607  71.063  1.00  0.00    -0.083 C  
HETATM   27  O   UNL     1      -7.949  10.574  69.902  1.00  0.00    -0.092 OA 
ENDBRANCH  12  25
ENDBRANCH   6   8
ENDBRANCH   3   4
ENDBRANCH   2   3
TORSDOF 10
ENDMDL
MODEL      233
REMARK 921   NORMALIZED FREE ENERGY PREDICTED BY IDOCK:   -2.55 KCAL/MOL
REMARK 922        TOTAL FREE ENERGY PREDICTED BY IDOCK:   -5.07 KCAL/MOL
REMARK 923 INTER-LIGAND FREE ENERGY PREDICTED BY IDOCK:   -3.95 KCAL/MOL
REMARK 924 INTRA-LIGAND FREE ENERGY PREDICTED BY IDOCK:   -1.13 KCAL/MOL
REMARK 927      BINDING AFFINITY PREDICTED BY RF-SCORE:    0.00 PKD
ROOT
HETATM    1  C   UNL     1     -11.019  15.834  67.952  1.00  0.00    -0.324 C  
HETATM    2  C   UNL     1     -11.510  14.521  67.368  1.00  0.00    -0.385 C  
ENDROOT
BRANCH   2   3
HETATM    3  C   UNL     1     -11.678  13.463  68.450  1.00  0.00    -0.390 C  
BRANCH   3   4
HETATM    4  C   UNL     1     -11.445  12.081  67.886  1.00  0.00    -0.330 C  
HETATM    5  O   UNL     1     -12.391  11.316  67.719  1.00  0.00    -0.262 OA 
HETATM    6  N   UNL     1     -10.120  11.837  67.552  1.00  0.00    -0.190 N  
HETATM    7  H   UNL     1      -9.453  12.593  67.712  1.00  0.00     0.000 HD 
BRANCH   6   8
HETATM    8  C   UNL     1      -9.613  10.636  67.012  1.00  0.00    -0.169 A  
HETATM    9  C   UNL     1      -9.978   9.379  67.486  1.00  0.00    -0.250 A  
HETATM   10  C   UNL     1      -9.522   8.217  66.862  1.00  0.00    -0.240 A  
HETATM   11  C   UNL     1      -8.677   8.275  65.749  1.00  0.00    -0.166 A  
HETATM   12  C   UNL     1      -8.238   9.534  65.310  1.00  0.00    -0.131 A  
HETATM   13  C   UNL     1      -8.714  10.705  65.945  1.00  0.00    -0.186 A  
BRANCH  11  14
HETATM   14  O   UNL     1      -8.298   7.161  65.044  1.00  0.00    -0.125 OA 
BRANCH  14  15
HETATM   15  C   UNL     1      -8.641   5.883  65.606  1.00  0.00    -0.155 C  
BRANCH  15  16
HETATM   16  C   UNL     1      -7.447   5.340  66.404  1.00  0.00    -0.087 C  
HETATM   17  H   UNL     1      -6.808   3.576  66.983  1.00  0.00     0.000 HD 
HETATM   18  O   UNL     1      -7.547   3.913  66.490  1.00  0.00    -0.085 OA 
BRANCH  16  19
HETATM   19  C   UNL     1      -6.090   5.707  65.768  1.00  0.00    -0.029 C  
BRANCH  19  20
HETATM   20  N   UNL     1      -5.508   6.914  66.363  1.00  0.00    -0.021 NA 
HETATM   21  H   UNL     1      -5.699   7.730  65.781  1.00  0.00     0.000 HD 
BRANCH  20  22
HETATM   22  C   UNL     1      -5.936   7.154  67.748  1.00  0.00    -0.033 C  
HETATM   23  C   UNL     1      -5.270   6.196  68.746  1.00  0.00    -0.004 C  
HETATM   24  C   UNL     1      -5.566   8.592  68.113  1.00  0.00    -0.035 C  
ENDBRANCH  20  22
ENDBRANCH  19  20
ENDBRANCH  16  19
ENDBRANCH  15  16
ENDBRANCH  14  15
ENDBRANCH  11  14
BRANCH  12  25
HETATM   25  C   UNL     1      -7.320   9.749  64.150  1.00  0.00    -0.128 C  
HETATM   26  C   UNL     1      -5.827   9.803  64.332  1.00  0.00    -0.092 C  
HETATM   27  O   UNL     1      -7.815   9.929  63.037  1.00  0.00    -0.127 OA 
ENDBRANCH  12  25
ENDBRANCH   6   8
ENDBRANCH   3   4
ENDBRANCH   2   3
TORSDOF 10
ENDMDL
MODEL      234
REMARK 921   NORMALIZED FREE ENERGY PREDICTED BY IDOCK:   -2.54 KCAL/MOL
REMARK 922        TOTAL FREE ENERGY PREDICTED BY IDOCK:   -5.06 KCAL/MOL
REMARK 923 INTER-LIGAND FREE ENERGY PREDICTED BY IDOCK:   -5.47 KCAL/MOL
REMARK 924 INTRA-LIGAND FREE ENERGY PREDICTED BY IDOCK:    0.41 KCAL/MOL
REMARK 927      BINDING AFFINITY PREDICTED BY RF-SCORE:    0.00 PKD
ROOT
HETATM    1  C   UNL     1     -12.873  11.717  63.770  1.00  0.00    -0.302 C  
HETATM    2  C   UNL     1     -11.594  10.928  63.553  1.00  0.00     1.044 C  
ENDROOT
BRANCH   2   3
HETATM    3  C   UNL     1     -10.388  11.851  63.437  1.00  0.00    -0.481 C  
BRANCH   3   4
HETATM    4  C   UNL     1     -10.678  13.189  64.076  1.00  0.00    -0.302 C  
HETATM    5  O   UNL     1     -11.523  13.935  63.587  1.00  0.00    -0.022 OA 
HETATM    6  N   UNL     1      -9.952  13.416  65.237  1.00  0.00    -0.505 N  
HETATM    7  H   UNL     1      -9.316  12.678  65.540  1.00  0.00     0.000 HD 
BRANCH   6   8
HETATM    8  C   UNL     1     -10.016  14.578  66.036  1.00  0.00    -0.322 A  
HETATM    9  C   UNL     1      -9.451  15.791  65.655  1.00  0.00    -0.252 A  
HETATM   10  C   UNL     1      -9.618  16.936  66.435  1.00  0.00    -0.305 A  
HETATM   11  C   UNL     1     -10.348  16.901  67.628  1.00  0.00    -0.317 A  
HETATM   12  C   UNL     1     -10.855  15.667  68.064  1.00  0.00    -0.308 A  
HETATM   13  C   UNL     1     -10.687  14.516  67.260  1.00  0.00    -0.287 A  
BRANCH  11  14
HETATM   14  O   UNL     1     -10.625  18.026  68.363  1.00  0.00    -0.340 OA 
BRANCH  14  15
HETATM   15  C   UNL     1     -10.917  19.229  67.632  1.00  0.00    -0.273 C  
BRANCH  15  16
HETATM   16  C   UNL     1     -10.071  20.383  68.188  1.00  0.00    -0.181 C  
HETATM   17  H   UNL     1      -9.263  20.850  69.916  1.00  0.00     0.000 HD 
HETATM   18  O   UNL     1      -9.788  20.136  69.572  1.00  0.00    -0.101 OA 
BRANCH  16  19
HETATM   19  C   UNL     1      -8.738  20.561  67.431  1.00  0.00    -0.272 C  
BRANCH  19  20
HETATM   20  N   UNL     1      -7.985  19.307  67.334  1.00  0.00    -0.261 NA 
HETATM   21  H   UNL     1      -8.077  18.903  66.402  1.00  0.00     0.000 HD 
BRANCH  20  22
HETATM   22  C   UNL     1      -6.569  19.440  67.704  1.00  0.00    -0.217 C  
HETATM   23  C   UNL     1      -6.260  20.777  68.392  1.00  0.00    -0.357 C  
HETATM   24  C   UNL     1      -6.223  18.295  68.657  1.00  0.00    -0.208 C  
ENDBRANCH  20  22
ENDBRANCH  19  20
ENDBRANCH  16  19
ENDBRANCH  15  16
ENDBRANCH  14  15
ENDBRANCH  11  14
BRANCH  12  25
HETATM   25  C   UNL     1     -11.635  15.474  69.324  1.00  0.00    -0.357 C  
HETATM   26  C   UNL     1     -11.373  16.317  70.544  1.00  0.00    -0.318 C  
HETATM   27  O   UNL     1     -12.473  14.573  69.362  1.00  0.00    -0.230 OA 
ENDBRANCH  12  25
ENDBRANCH   6   8
ENDBRANCH   3   4
ENDBRANCH   2   3
TORSDOF 10
ENDMDL
MODEL      235
REMARK 921   NORMALIZED FREE ENERGY PREDICTED BY IDOCK:   -2.54 KCAL/MOL
REMARK 922        TOTAL FREE ENERGY PREDICTED BY IDOCK:   -5.05 KCAL/MOL
REMARK 923 INTER-LIGAND FREE ENERGY PREDICTED BY IDOCK:   -4.76 KCAL/MOL
REMARK 924 INTRA-LIGAND FREE ENERGY PREDICTED BY IDOCK:   -0.29 KCAL/MOL
REMARK 927      BINDING AFFINITY PREDICTED BY RF-SCORE:    0.00 PKD
ROOT
HETATM    1  C   UNL     1     -12.711  11.599  70.907  1.00  0.00    -0.351 C  
HETATM    2  C   UNL     1     -13.384  10.897  72.073  1.00  0.00    -0.394 C  
ENDROOT
BRANCH   2   3
HETATM    3  C   UNL     1     -13.196   9.388  71.993  1.00  0.00    -0.529 C  
BRANCH   3   4
HETATM    4  C   UNL     1     -11.816   9.049  71.479  1.00  0.00    -0.345 C  
HETATM    5  O   UNL     1     -10.880   8.925  72.265  1.00  0.00    -0.332 OA 
HETATM    6  N   UNL     1     -11.770   8.854  70.106  1.00  0.00    -0.460 N  
HETATM    7  H   UNL     1     -12.646   8.952  69.592  1.00  0.00     0.000 HD 
BRANCH   6   8
HETATM    8  C   UNL     1     -10.617   8.533  69.357  1.00  0.00    -0.195 A  
HETATM    9  C   UNL     1      -9.738   7.517  69.719  1.00  0.00    -0.171 A  
HETATM   10  C   UNL     1      -8.661   7.175  68.899  1.00  0.00    -0.129 A  
HETATM   11  C   UNL     1      -8.423   7.848  67.696  1.00  0.00    -0.127 A  
HETATM   12  C   UNL     1      -9.255   8.927  67.359  1.00  0.00    -0.157 A  
HETATM   13  C   UNL     1     -10.348   9.258  68.193  1.00  0.00    -0.261 A  
BRANCH  11  14
HETATM   14  O   UNL     1      -7.443   7.469  66.814  1.00  0.00    -0.089 OA 
BRANCH  14  15
HETATM   15  C   UNL     1      -7.175   6.062  66.698  1.00  0.00    -0.074 C  
BRANCH  15  16
HETATM   16  C   UNL     1      -8.267   5.403  65.843  1.00  0.00    -0.119 C  
HETATM   17  H   UNL     1      -9.038   5.681  64.060  1.00  0.00     0.000 HD 
HETATM   18  O   UNL     1      -8.363   6.090  64.589  1.00  0.00    -0.131 OA 
BRANCH  16  19
HETATM   19  C   UNL     1      -7.991   3.909  65.574  1.00  0.00    -0.093 C  
BRANCH  19  20
HETATM   20  N   UNL     1      -8.302   3.529  64.192  1.00  0.00    -0.090 NA 
HETATM   21  H   UNL     1      -7.831   4.150  63.534  1.00  0.00     0.000 HD 
BRANCH  20  22
HETATM   22  C   UNL     1      -8.002   2.124  63.885  1.00  0.00    -0.072 C  
HETATM   23  C   UNL     1      -8.951   1.532  62.834  1.00  0.00    -0.078 C  
HETATM   24  C   UNL     1      -6.568   2.053  63.359  1.00  0.00    -0.022 C  
ENDBRANCH  20  22
ENDBRANCH  19  20
ENDBRANCH  16  19
ENDBRANCH  15  16
ENDBRANCH  14  15
ENDBRANCH  11  14
BRANCH  12  25
HETATM   25  C   UNL     1      -9.109   9.749  66.119  1.00  0.00    -0.161 C  
HETATM   26  C   UNL     1      -8.570  11.153  66.169  1.00  0.00    -0.172 C  
HETATM   27  O   UNL     1      -9.483   9.267  65.050  1.00  0.00    -0.209 OA 
ENDBRANCH  12  25
ENDBRANCH   6   8
ENDBRANCH   3   4
ENDBRANCH   2   3
TORSDOF 10
ENDMDL
MODEL      236
REMARK 921   NORMALIZED FREE ENERGY PREDICTED BY IDOCK:   -2.54 KCAL/MOL
REMARK 922        TOTAL FREE ENERGY PREDICTED BY IDOCK:   -5.05 KCAL/MOL
REMARK 923 INTER-LIGAND FREE ENERGY PREDICTED BY IDOCK:   -5.57 KCAL/MOL
REMARK 924 INTRA-LIGAND FREE ENERGY PREDICTED BY IDOCK:    0.52 KCAL/MOL
REMARK 927      BINDING AFFINITY PREDICTED BY RF-SCORE:    0.00 PKD
ROOT
HETATM    1  C   UNL     1     -12.514  16.034  73.069  1.00  0.00    -0.614 C  
HETATM    2  C   UNL     1     -13.732  15.306  72.528  1.00  0.00    -0.627 C  
ENDROOT
BRANCH   2   3
HETATM    3  C   UNL     1     -13.670  13.817  72.842  1.00  0.00    -0.130 C  
BRANCH   3   4
HETATM    4  C   UNL     1     -12.994  13.063  71.719  1.00  0.00    -0.321 C  
HETATM    5  O   UNL     1     -13.257  11.879  71.527  1.00  0.00    -0.358 OA 
HETATM    6  N   UNL     1     -12.144  13.853  70.958  1.00  0.00    -0.452 N  
HETATM    7  H   UNL     1     -12.062  14.836  71.219  1.00  0.00     0.000 HD 
BRANCH   6   8
HETATM    8  C   UNL     1     -11.381  13.415  69.854  1.00  0.00    -0.012 A  
HETATM    9  C   UNL     1     -10.803  14.289  68.939  1.00  0.00    -0.272 A  
HETATM   10  C   UNL     1      -9.981  13.815  67.914  1.00  0.00    -0.240 A  
HETATM   11  C   UNL     1      -9.722  12.449  67.766  1.00  0.00    -0.201 A  
HETATM   12  C   UNL     1     -10.363  11.550  68.633  1.00  0.00    -0.226 A  
HETATM   13  C   UNL     1     -11.186  12.043  69.673  1.00  0.00    -0.168 A  
BRANCH  11  14
HETATM   14  O   UNL     1      -8.835  11.957  66.843  1.00  0.00    -0.185 OA 
BRANCH  14  15
HETATM   15  C   UNL     1      -7.664  11.295  67.348  1.00  0.00    -0.128 C  
BRANCH  15  16
HETATM   16  C   UNL     1      -6.892  10.661  66.183  1.00  0.00    -0.135 C  
HETATM   17  H   UNL     1      -5.436   9.359  65.982  1.00  0.00     0.000 HD 
HETATM   18  O   UNL     1      -5.913   9.752  66.703  1.00  0.00    -0.057 OA 
BRANCH  16  19
HETATM   19  C   UNL     1      -7.810   9.899  65.205  1.00  0.00    -0.131 C  
BRANCH  19  20
HETATM   20  N   UNL     1      -7.203   9.747  63.879  1.00  0.00    -0.117 NA 
HETATM   21  H   UNL     1      -6.623   8.909  63.843  1.00  0.00     0.000 HD 
BRANCH  20  22
HETATM   22  C   UNL     1      -8.177   9.752  62.780  1.00  0.00    -0.149 C  
HETATM   23  C   UNL     1      -8.586   8.337  62.345  1.00  0.00    -0.065 C  
HETATM   24  C   UNL     1      -9.419  10.507  63.255  1.00  0.00    -0.360 C  
ENDBRANCH  20  22
ENDBRANCH  19  20
ENDBRANCH  16  19
ENDBRANCH  15  16
ENDBRANCH  14  15
ENDBRANCH  11  14
BRANCH  12  25
HETATM   25  C   UNL     1     -10.198  10.066  68.581  1.00  0.00    -0.180 C  
HETATM   26  C   UNL     1      -9.604   9.303  69.735  1.00  0.00    -0.203 C  
HETATM   27  O   UNL     1     -10.518   9.476  67.549  1.00  0.00    -0.241 OA 
ENDBRANCH  12  25
ENDBRANCH   6   8
ENDBRANCH   3   4
ENDBRANCH   2   3
TORSDOF 10
ENDMDL
MODEL      237
REMARK 921   NORMALIZED FREE ENERGY PREDICTED BY IDOCK:   -2.51 KCAL/MOL
REMARK 922        TOTAL FREE ENERGY PREDICTED BY IDOCK:   -5.00 KCAL/MOL
REMARK 923 INTER-LIGAND FREE ENERGY PREDICTED BY IDOCK:   -5.63 KCAL/MOL
REMARK 924 INTRA-LIGAND FREE ENERGY PREDICTED BY IDOCK:    0.63 KCAL/MOL
REMARK 927      BINDING AFFINITY PREDICTED BY RF-SCORE:    0.00 PKD
ROOT
HETATM    1  C   UNL     1      -9.357   8.792  71.261  1.00  0.00    -0.319 C  
HETATM    2  C   UNL     1      -7.942   8.251  71.154  1.00  0.00    -0.112 C  
ENDROOT
BRANCH   2   3
HETATM    3  C   UNL     1      -6.974   9.328  70.683  1.00  0.00    -0.101 C  
BRANCH   3   4
HETATM    4  C   UNL     1      -7.422   9.908  69.362  1.00  0.00    -0.108 C  
HETATM    5  O   UNL     1      -7.439   9.206  68.355  1.00  0.00    -0.080 OA 
HETATM    6  N   UNL     1      -7.837  11.230  69.452  1.00  0.00    -0.368 N  
HETATM    7  H   UNL     1      -7.804  11.667  70.373  1.00  0.00     0.000 HD 
BRANCH   6   8
HETATM    8  C   UNL     1      -8.301  12.022  68.380  1.00  0.00    -0.151 A  
HETATM    9  C   UNL     1      -9.176  11.545  67.408  1.00  0.00    -0.166 A  
HETATM   10  C   UNL     1      -9.679  12.391  66.419  1.00  0.00    -0.246 A  
HETATM   11  C   UNL     1      -9.314  13.740  66.363  1.00  0.00    -0.196 A  
HETATM   12  C   UNL     1      -8.371  14.215  67.288  1.00  0.00    -0.212 A  
HETATM   13  C   UNL     1      -7.875  13.350  68.292  1.00  0.00    -0.143 A  
BRANCH  11  14
HETATM   14  O   UNL     1      -9.871  14.625  65.475  1.00  0.00    -0.340 OA 
BRANCH  14  15
HETATM   15  C   UNL     1     -10.603  15.732  66.027  1.00  0.00    -0.326 C  
BRANCH  15  16
HETATM   16  C   UNL     1     -11.846  15.208  66.760  1.00  0.00     0.026 C  
HETATM   17  H   UNL     1     -13.036  13.654  66.611  1.00  0.00     0.000 HD 
HETATM   18  O   UNL     1     -12.267  13.978  66.157  1.00  0.00    -0.426 OA 
BRANCH  16  19
HETATM   19  C   UNL     1     -11.592  14.965  68.263  1.00  0.00    -0.334 C  
BRANCH  19  20
HETATM   20  N   UNL     1     -12.266  13.758  68.750  1.00  0.00    -0.428 NA 
HETATM   21  H   UNL     1     -11.917  12.931  68.266  1.00  0.00     0.000 HD 
BRANCH  20  22
HETATM   22  C   UNL     1     -12.183  13.582  70.206  1.00  0.00    -0.347 C  
HETATM   23  C   UNL     1     -13.245  14.392  70.962  1.00  0.00    -0.395 C  
HETATM   24  C   UNL     1     -12.374  12.097  70.513  1.00  0.00    -0.358 C  
ENDBRANCH  20  22
ENDBRANCH  19  20
ENDBRANCH  16  19
ENDBRANCH  15  16
ENDBRANCH  14  15
ENDBRANCH  11  14
BRANCH  12  25
HETATM   25  C   UNL     1      -7.873  15.623  67.337  1.00  0.00    -0.182 C  
HETATM   26  C   UNL     1      -8.224  16.539  68.479  1.00  0.00    -0.212 C  
HETATM   27  O   UNL     1      -7.200  16.040  66.393  1.00  0.00    -0.107 OA 
ENDBRANCH  12  25
ENDBRANCH   6   8
ENDBRANCH   3   4
ENDBRANCH   2   3
TORSDOF 10
ENDMDL
MODEL      238
REMARK 921   NORMALIZED FREE ENERGY PREDICTED BY IDOCK:   -2.49 KCAL/MOL
REMARK 922        TOTAL FREE ENERGY PREDICTED BY IDOCK:   -4.98 KCAL/MOL
REMARK 923 INTER-LIGAND FREE ENERGY PREDICTED BY IDOCK:   -3.80 KCAL/MOL
REMARK 924 INTRA-LIGAND FREE ENERGY PREDICTED BY IDOCK:   -1.18 KCAL/MOL
REMARK 927      BINDING AFFINITY PREDICTED BY RF-SCORE:    0.00 PKD
ROOT
HETATM    1  C   UNL     1     -10.177  17.542  67.408  1.00  0.00    -0.337 C  
HETATM    2  C   UNL     1     -10.931  16.255  67.127  1.00  0.00    -0.114 C  
ENDROOT
BRANCH   2   3
HETATM    3  C   UNL     1     -10.112  15.314  66.254  1.00  0.00    -0.297 C  
BRANCH   3   4
HETATM    4  C   UNL     1      -9.936  13.974  66.932  1.00  0.00    -0.263 C  
HETATM    5  O   UNL     1     -10.905  13.399  67.419  1.00  0.00    -0.263 OA 
HETATM    6  N   UNL     1      -8.634  13.496  66.879  1.00  0.00    -0.397 N  
HETATM    7  H   UNL     1      -7.944  14.074  66.399  1.00  0.00     0.000 HD 
BRANCH   6   8
HETATM    8  C   UNL     1      -8.181  12.278  67.431  1.00  0.00    -0.178 A  
HETATM    9  C   UNL     1      -7.418  12.211  68.593  1.00  0.00    -0.105 A  
HETATM   10  C   UNL     1      -7.069  10.981  69.152  1.00  0.00    -0.116 A  
HETATM   11  C   UNL     1      -7.463   9.777  68.559  1.00  0.00    -0.079 A  
HETATM   12  C   UNL     1      -8.164   9.830  67.344  1.00  0.00    -0.114 A  
HETATM   13  C   UNL     1      -8.519  11.083  66.792  1.00  0.00    -0.148 A  
BRANCH  11  14
HETATM   14  O   UNL     1      -7.234   8.554  69.136  1.00  0.00    -0.065 OA 
BRANCH  14  15
HETATM   15  C   UNL     1      -5.894   8.039  69.067  1.00  0.00    -0.035 C  
BRANCH  15  16
HETATM   16  C   UNL     1      -5.906   6.539  69.396  1.00  0.00    -0.021 C  
HETATM   17  H   UNL     1      -5.327   5.406  70.891  1.00  0.00     0.000 HD 
HETATM   18  O   UNL     1      -5.320   6.334  70.688  1.00  0.00    -0.013 OA 
BRANCH  16  19
HETATM   19  C   UNL     1      -7.328   5.941  69.393  1.00  0.00    -0.075 C  
BRANCH  19  20
HETATM   20  N   UNL     1      -7.996   6.096  70.689  1.00  0.00    -0.109 NA 
HETATM   21  H   UNL     1      -7.956   7.067  71.000  1.00  0.00     0.000 HD 
BRANCH  20  22
HETATM   22  C   UNL     1      -9.381   5.604  70.701  1.00  0.00    -0.159 C  
HETATM   23  C   UNL     1     -10.178   6.049  69.467  1.00  0.00    -0.267 C  
HETATM   24  C   UNL     1      -9.337   4.077  70.744  1.00  0.00    -0.217 C  
ENDBRANCH  20  22
ENDBRANCH  19  20
ENDBRANCH  16  19
ENDBRANCH  15  16
ENDBRANCH  14  15
ENDBRANCH  11  14
BRANCH  12  25
HETATM   25  C   UNL     1      -8.631   8.629  66.588  1.00  0.00    -0.117 C  
HETATM   26  C   UNL     1      -7.728   7.912  65.620  1.00  0.00    -0.096 C  
HETATM   27  O   UNL     1      -9.796   8.258  66.738  1.00  0.00    -0.216 OA 
ENDBRANCH  12  25
ENDBRANCH   6   8
ENDBRANCH   3   4
ENDBRANCH   2   3
TORSDOF 10
ENDMDL
MODEL      239
REMARK 921   NORMALIZED FREE ENERGY PREDICTED BY IDOCK:   -2.36 KCAL/MOL
REMARK 922        TOTAL FREE ENERGY PREDICTED BY IDOCK:   -4.77 KCAL/MOL
REMARK 923 INTER-LIGAND FREE ENERGY PREDICTED BY IDOCK:   -4.27 KCAL/MOL
REMARK 924 INTRA-LIGAND FREE ENERGY PREDICTED BY IDOCK:   -0.50 KCAL/MOL
REMARK 927      BINDING AFFINITY PREDICTED BY RF-SCORE:    0.00 PKD
ROOT
HETATM    1  C   UNL     1     -10.228  12.922  67.253  1.00  0.00    -0.234 C  
HETATM    2  C   UNL     1     -11.628  12.350  67.393  1.00  0.00    -0.433 C  
ENDROOT
BRANCH   2   3
HETATM    3  C   UNL     1     -11.842  11.746  68.775  1.00  0.00    -0.380 C  
BRANCH   3   4
HETATM    4  C   UNL     1     -11.079  10.449  68.914  1.00  0.00    -0.247 C  
HETATM    5  O   UNL     1     -10.534  10.167  69.978  1.00  0.00    -0.264 OA 
HETATM    6  N   UNL     1     -11.127   9.656  67.776  1.00  0.00    -0.494 N  
HETATM    7  H   UNL     1     -11.659  10.012  66.982  1.00  0.00     0.000 HD 
BRANCH   6   8
HETATM    8  C   UNL     1     -10.503   8.399  67.621  1.00  0.00    -0.239 A  
HETATM    9  C   UNL     1     -10.638   7.368  68.545  1.00  0.00    -0.188 A  
HETATM   10  C   UNL     1     -10.078   6.112  68.305  1.00  0.00    -0.182 A  
HETATM   11  C   UNL     1      -9.354   5.852  67.137  1.00  0.00    -0.116 A  
HETATM   12  C   UNL     1      -9.143   6.906  66.235  1.00  0.00    -0.170 A  
HETATM   13  C   UNL     1      -9.723   8.171  66.484  1.00  0.00    -0.309 A  
BRANCH  11  14
HETATM   14  O   UNL     1      -8.884   4.604  66.816  1.00  0.00    -0.111 OA 
BRANCH  14  15
HETATM   15  C   UNL     1      -9.654   3.478  67.270  1.00  0.00    -0.122 C  
BRANCH  15  16
HETATM   16  C   UNL     1      -8.964   2.843  68.486  1.00  0.00    -0.141 C  
HETATM   17  H   UNL     1      -9.073   1.139  69.454  1.00  0.00     0.000 HD 
HETATM   18  O   UNL     1      -9.500   1.532  68.702  1.00  0.00    -0.157 OA 
BRANCH  16  19
HETATM   19  C   UNL     1      -7.435   2.734  68.312  1.00  0.00    -0.052 C  
BRANCH  19  20
HETATM   20  N   UNL     1      -6.708   3.213  69.492  1.00  0.00    -0.033 NA 
HETATM   21  H   UNL     1      -6.016   3.913  69.229  1.00  0.00     0.000 HD 
BRANCH  20  22
HETATM   22  C   UNL     1      -7.583   3.722  70.557  1.00  0.00    -0.041 C  
HETATM   23  C   UNL     1      -7.583   2.825  71.803  1.00  0.00    -0.048 C  
HETATM   24  C   UNL     1      -7.090   5.117  70.944  1.00  0.00    -0.059 C  
ENDBRANCH  20  22
ENDBRANCH  19  20
ENDBRANCH  16  19
ENDBRANCH  15  16
ENDBRANCH  14  15
ENDBRANCH  11  14
BRANCH  12  25
HETATM   25  C   UNL     1      -8.374   6.782  64.959  1.00  0.00    -0.048 C  
HETATM   26  C   UNL     1      -7.515   7.908  64.449  1.00  0.00    -0.098 C  
HETATM   27  O   UNL     1      -8.494   5.747  64.301  1.00  0.00    -0.103 OA 
ENDBRANCH  12  25
ENDBRANCH   6   8
ENDBRANCH   3   4
ENDBRANCH   2   3
TORSDOF 10
ENDMDL
MODEL      240
REMARK 921   NORMALIZED FREE ENERGY PREDICTED BY IDOCK:   -2.33 KCAL/MOL
REMARK 922        TOTAL FREE ENERGY PREDICTED BY IDOCK:   -4.72 KCAL/MOL
REMARK 923 INTER-LIGAND FREE ENERGY PREDICTED BY IDOCK:   -3.54 KCAL/MOL
REMARK 924 INTRA-LIGAND FREE ENERGY PREDICTED BY IDOCK:   -1.18 KCAL/MOL
REMARK 927      BINDING AFFINITY PREDICTED BY RF-SCORE:    0.00 PKD
ROOT
HETATM    1  C   UNL     1     -10.118  17.461  67.439  1.00  0.00    -0.321 C  
HETATM    2  C   UNL     1     -10.728  16.072  67.358  1.00  0.00    -0.306 C  
ENDROOT
BRANCH   2   3
HETATM    3  C   UNL     1      -9.974  15.195  66.367  1.00  0.00    -0.288 C  
BRANCH   3   4
HETATM    4  C   UNL     1      -9.375  13.996  67.065  1.00  0.00    -0.250 C  
HETATM    5  O   UNL     1      -8.648  14.152  68.042  1.00  0.00    -0.154 OA 
HETATM    6  N   UNL     1      -9.778  12.783  66.523  1.00  0.00    -0.251 N  
HETATM    7  H   UNL     1     -10.424  12.818  65.733  1.00  0.00     0.000 HD 
BRANCH   6   8
HETATM    8  C   UNL     1      -9.374  11.506  66.969  1.00  0.00    -0.178 A  
HETATM    9  C   UNL     1      -8.470  10.712  66.271  1.00  0.00    -0.155 A  
HETATM   10  C   UNL     1      -8.030   9.495  66.795  1.00  0.00    -0.109 A  
HETATM   11  C   UNL     1      -8.490   9.030  68.031  1.00  0.00    -0.125 A  
HETATM   12  C   UNL     1      -9.463   9.783  68.708  1.00  0.00    -0.154 A  
HETATM   13  C   UNL     1      -9.894  11.018  68.170  1.00  0.00    -0.185 A  
BRANCH  11  14
HETATM   14  O   UNL     1      -8.000   7.897  68.628  1.00  0.00    -0.120 OA 
BRANCH  14  15
HETATM   15  C   UNL     1      -8.364   6.637  68.039  1.00  0.00    -0.117 C  
BRANCH  15  16
HETATM   16  C   UNL     1      -8.139   5.512  69.059  1.00  0.00    -0.095 C  
HETATM   17  H   UNL     1      -6.870   4.032  69.289  1.00  0.00     0.000 HD 
HETATM   18  O   UNL     1      -7.009   4.728  68.657  1.00  0.00    -0.050 OA 
BRANCH  16  19
HETATM   19  C   UNL     1      -7.895   6.044  70.487  1.00  0.00    -0.102 C  
BRANCH  19  20
HETATM   20  N   UNL     1      -6.477   6.316  70.741  1.00  0.00    -0.040 NA 
HETATM   21  H   UNL     1      -6.099   6.945  70.032  1.00  0.00     0.000 HD 
BRANCH  20  22
HETATM   22  C   UNL     1      -6.208   6.833  72.090  1.00  0.00    -0.042 C  
HETATM   23  C   UNL     1      -7.185   7.942  72.504  1.00  0.00    -0.103 C  
HETATM   24  C   UNL     1      -6.328   5.668  73.073  1.00  0.00    -0.061 C  
ENDBRANCH  20  22
ENDBRANCH  19  20
ENDBRANCH  16  19
ENDBRANCH  15  16
ENDBRANCH  14  15
ENDBRANCH  11  14
BRANCH  12  25
HETATM   25  C   UNL     1     -10.060   9.401  70.024  1.00  0.00    -0.226 C  
HETATM   26  C   UNL     1     -11.263   8.501  70.106  1.00  0.00    -0.139 C  
HETATM   27  O   UNL     1      -9.572   9.878  71.049  1.00  0.00     0.030 OA 
ENDBRANCH  12  25
ENDBRANCH   6   8
ENDBRANCH   3   4
ENDBRANCH   2   3
TORSDOF 10
ENDMDL
MODEL      241
REMARK 921   NORMALIZED FREE ENERGY PREDICTED BY IDOCK:   -2.22 KCAL/MOL
REMARK 922        TOTAL FREE ENERGY PREDICTED BY IDOCK:   -4.55 KCAL/MOL
REMARK 923 INTER-LIGAND FREE ENERGY PREDICTED BY IDOCK:   -4.15 KCAL/MOL
REMARK 924 INTRA-LIGAND FREE ENERGY PREDICTED BY IDOCK:   -0.41 KCAL/MOL
REMARK 927      BINDING AFFINITY PREDICTED BY RF-SCORE:    0.00 PKD
ROOT
HETATM    1  C   UNL     1     -13.289  11.348  71.700  1.00  0.00    -0.288 C  
HETATM    2  C   UNL     1     -12.125  11.245  70.730  1.00  0.00    -0.450 C  
ENDROOT
BRANCH   2   3
HETATM    3  C   UNL     1     -12.449  11.922  69.404  1.00  0.00     0.125 C  
BRANCH   3   4
HETATM    4  C   UNL     1     -11.750  11.220  68.263  1.00  0.00    -0.274 C  
HETATM    5  O   UNL     1     -11.831  11.669  67.123  1.00  0.00    -0.608 OA 
HETATM    6  N   UNL     1     -11.012  10.115  68.663  1.00  0.00    -0.293 N  
HETATM    7  H   UNL     1     -11.010   9.892  69.659  1.00  0.00     0.000 HD 
BRANCH   6   8
HETATM    8  C   UNL     1     -10.265   9.271  67.813  1.00  0.00    -0.218 A  
HETATM    9  C   UNL     1     -10.541   7.916  67.657  1.00  0.00    -0.276 A  
HETATM   10  C   UNL     1      -9.833   7.141  66.737  1.00  0.00    -0.272 A  
HETATM   11  C   UNL     1      -8.818   7.696  65.951  1.00  0.00    -0.130 A  
HETATM   12  C   UNL     1      -8.475   9.042  66.155  1.00  0.00    -0.135 A  
HETATM   13  C   UNL     1      -9.206   9.819  67.084  1.00  0.00    -0.159 A  
BRANCH  11  14
HETATM   14  O   UNL     1      -8.176   6.994  64.962  1.00  0.00    -0.131 OA 
BRANCH  14  15
HETATM   15  C   UNL     1      -7.035   6.211  65.350  1.00  0.00    -0.056 C  
BRANCH  15  16
HETATM   16  C   UNL     1      -7.469   4.758  65.586  1.00  0.00    -0.081 C  
HETATM   17  H   UNL     1      -7.565   3.533  67.118  1.00  0.00     0.000 HD 
HETATM   18  O   UNL     1      -7.296   4.432  66.971  1.00  0.00    -0.075 OA 
BRANCH  16  19
HETATM   19  C   UNL     1      -8.941   4.506  65.196  1.00  0.00    -0.147 C  
BRANCH  19  20
HETATM   20  N   UNL     1      -9.111   4.354  63.747  1.00  0.00    -0.143 NA 
HETATM   21  H   UNL     1      -8.380   4.857  63.245  1.00  0.00     0.000 HD 
BRANCH  20  22
HETATM   22  C   UNL     1      -9.176   2.954  63.305  1.00  0.00    -0.094 C  
HETATM   23  C   UNL     1     -10.362   2.685  62.368  1.00  0.00    -0.108 C  
HETATM   24  C   UNL     1      -7.875   2.632  62.569  1.00  0.00    -0.066 C  
ENDBRANCH  20  22
ENDBRANCH  19  20
ENDBRANCH  16  19
ENDBRANCH  15  16
ENDBRANCH  14  15
ENDBRANCH  11  14
BRANCH  12  25
HETATM   25  C   UNL     1      -7.401   9.761  65.406  1.00  0.00    -0.118 C  
HETATM   26  C   UNL     1      -5.953   9.638  65.798  1.00  0.00    -0.060 C  
HETATM   27  O   UNL     1      -7.730  10.502  64.478  1.00  0.00    -0.092 OA 
ENDBRANCH  12  25
ENDBRANCH   6   8
ENDBRANCH   3   4
ENDBRANCH   2   3
TORSDOF 10
ENDMDL
MODEL      242
REMARK 921   NORMALIZED FREE ENERGY PREDICTED BY IDOCK:   -2.21 KCAL/MOL
REMARK 922        TOTAL FREE ENERGY PREDICTED BY IDOCK:   -4.53 KCAL/MOL
REMARK 923 INTER-LIGAND FREE ENERGY PREDICTED BY IDOCK:   -3.61 KCAL/MOL
REMARK 924 INTRA-LIGAND FREE ENERGY PREDICTED BY IDOCK:   -0.92 KCAL/MOL
REMARK 927      BINDING AFFINITY PREDICTED BY RF-SCORE:    0.00 PKD
ROOT
HETATM    1  C   UNL     1      -7.788  15.350  69.220  1.00  0.00    -0.225 C  
HETATM    2  C   UNL     1      -8.243  15.141  67.786  1.00  0.00    -0.159 C  
ENDROOT
BRANCH   2   3
HETATM    3  C   UNL     1      -9.168  13.936  67.671  1.00  0.00    -0.199 C  
BRANCH   3   4
HETATM    4  C   UNL     1      -8.386  12.649  67.795  1.00  0.00    -0.172 C  
HETATM    5  O   UNL     1      -7.256  12.567  67.320  1.00  0.00    -0.147 OA 
HETATM    6  N   UNL     1      -9.050  11.667  68.517  1.00  0.00    -0.274 N  
HETATM    7  H   UNL     1      -9.971  11.903  68.886  1.00  0.00     0.000 HD 
BRANCH   6   8
HETATM    8  C   UNL     1      -8.562  10.370  68.785  1.00  0.00    -0.141 A  
HETATM    9  C   UNL     1      -8.430   9.862  70.074  1.00  0.00    -0.191 A  
HETATM   10  C   UNL     1      -8.030   8.542  70.287  1.00  0.00    -0.103 A  
HETATM   11  C   UNL     1      -7.737   7.691  69.217  1.00  0.00    -0.104 A  
HETATM   12  C   UNL     1      -7.788   8.214  67.915  1.00  0.00    -0.122 A  
HETATM   13  C   UNL     1      -8.204   9.551  67.712  1.00  0.00    -0.114 A  
BRANCH  11  14
HETATM   14  O   UNL     1      -7.447   6.361  69.383  1.00  0.00    -0.089 OA 
BRANCH  14  15
HETATM   15  C   UNL     1      -7.474   5.847  70.725  1.00  0.00    -0.091 C  
BRANCH  15  16
HETATM   16  C   UNL     1      -8.233   4.513  70.746  1.00  0.00    -0.079 C  
HETATM   17  H   UNL     1      -9.978   3.879  71.384  1.00  0.00     0.000 HD 
HETATM   18  O   UNL     1      -9.508   4.705  71.371  1.00  0.00    -0.141 OA 
BRANCH  16  19
HETATM   19  C   UNL     1      -8.452   3.931  69.334  1.00  0.00    -0.064 C  
BRANCH  19  20
HETATM   20  N   UNL     1      -9.811   4.173  68.841  1.00  0.00    -0.096 NA 
HETATM   21  H   UNL     1     -10.432   4.432  69.608  1.00  0.00     0.000 HD 
BRANCH  20  22
HETATM   22  C   UNL     1      -9.878   5.168  67.761  1.00  0.00    -0.156 C  
HETATM   23  C   UNL     1     -10.113   4.531  66.384  1.00  0.00    -0.271 C  
HETATM   24  C   UNL     1     -11.029   6.124  68.073  1.00  0.00    -0.399 C  
ENDBRANCH  20  22
ENDBRANCH  19  20
ENDBRANCH  16  19
ENDBRANCH  15  16
ENDBRANCH  14  15
ENDBRANCH  11  14
BRANCH  12  25
HETATM   25  C   UNL     1      -7.482   7.432  66.680  1.00  0.00    -0.088 C  
HETATM   26  C   UNL     1      -8.265   7.634  65.410  1.00  0.00    -0.137 C  
HETATM   27  O   UNL     1      -6.598   6.576  66.732  1.00  0.00    -0.045 OA 
ENDBRANCH  12  25
ENDBRANCH   6   8
ENDBRANCH   3   4
ENDBRANCH   2   3
TORSDOF 10
ENDMDL
MODEL      243
REMARK 921   NORMALIZED FREE ENERGY PREDICTED BY IDOCK:   -2.18 KCAL/MOL
REMARK 922        TOTAL FREE ENERGY PREDICTED BY IDOCK:   -4.49 KCAL/MOL
REMARK 923 INTER-LIGAND FREE ENERGY PREDICTED BY IDOCK:   -3.46 KCAL/MOL
REMARK 924 INTRA-LIGAND FREE ENERGY PREDICTED BY IDOCK:   -1.02 KCAL/MOL
REMARK 927      BINDING AFFINITY PREDICTED BY RF-SCORE:    0.00 PKD
ROOT
HETATM    1  C   UNL     1      -9.835  17.214  67.719  1.00  0.00    -0.274 C  
HETATM    2  C   UNL     1     -10.491  15.902  68.110  1.00  0.00    -0.270 C  
ENDROOT
BRANCH   2   3
HETATM    3  C   UNL     1     -10.080  14.776  67.170  1.00  0.00    -0.240 C  
BRANCH   3   4
HETATM    4  C   UNL     1     -10.038  13.456  67.905  1.00  0.00    -0.238 C  
HETATM    5  O   UNL     1     -10.884  13.199  68.757  1.00  0.00    -0.251 OA 
HETATM    6  N   UNL     1      -9.021  12.616  67.472  1.00  0.00    -0.177 N  
HETATM    7  H   UNL     1      -8.422  12.959  66.721  1.00  0.00     0.000 HD 
BRANCH   6   8
HETATM    8  C   UNL     1      -8.743  11.329  67.980  1.00  0.00    -0.144 A  
HETATM    9  C   UNL     1      -7.986  11.116  69.128  1.00  0.00    -0.046 A  
HETATM   10  C   UNL     1      -7.814   9.831  69.645  1.00  0.00    -0.142 A  
HETATM   11  C   UNL     1      -8.384   8.716  69.022  1.00  0.00    -0.119 A  
HETATM   12  C   UNL     1      -9.082   8.908  67.819  1.00  0.00    -0.143 A  
HETATM   13  C   UNL     1      -9.258  10.216  67.311  1.00  0.00    -0.154 A  
BRANCH  11  14
HETATM   14  O   UNL     1      -8.328   7.455  69.559  1.00  0.00    -0.129 OA 
BRANCH  14  15
HETATM   15  C   UNL     1      -7.091   6.738  69.418  1.00  0.00    -0.080 C  
BRANCH  15  16
HETATM   16  C   UNL     1      -7.374   5.229  69.393  1.00  0.00    -0.061 C  
HETATM   17  H   UNL     1      -8.958   4.077  69.523  1.00  0.00     0.000 HD 
HETATM   18  O   UNL     1      -8.783   5.011  69.539  1.00  0.00    -0.090 OA 
BRANCH  16  19
HETATM   19  C   UNL     1      -6.898   4.556  68.088  1.00  0.00    -0.055 C  
BRANCH  19  20
HETATM   20  N   UNL     1      -7.929   3.693  67.503  1.00  0.00    -0.081 NA 
HETATM   21  H   UNL     1      -8.641   4.251  67.032  1.00  0.00     0.000 HD 
BRANCH  20  22
HETATM   22  C   UNL     1      -7.394   2.664  66.600  1.00  0.00    -0.069 C  
HETATM   23  C   UNL     1      -6.958   3.237  65.244  1.00  0.00    -0.053 C  
HETATM   24  C   UNL     1      -6.187   2.021  67.283  1.00  0.00    -0.024 C  
ENDBRANCH  20  22
ENDBRANCH  19  20
ENDBRANCH  16  19
ENDBRANCH  15  16
ENDBRANCH  14  15
ENDBRANCH  11  14
BRANCH  12  25
HETATM   25  C   UNL     1      -9.725   7.812  67.034  1.00  0.00    -0.197 C  
HETATM   26  C   UNL     1      -8.927   6.947  66.095  1.00  0.00    -0.157 C  
HETATM   27  O   UNL     1     -10.943   7.655  67.135  1.00  0.00    -0.266 OA 
ENDBRANCH  12  25
ENDBRANCH   6   8
ENDBRANCH   3   4
ENDBRANCH   2   3
TORSDOF 10
ENDMDL
MODEL      244
REMARK 921   NORMALIZED FREE ENERGY PREDICTED BY IDOCK:   -2.16 KCAL/MOL
REMARK 922        TOTAL FREE ENERGY PREDICTED BY IDOCK:   -4.46 KCAL/MOL
REMARK 923 INTER-LIGAND FREE ENERGY PREDICTED BY IDOCK:   -3.95 KCAL/MOL
REMARK 924 INTRA-LIGAND FREE ENERGY PREDICTED BY IDOCK:   -0.51 KCAL/MOL
REMARK 927      BINDING AFFINITY PREDICTED BY RF-SCORE:    0.00 PKD
ROOT
HETATM    1  C   UNL     1     -13.509   9.779  70.932  1.00  0.00    -0.167 C  
HETATM    2  C   UNL     1     -13.377   9.219  72.337  1.00  0.00    -0.521 C  
ENDROOT
BRANCH   2   3
HETATM    3  C   UNL     1     -12.209   8.247  72.438  1.00  0.00    -0.412 C  
BRANCH   3   4
HETATM    4  C   UNL     1     -11.148   8.581  71.415  1.00  0.00    -0.265 C  
HETATM    5  O   UNL     1     -10.445   9.578  71.560  1.00  0.00    -0.302 OA 
HETATM    6  N   UNL     1     -11.046   7.642  70.398  1.00  0.00    -0.261 N  
HETATM    7  H   UNL     1     -11.676   6.840  70.440  1.00  0.00     0.000 HD 
BRANCH   6   8
HETATM    8  C   UNL     1     -10.148   7.699  69.310  1.00  0.00    -0.190 A  
HETATM    9  C   UNL     1     -10.514   8.162  68.050  1.00  0.00    -0.242 A  
HETATM   10  C   UNL     1      -9.570   8.285  67.030  1.00  0.00    -0.249 A  
HETATM   11  C   UNL     1      -8.230   7.939  67.235  1.00  0.00    -0.122 A  
HETATM   12  C   UNL     1      -7.864   7.395  68.476  1.00  0.00    -0.122 A  
HETATM   13  C   UNL     1      -8.829   7.283  69.505  1.00  0.00    -0.137 A  
BRANCH  11  14
HETATM   14  O   UNL     1      -7.255   8.149  66.294  1.00  0.00    -0.075 OA 
BRANCH  14  15
HETATM   15  C   UNL     1      -6.910   7.038  65.449  1.00  0.00    -0.052 C  
BRANCH  15  16
HETATM   16  C   UNL     1      -7.592   7.204  64.084  1.00  0.00    -0.109 C  
HETATM   17  H   UNL     1      -7.503   8.481  62.595  1.00  0.00     0.000 HD 
HETATM   18  O   UNL     1      -7.082   8.379  63.440  1.00  0.00    -0.087 OA 
BRANCH  16  19
HETATM   19  C   UNL     1      -7.369   5.991  63.156  1.00  0.00    -0.060 C  
BRANCH  19  20
HETATM   20  N   UNL     1      -8.630   5.458  62.629  1.00  0.00    -0.221 NA 
HETATM   21  H   UNL     1      -8.598   5.398  61.612  1.00  0.00     0.000 HD 
BRANCH  20  22
HETATM   22  C   UNL     1      -9.014   4.166  63.214  1.00  0.00    -0.119 C  
HETATM   23  C   UNL     1      -7.803   3.283  63.547  1.00  0.00    -0.076 C  
HETATM   24  C   UNL     1      -9.797   4.445  64.498  1.00  0.00    -0.071 C  
ENDBRANCH  20  22
ENDBRANCH  19  20
ENDBRANCH  16  19
ENDBRANCH  15  16
ENDBRANCH  14  15
ENDBRANCH  11  14
BRANCH  12  25
HETATM   25  C   UNL     1      -6.479   6.962  68.831  1.00  0.00    -0.036 C  
HETATM   26  C   UNL     1      -6.129   5.506  68.988  1.00  0.00    -0.025 C  
HETATM   27  O   UNL     1      -5.630   7.829  69.041  1.00  0.00    -0.025 OA 
ENDBRANCH  12  25
ENDBRANCH   6   8
ENDBRANCH   3   4
ENDBRANCH   2   3
TORSDOF 10
ENDMDL
MODEL      245
REMARK 921   NORMALIZED FREE ENERGY PREDICTED BY IDOCK:   -2.11 KCAL/MOL
REMARK 922        TOTAL FREE ENERGY PREDICTED BY IDOCK:   -4.37 KCAL/MOL
REMARK 923 INTER-LIGAND FREE ENERGY PREDICTED BY IDOCK:   -3.60 KCAL/MOL
REMARK 924 INTRA-LIGAND FREE ENERGY PREDICTED BY IDOCK:   -0.77 KCAL/MOL
REMARK 927      BINDING AFFINITY PREDICTED BY RF-SCORE:    0.00 PKD
ROOT
HETATM    1  C   UNL     1     -11.341  15.055  65.633  1.00  0.00    -0.297 C  
HETATM    2  C   UNL     1     -11.480  13.768  66.428  1.00  0.00    -0.351 C  
ENDROOT
BRANCH   2   3
HETATM    3  C   UNL     1     -11.977  12.627  65.551  1.00  0.00    -0.509 C  
BRANCH   3   4
HETATM    4  C   UNL     1     -11.096  11.410  65.708  1.00  0.00    -0.153 C  
HETATM    5  O   UNL     1     -10.448  10.990  64.753  1.00  0.00    -0.317 OA 
HETATM    6  N   UNL     1     -11.077  10.906  67.002  1.00  0.00    -0.251 N  
HETATM    7  H   UNL     1     -11.639  11.393  67.700  1.00  0.00     0.000 HD 
BRANCH   6   8
HETATM    8  C   UNL     1     -10.348   9.778  67.436  1.00  0.00    -0.240 A  
HETATM    9  C   UNL     1     -10.770   8.471  67.212  1.00  0.00    -0.219 A  
HETATM   10  C   UNL     1      -9.972   7.386  67.579  1.00  0.00    -0.225 A  
HETATM   11  C   UNL     1      -8.730   7.575  68.194  1.00  0.00    -0.122 A  
HETATM   12  C   UNL     1      -8.328   8.885  68.499  1.00  0.00    -0.125 A  
HETATM   13  C   UNL     1      -9.142   9.976  68.113  1.00  0.00    -0.121 A  
BRANCH  11  14
HETATM   14  O   UNL     1      -7.871   6.541  68.469  1.00  0.00    -0.103 OA 
BRANCH  14  15
HETATM   15  C   UNL     1      -8.287   5.223  68.073  1.00  0.00    -0.098 C  
BRANCH  15  16
HETATM   16  C   UNL     1      -7.176   4.217  68.404  1.00  0.00    -0.056 C  
HETATM   17  H   UNL     1      -5.418   3.744  67.668  1.00  0.00     0.000 HD 
HETATM   18  O   UNL     1      -6.106   4.367  67.462  1.00  0.00    -0.029 OA 
BRANCH  16  19
HETATM   19  C   UNL     1      -6.614   4.399  69.830  1.00  0.00    -0.033 C  
BRANCH  19  20
HETATM   20  N   UNL     1      -6.238   5.789  70.103  1.00  0.00    -0.026 NA 
HETATM   21  H   UNL     1      -6.858   6.433  69.612  1.00  0.00     0.000 HD 
BRANCH  20  22
HETATM   22  C   UNL     1      -6.181   6.115  71.535  1.00  0.00    -0.044 C  
HETATM   23  C   UNL     1      -7.563   6.088  72.203  1.00  0.00    -0.097 C  
HETATM   24  C   UNL     1      -5.277   5.086  72.215  1.00  0.00    -0.005 C  
ENDBRANCH  20  22
ENDBRANCH  19  20
ENDBRANCH  16  19
ENDBRANCH  15  16
ENDBRANCH  14  15
ENDBRANCH  11  14
BRANCH  12  25
HETATM   25  C   UNL     1      -7.041   9.238  69.171  1.00  0.00    -0.062 C  
HETATM   26  C   UNL     1      -5.758   9.358  68.392  1.00  0.00    -0.041 C  
HETATM   27  O   UNL     1      -7.039   9.386  70.393  1.00  0.00    -0.075 OA 
ENDBRANCH  12  25
ENDBRANCH   6   8
ENDBRANCH   3   4
ENDBRANCH   2   3
TORSDOF 10
ENDMDL
MODEL      246
REMARK 921   NORMALIZED FREE ENERGY PREDICTED BY IDOCK:   -2.06 KCAL/MOL
REMARK 922        TOTAL FREE ENERGY PREDICTED BY IDOCK:   -4.30 KCAL/MOL
REMARK 923 INTER-LIGAND FREE ENERGY PREDICTED BY IDOCK:   -3.47 KCAL/MOL
REMARK 924 INTRA-LIGAND FREE ENERGY PREDICTED BY IDOCK:   -0.83 KCAL/MOL
REMARK 927      BINDING AFFINITY PREDICTED BY RF-SCORE:    0.00 PKD
ROOT
HETATM    1  C   UNL     1     -12.476  14.630  66.918  1.00  0.00     0.217 C  
HETATM    2  C   UNL     1     -11.655  13.473  67.459  1.00  0.00    -0.385 C  
ENDROOT
BRANCH   2   3
HETATM    3  C   UNL     1     -12.025  12.165  66.773  1.00  0.00    -0.170 C  
BRANCH   3   4
HETATM    4  C   UNL     1     -10.947  11.128  66.985  1.00  0.00    -0.289 C  
HETATM    5  O   UNL     1     -10.055  10.988  66.152  1.00  0.00    -0.221 OA 
HETATM    6  N   UNL     1     -11.063  10.448  68.190  1.00  0.00    -0.326 N  
HETATM    7  H   UNL     1     -11.840  10.709  68.799  1.00  0.00     0.000 HD 
BRANCH   6   8
HETATM    8  C   UNL     1     -10.202   9.427  68.647  1.00  0.00    -0.201 A  
HETATM    9  C   UNL     1     -10.414   8.080  68.375  1.00  0.00    -0.205 A  
HETATM   10  C   UNL     1      -9.487   7.113  68.770  1.00  0.00    -0.141 A  
HETATM   11  C   UNL     1      -8.323   7.465  69.461  1.00  0.00    -0.132 A  
HETATM   12  C   UNL     1      -8.137   8.811  69.812  1.00  0.00    -0.111 A  
HETATM   13  C   UNL     1      -9.079   9.782  69.398  1.00  0.00    -0.209 A  
BRANCH  11  14
HETATM   14  O   UNL     1      -7.339   6.560  69.768  1.00  0.00    -0.075 OA 
BRANCH  14  15
HETATM   15  C   UNL     1      -7.753   5.209  70.033  1.00  0.00    -0.067 C  
BRANCH  15  16
HETATM   16  C   UNL     1      -6.865   4.609  71.132  1.00  0.00    -0.032 C  
HETATM   17  H   UNL     1      -5.542   5.283  72.418  1.00  0.00     0.000 HD 
HETATM   18  O   UNL     1      -6.091   5.654  71.737  1.00  0.00    -0.032 OA 
BRANCH  16  19
HETATM   19  C   UNL     1      -7.679   3.893  72.230  1.00  0.00    -0.071 C  
BRANCH  19  20
HETATM   20  N   UNL     1      -9.124   4.053  72.040  1.00  0.00    -0.117 NA 
HETATM   21  H   UNL     1      -9.317   4.717  71.291  1.00  0.00     0.000 HD 
BRANCH  20  22
HETATM   22  C   UNL     1      -9.833   2.787  71.808  1.00  0.00    -0.150 C  
HETATM   23  C   UNL     1      -8.977   1.761  71.052  1.00  0.00    -0.131 C  
HETATM   24  C   UNL     1     -10.222   2.209  73.169  1.00  0.00    -0.199 C  
ENDBRANCH  20  22
ENDBRANCH  19  20
ENDBRANCH  16  19
ENDBRANCH  15  16
ENDBRANCH  14  15
ENDBRANCH  11  14
BRANCH  12  25
HETATM   25  C   UNL     1      -6.955   9.329  70.566  1.00  0.00    -0.093 C  
HETATM   26  C   UNL     1      -5.628   9.548  69.889  1.00  0.00    -0.032 C  
HETATM   27  O   UNL     1      -7.074   9.534  71.774  1.00  0.00    -0.297 OA 
ENDBRANCH  12  25
ENDBRANCH   6   8
ENDBRANCH   3   4
ENDBRANCH   2   3
TORSDOF 10
ENDMDL
MODEL      247
REMARK 921   NORMALIZED FREE ENERGY PREDICTED BY IDOCK:   -2.02 KCAL/MOL
REMARK 922        TOTAL FREE ENERGY PREDICTED BY IDOCK:   -4.23 KCAL/MOL
REMARK 923 INTER-LIGAND FREE ENERGY PREDICTED BY IDOCK:   -3.74 KCAL/MOL
REMARK 924 INTRA-LIGAND FREE ENERGY PREDICTED BY IDOCK:   -0.49 KCAL/MOL
REMARK 927      BINDING AFFINITY PREDICTED BY RF-SCORE:    0.00 PKD
ROOT
HETATM    1  C   UNL     1     -11.168  15.768  67.922  1.00  0.00    -0.313 C  
HETATM    2  C   UNL     1     -11.549  14.316  67.691  1.00  0.00    -0.396 C  
ENDROOT
BRANCH   2   3
HETATM    3  C   UNL     1     -11.582  13.538  69.001  1.00  0.00    -0.356 C  
BRANCH   3   4
HETATM    4  C   UNL     1     -10.969  12.168  68.824  1.00  0.00    -0.232 C  
HETATM    5  O   UNL     1     -11.619  11.163  69.099  1.00  0.00    -0.266 OA 
HETATM    6  N   UNL     1      -9.688  12.202  68.291  1.00  0.00    -0.214 N  
HETATM    7  H   UNL     1      -9.298  13.119  68.073  1.00  0.00     0.000 HD 
BRANCH   6   8
HETATM    8  C   UNL     1      -8.877  11.078  68.023  1.00  0.00    -0.138 A  
HETATM    9  C   UNL     1      -8.389  10.242  69.023  1.00  0.00    -0.148 A  
HETATM   10  C   UNL     1      -7.667   9.090  68.705  1.00  0.00    -0.096 A  
HETATM   11  C   UNL     1      -7.400   8.745  67.376  1.00  0.00    -0.081 A  
HETATM   12  C   UNL     1      -7.818   9.621  66.362  1.00  0.00    -0.101 A  
HETATM   13  C   UNL     1      -8.557  10.780  66.696  1.00  0.00    -0.143 A  
BRANCH  11  14
HETATM   14  O   UNL     1      -6.791   7.568  67.021  1.00  0.00    -0.066 OA 
BRANCH  14  15
HETATM   15  C   UNL     1      -7.250   6.372  67.673  1.00  0.00    -0.086 C  
BRANCH  15  16
HETATM   16  C   UNL     1      -7.502   5.282  66.621  1.00  0.00    -0.087 C  
HETATM   17  H   UNL     1      -6.581   3.664  66.000  1.00  0.00     0.000 HD 
HETATM   18  O   UNL     1      -6.424   4.338  66.650  1.00  0.00    -0.036 OA 
BRANCH  16  19
HETATM   19  C   UNL     1      -8.830   4.530  66.851  1.00  0.00    -0.112 C  
BRANCH  19  20
HETATM   20  N   UNL     1      -8.639   3.291  67.613  1.00  0.00    -0.097 NA 
HETATM   21  H   UNL     1      -7.967   2.682  67.147  1.00  0.00     0.000 HD 
BRANCH  20  22
HETATM   22  C   UNL     1      -8.254   3.514  69.013  1.00  0.00    -0.060 C  
HETATM   23  C   UNL     1      -9.453   3.854  69.909  1.00  0.00    -0.267 C  
HETATM   24  C   UNL     1      -7.592   2.235  69.528  1.00  0.00    -0.043 C  
ENDBRANCH  20  22
ENDBRANCH  19  20
ENDBRANCH  16  19
ENDBRANCH  15  16
ENDBRANCH  14  15
ENDBRANCH  11  14
BRANCH  12  25
HETATM   25  C   UNL     1      -7.587   9.394  64.903  1.00  0.00    -0.110 C  
HETATM   26  C   UNL     1      -6.342   9.894  64.220  1.00  0.00    -0.125 C  
HETATM   27  O   UNL     1      -8.463   8.823  64.253  1.00  0.00    -0.167 OA 
ENDBRANCH  12  25
ENDBRANCH   6   8
ENDBRANCH   3   4
ENDBRANCH   2   3
TORSDOF 10
ENDMDL
MODEL      248
REMARK 921   NORMALIZED FREE ENERGY PREDICTED BY IDOCK:   -1.99 KCAL/MOL
REMARK 922        TOTAL FREE ENERGY PREDICTED BY IDOCK:   -4.18 KCAL/MOL
REMARK 923 INTER-LIGAND FREE ENERGY PREDICTED BY IDOCK:   -3.25 KCAL/MOL
REMARK 924 INTRA-LIGAND FREE ENERGY PREDICTED BY IDOCK:   -0.92 KCAL/MOL
REMARK 927      BINDING AFFINITY PREDICTED BY RF-SCORE:    0.00 PKD
ROOT
HETATM    1  C   UNL     1     -11.324  14.358  69.953  1.00  0.00    -0.273 C  
HETATM    2  C   UNL     1     -12.106  13.139  69.496  1.00  0.00    -0.296 C  
ENDROOT
BRANCH   2   3
HETATM    3  C   UNL     1     -12.273  12.133  70.627  1.00  0.00    -0.392 C  
BRANCH   3   4
HETATM    4  C   UNL     1     -11.473  10.881  70.349  1.00  0.00    -0.275 C  
HETATM    5  O   UNL     1     -11.337  10.030  71.224  1.00  0.00    -0.357 OA 
HETATM    6  N   UNL     1     -10.998  10.807  69.046  1.00  0.00    -0.221 N  
HETATM    7  H   UNL     1     -11.232  11.579  68.421  1.00  0.00     0.000 HD 
BRANCH   6   8
HETATM    8  C   UNL     1     -10.221   9.757  68.511  1.00  0.00    -0.186 A  
HETATM    9  C   UNL     1     -10.775   8.665  67.851  1.00  0.00    -0.158 A  
HETATM   10  C   UNL     1      -9.963   7.697  67.259  1.00  0.00    -0.273 A  
HETATM   11  C   UNL     1      -8.569   7.786  67.317  1.00  0.00    -0.128 A  
HETATM   12  C   UNL     1      -7.997   8.839  68.049  1.00  0.00    -0.106 A  
HETATM   13  C   UNL     1      -8.831   9.819  68.637  1.00  0.00    -0.126 A  
BRANCH  11  14
HETATM   14  O   UNL     1      -7.740   6.916  66.656  1.00  0.00    -0.100 OA 
BRANCH  14  15
HETATM   15  C   UNL     1      -8.111   6.549  65.317  1.00  0.00    -0.133 C  
BRANCH  15  16
HETATM   16  C   UNL     1      -8.016   5.025  65.160  1.00  0.00    -0.103 C  
HETATM   17  H   UNL     1      -7.289   3.774  63.831  1.00  0.00     0.000 HD 
HETATM   18  O   UNL     1      -7.349   4.718  63.928  1.00  0.00    -0.053 OA 
BRANCH  16  19
HETATM   19  C   UNL     1      -7.252   4.354  66.320  1.00  0.00    -0.076 C  
BRANCH  19  20
HETATM   20  N   UNL     1      -8.141   3.984  67.427  1.00  0.00    -0.091 NA 
HETATM   21  H   UNL     1      -9.053   4.427  67.319  1.00  0.00     0.000 HD 
BRANCH  20  22
HETATM   22  C   UNL     1      -8.286   2.533  67.607  1.00  0.00    -0.082 C  
HETATM   23  C   UNL     1      -7.983   2.082  69.043  1.00  0.00    -0.056 C  
HETATM   24  C   UNL     1      -9.727   2.158  67.259  1.00  0.00     0.368 C  
ENDBRANCH  20  22
ENDBRANCH  19  20
ENDBRANCH  16  19
ENDBRANCH  15  16
ENDBRANCH  14  15
ENDBRANCH  11  14
BRANCH  12  25
HETATM   25  C   UNL     1      -6.527   9.050  68.215  1.00  0.00    -0.055 C  
HETATM   26  C   UNL     1      -5.944   9.509  69.524  1.00  0.00    -0.033 C  
HETATM   27  O   UNL     1      -5.797   8.882  67.237  1.00  0.00    -0.045 OA 
ENDBRANCH  12  25
ENDBRANCH   6   8
ENDBRANCH   3   4
ENDBRANCH   2   3
TORSDOF 10
ENDMDL
MODEL      249
REMARK 921   NORMALIZED FREE ENERGY PREDICTED BY IDOCK:   -1.83 KCAL/MOL
REMARK 922        TOTAL FREE ENERGY PREDICTED BY IDOCK:   -3.92 KCAL/MOL
REMARK 923 INTER-LIGAND FREE ENERGY PREDICTED BY IDOCK:   -3.58 KCAL/MOL
REMARK 924 INTRA-LIGAND FREE ENERGY PREDICTED BY IDOCK:   -0.34 KCAL/MOL
REMARK 927      BINDING AFFINITY PREDICTED BY RF-SCORE:    0.00 PKD
ROOT
HETATM    1  C   UNL     1      -8.281  15.015  68.835  1.00  0.00    -0.178 C  
HETATM    2  C   UNL     1      -8.391  15.036  67.321  1.00  0.00    -0.228 C  
ENDROOT
BRANCH   2   3
HETATM    3  C   UNL     1      -9.189  13.845  66.808  1.00  0.00    -0.267 C  
BRANCH   3   4
HETATM    4  C   UNL     1      -8.490  12.549  67.146  1.00  0.00    -0.186 C  
HETATM    5  O   UNL     1      -7.265  12.510  67.216  1.00  0.00    -0.147 OA 
HETATM    6  N   UNL     1      -9.364  11.502  67.406  1.00  0.00    -0.165 N  
HETATM    7  H   UNL     1     -10.362  11.703  67.348  1.00  0.00     0.000 HD 
BRANCH   6   8
HETATM    8  C   UNL     1      -8.992  10.182  67.742  1.00  0.00    -0.128 A  
HETATM    9  C   UNL     1      -9.474   9.523  68.868  1.00  0.00    -0.155 A  
HETATM   10  C   UNL     1      -9.150   8.187  69.111  1.00  0.00    -0.148 A  
HETATM   11  C   UNL     1      -8.323   7.471  68.240  1.00  0.00    -0.125 A  
HETATM   12  C   UNL     1      -7.765   8.147  67.143  1.00  0.00    -0.097 A  
HETATM   13  C   UNL     1      -8.109   9.498  66.902  1.00  0.00    -0.109 A  
BRANCH  11  14
HETATM   14  O   UNL     1      -8.072   6.131  68.386  1.00  0.00    -0.106 OA 
BRANCH  14  15
HETATM   15  C   UNL     1      -8.119   5.598  69.720  1.00  0.00    -0.102 C  
BRANCH  15  16
HETATM   16  C   UNL     1      -9.173   4.484  69.789  1.00  0.00    -0.125 C  
HETATM   17  H   UNL     1      -9.166   2.527  69.938  1.00  0.00     0.000 HD 
HETATM   18  O   UNL     1      -8.514   3.216  69.896  1.00  0.00    -0.050 OA 
BRANCH  16  19
HETATM   19  C   UNL     1     -10.135   4.648  70.984  1.00  0.00    -0.175 C  
BRANCH  19  20
HETATM   20  N   UNL     1      -9.949   3.600  71.992  1.00  0.00    -0.172 NA 
HETATM   21  H   UNL     1      -8.964   3.506  72.236  1.00  0.00     0.000 HD 
BRANCH  20  22
HETATM   22  C   UNL     1     -10.768   3.789  73.198  1.00  0.00    -0.176 C  
HETATM   23  C   UNL     1      -9.963   3.611  74.493  1.00  0.00    -0.197 C  
HETATM   24  C   UNL     1     -11.343   5.205  73.157  1.00  0.00    -0.385 C  
ENDBRANCH  20  22
ENDBRANCH  19  20
ENDBRANCH  16  19
ENDBRANCH  15  16
ENDBRANCH  14  15
ENDBRANCH  11  14
BRANCH  12  25
HETATM   25  C   UNL     1      -6.851   7.519  66.142  1.00  0.00    -0.061 C  
HETATM   26  C   UNL     1      -5.428   7.981  65.981  1.00  0.00    -0.029 C  
HETATM   27  O   UNL     1      -7.301   6.636  65.410  1.00  0.00    -0.071 OA 
ENDBRANCH  12  25
ENDBRANCH   6   8
ENDBRANCH   3   4
ENDBRANCH   2   3
TORSDOF 10
ENDMDL
MODEL      250
REMARK 921   NORMALIZED FREE ENERGY PREDICTED BY IDOCK:   -1.66 KCAL/MOL
REMARK 922        TOTAL FREE ENERGY PREDICTED BY IDOCK:   -3.66 KCAL/MOL
REMARK 923 INTER-LIGAND FREE ENERGY PREDICTED BY IDOCK:   -4.83 KCAL/MOL
REMARK 924 INTRA-LIGAND FREE ENERGY PREDICTED BY IDOCK:    1.18 KCAL/MOL
REMARK 927      BINDING AFFINITY PREDICTED BY RF-SCORE:    0.00 PKD
ROOT
HETATM    1  C   UNL     1      -8.229  10.251  64.035  1.00  0.00    -0.151 C  
HETATM    2  C   UNL     1      -9.607  10.691  63.573  1.00  0.00    -0.366 C  
ENDROOT
BRANCH   2   3
HETATM    3  C   UNL     1     -10.276  11.587  64.607  1.00  0.00    -0.334 C  
BRANCH   3   4
HETATM    4  C   UNL     1     -10.485  10.840  65.905  1.00  0.00    -0.204 C  
HETATM    5  O   UNL     1     -10.917  11.430  66.891  1.00  0.00    -0.275 OA 
HETATM    6  N   UNL     1     -10.196   9.486  65.814  1.00  0.00    -0.270 N  
HETATM    7  H   UNL     1      -9.885   9.135  64.908  1.00  0.00     0.000 HD 
BRANCH   6   8
HETATM    8  C   UNL     1     -10.296   8.550  66.867  1.00  0.00    -0.297 A  
HETATM    9  C   UNL     1     -10.572   8.915  68.181  1.00  0.00    -0.211 A  
HETATM   10  C   UNL     1     -10.751   7.948  69.171  1.00  0.00    -0.130 A  
HETATM   11  C   UNL     1     -10.648   6.584  68.880  1.00  0.00    -0.241 A  
HETATM   12  C   UNL     1     -10.291   6.205  67.576  1.00  0.00    -0.259 A  
HETATM   13  C   UNL     1     -10.121   7.194  66.579  1.00  0.00    -0.154 A  
BRANCH  11  14
HETATM   14  O   UNL     1     -10.924   5.604  69.799  1.00  0.00    -0.345 OA 
BRANCH  14  15
HETATM   15  C   UNL     1      -9.969   5.409  70.855  1.00  0.00    -0.202 C  
BRANCH  15  16
HETATM   16  C   UNL     1      -9.981   6.629  71.787  1.00  0.00    -0.175 C  
HETATM   17  H   UNL     1     -11.030   7.226  73.335  1.00  0.00     0.000 HD 
HETATM   18  O   UNL     1     -11.023   6.471  72.758  1.00  0.00    -0.237 OA 
BRANCH  16  19
HETATM   19  C   UNL     1      -8.640   6.830  72.522  1.00  0.00    -0.122 C  
BRANCH  19  20
HETATM   20  N   UNL     1      -7.738   5.686  72.350  1.00  0.00    -0.101 NA 
HETATM   21  H   UNL     1      -6.803   6.001  72.093  1.00  0.00     0.000 HD 
BRANCH  20  22
HETATM   22  C   UNL     1      -7.683   4.798  73.520  1.00  0.00    -0.091 C  
HETATM   23  C   UNL     1      -7.449   3.330  73.137  1.00  0.00    -0.055 C  
HETATM   24  C   UNL     1      -6.537   5.270  74.415  1.00  0.00    -0.075 C  
ENDBRANCH  20  22
ENDBRANCH  19  20
ENDBRANCH  16  19
ENDBRANCH  15  16
ENDBRANCH  14  15
ENDBRANCH  11  14
BRANCH  12  25
HETATM   25  C   UNL     1     -10.125   4.790  67.125  1.00  0.00    -0.168 C  
HETATM   26  C   UNL     1     -10.462   4.371  65.719  1.00  0.00    -0.211 C  
HETATM   27  O   UNL     1      -9.746   3.954  67.946  1.00  0.00    -0.158 OA 
ENDBRANCH  12  25
ENDBRANCH   6   8
ENDBRANCH   3   4
ENDBRANCH   2   3
TORSDOF 10
ENDMDL
MODEL      251
REMARK 921   NORMALIZED FREE ENERGY PREDICTED BY IDOCK:   -1.54 KCAL/MOL
REMARK 922        TOTAL FREE ENERGY PREDICTED BY IDOCK:   -3.47 KCAL/MOL
REMARK 923 INTER-LIGAND FREE ENERGY PREDICTED BY IDOCK:   -3.50 KCAL/MOL
REMARK 924 INTRA-LIGAND FREE ENERGY PREDICTED BY IDOCK:    0.04 KCAL/MOL
REMARK 927      BINDING AFFINITY PREDICTED BY RF-SCORE:    0.00 PKD
ROOT
HETATM    1  C   UNL     1      -7.892  15.365  70.210  1.00  0.00     0.686 C  
HETATM    2  C   UNL     1      -8.142  15.996  68.851  1.00  0.00    -0.218 C  
ENDROOT
BRANCH   2   3
HETATM    3  C   UNL     1      -9.087  15.146  68.013  1.00  0.00    -0.180 C  
BRANCH   3   4
HETATM    4  C   UNL     1      -8.544  13.745  67.852  1.00  0.00    -0.183 C  
HETATM    5  O   UNL     1      -7.386  13.492  68.175  1.00  0.00    -0.095 OA 
HETATM    6  N   UNL     1      -9.484  12.839  67.379  1.00  0.00    -0.185 N  
HETATM    7  H   UNL     1     -10.422  13.195  67.195  1.00  0.00     0.000 HD 
BRANCH   6   8
HETATM    8  C   UNL     1      -9.255  11.469  67.129  1.00  0.00    -0.169 A  
HETATM    9  C   UNL     1      -9.201  10.514  68.140  1.00  0.00    -0.148 A  
HETATM   10  C   UNL     1      -9.063   9.158  67.839  1.00  0.00    -0.134 A  
HETATM   11  C   UNL     1      -8.963   8.715  66.516  1.00  0.00    -0.154 A  
HETATM   12  C   UNL     1      -8.935   9.675  65.491  1.00  0.00    -0.223 A  
HETATM   13  C   UNL     1      -9.085  11.045  65.809  1.00  0.00    -0.219 A  
BRANCH  11  14
HETATM   14  O   UNL     1      -8.937   7.386  66.176  1.00  0.00    -0.163 OA 
BRANCH  14  15
HETATM   15  C   UNL     1      -8.414   6.472  67.154  1.00  0.00    -0.112 C  
BRANCH  15  16
HETATM   16  C   UNL     1      -9.558   5.620  67.721  1.00  0.00    -0.119 C  
HETATM   17  H   UNL     1     -11.481   5.415  67.382  1.00  0.00     0.000 HD 
HETATM   18  O   UNL     1     -10.773   5.942  67.031  1.00  0.00    -0.274 OA 
BRANCH  16  19
HETATM   19  C   UNL     1      -9.296   4.105  67.586  1.00  0.00    -0.170 C  
BRANCH  19  20
HETATM   20  N   UNL     1      -9.945   3.534  66.402  1.00  0.00    -0.385 NA 
HETATM   21  H   UNL     1     -10.751   4.096  66.128  1.00  0.00     0.000 HD 
BRANCH  20  22
HETATM   22  C   UNL     1      -9.035   3.342  65.265  1.00  0.00    -0.140 C  
HETATM   23  C   UNL     1      -9.019   1.893  64.758  1.00  0.00    -0.120 C  
HETATM   24  C   UNL     1      -9.494   4.263  64.134  1.00  0.00    -0.134 C  
ENDBRANCH  20  22
ENDBRANCH  19  20
ENDBRANCH  16  19
ENDBRANCH  15  16
ENDBRANCH  14  15
ENDBRANCH  11  14
BRANCH  12  25
HETATM   25  C   UNL     1      -8.813   9.352  64.037  1.00  0.00    -0.177 C  
HETATM   26  C   UNL     1      -9.401  10.251  62.983  1.00  0.00    -0.338 C  
HETATM   27  O   UNL     1      -8.256   8.302  63.715  1.00  0.00    -0.152 OA 
ENDBRANCH  12  25
ENDBRANCH   6   8
ENDBRANCH   3   4
ENDBRANCH   2   3
TORSDOF 10
ENDMDL
MODEL      252
REMARK 921   NORMALIZED FREE ENERGY PREDICTED BY IDOCK:   -1.45 KCAL/MOL
REMARK 922        TOTAL FREE ENERGY PREDICTED BY IDOCK:   -3.33 KCAL/MOL
REMARK 923 INTER-LIGAND FREE ENERGY PREDICTED BY IDOCK:   -4.52 KCAL/MOL
REMARK 924 INTRA-LIGAND FREE ENERGY PREDICTED BY IDOCK:    1.19 KCAL/MOL
REMARK 927      BINDING AFFINITY PREDICTED BY RF-SCORE:    0.00 PKD
ROOT
HETATM    1  C   UNL     1     -11.260  11.548  63.834  1.00  0.00    -0.439 C  
HETATM    2  C   UNL     1     -12.342  12.277  64.612  1.00  0.00    -0.449 C  
ENDROOT
BRANCH   2   3
HETATM    3  C   UNL     1     -12.579  13.673  64.051  1.00  0.00    -0.147 C  
BRANCH   3   4
HETATM    4  C   UNL     1     -11.595  14.658  64.638  1.00  0.00    -0.402 C  
HETATM    5  O   UNL     1     -10.962  15.409  63.901  1.00  0.00     0.455 OA 
HETATM    6  N   UNL     1     -11.555  14.638  66.026  1.00  0.00    -0.351 N  
HETATM    7  H   UNL     1     -12.177  13.983  66.500  1.00  0.00     0.000 HD 
BRANCH   6   8
HETATM    8  C   UNL     1     -10.729  15.444  66.838  1.00  0.00    -0.314 A  
HETATM    9  C   UNL     1     -10.627  15.278  68.215  1.00  0.00    -0.244 A  
HETATM   10  C   UNL     1      -9.728  16.038  68.966  1.00  0.00    -0.244 A  
HETATM   11  C   UNL     1      -8.911  16.999  68.362  1.00  0.00    -0.247 A  
HETATM   12  C   UNL     1      -9.061  17.233  66.986  1.00  0.00    -0.247 A  
HETATM   13  C   UNL     1      -9.968  16.449  66.235  1.00  0.00    -0.341 A  
BRANCH  11  14
HETATM   14  O   UNL     1      -7.941  17.686  69.046  1.00  0.00    -0.207 OA 
BRANCH  14  15
HETATM   15  C   UNL     1      -7.009  16.910  69.818  1.00  0.00     0.231 C  
BRANCH  15  16
HETATM   16  C   UNL     1      -6.439  15.782  68.946  1.00  0.00    -0.116 C  
HETATM   17  H   UNL     1      -4.774  14.744  68.872  1.00  0.00     0.000 HD 
HETATM   18  O   UNL     1      -5.127  15.442  69.411  1.00  0.00    -0.093 OA 
BRANCH  16  19
HETATM   19  C   UNL     1      -7.318  14.514  68.964  1.00  0.00    -0.132 C  
BRANCH  19  20
HETATM   20  N   UNL     1      -6.536  13.295  68.733  1.00  0.00    -0.093 NA 
HETATM   21  H   UNL     1      -6.319  12.834  69.616  1.00  0.00     0.000 HD 
BRANCH  20  22
HETATM   22  C   UNL     1      -7.171  12.355  67.799  1.00  0.00    -0.119 C  
HETATM   23  C   UNL     1      -6.180  11.339  67.216  1.00  0.00    -0.081 C  
HETATM   24  C   UNL     1      -8.267  11.605  68.559  1.00  0.00    -0.144 C  
ENDBRANCH  20  22
ENDBRANCH  19  20
ENDBRANCH  16  19
ENDBRANCH  15  16
ENDBRANCH  14  15
ENDBRANCH  11  14
BRANCH  12  25
HETATM   25  C   UNL     1      -8.272  18.238  66.211  1.00  0.00    -0.212 C  
HETATM   26  C   UNL     1      -6.768  18.189  66.166  1.00  0.00    -0.292 C  
HETATM   27  O   UNL     1      -8.879  19.145  65.640  1.00  0.00    -0.296 OA 
ENDBRANCH  12  25
ENDBRANCH   6   8
ENDBRANCH   3   4
ENDBRANCH   2   3
TORSDOF 10
ENDMDL
MODEL      253
REMARK 921   NORMALIZED FREE ENERGY PREDICTED BY IDOCK:   -1.40 KCAL/MOL
REMARK 922        TOTAL FREE ENERGY PREDICTED BY IDOCK:   -3.24 KCAL/MOL
REMARK 923 INTER-LIGAND FREE ENERGY PREDICTED BY IDOCK:   -3.49 KCAL/MOL
REMARK 924 INTRA-LIGAND FREE ENERGY PREDICTED BY IDOCK:    0.24 KCAL/MOL
REMARK 927      BINDING AFFINITY PREDICTED BY RF-SCORE:    0.00 PKD
ROOT
HETATM    1  C   UNL     1     -13.048  11.733  63.622  1.00  0.00    -0.077 C  
HETATM    2  C   UNL     1     -11.923  11.763  64.642  1.00  0.00    -0.163 C  
ENDROOT
BRANCH   2   3
HETATM    3  C   UNL     1     -10.651  12.350  64.046  1.00  0.00    -0.444 C  
BRANCH   3   4
HETATM    4  C   UNL     1     -10.285  13.643  64.737  1.00  0.00    -0.337 C  
HETATM    5  O   UNL     1     -10.972  14.647  64.569  1.00  0.00    -0.339 OA 
HETATM    6  N   UNL     1      -9.182  13.529  65.572  1.00  0.00    -0.203 N  
HETATM    7  H   UNL     1      -8.741  12.611  65.639  1.00  0.00     0.000 HD 
BRANCH   6   8
HETATM    8  C   UNL     1      -8.616  14.572  66.337  1.00  0.00     0.192 A  
HETATM    9  C   UNL     1      -7.936  14.352  67.531  1.00  0.00    -0.208 A  
HETATM   10  C   UNL     1      -7.315  15.404  68.206  1.00  0.00    -0.113 A  
HETATM   11  C   UNL     1      -7.364  16.712  67.714  1.00  0.00    -0.148 A  
HETATM   12  C   UNL     1      -8.114  16.960  66.554  1.00  0.00    -0.327 A  
HETATM   13  C   UNL     1      -8.732  15.885  65.873  1.00  0.00    -0.055 A  
BRANCH  11  14
HETATM   14  O   UNL     1      -6.676  17.750  68.289  1.00  0.00    -0.195 OA 
BRANCH  14  15
HETATM   15  C   UNL     1      -7.109  18.180  69.590  1.00  0.00     0.226 C  
BRANCH  15  16
HETATM   16  C   UNL     1      -8.126  19.320  69.438  1.00  0.00     0.067 C  
HETATM   17  H   UNL     1      -8.403  20.825  68.209  1.00  0.00     0.000 HD 
HETATM   18  O   UNL     1      -7.773  20.121  68.303  1.00  0.00    -0.259 OA 
BRANCH  16  19
HETATM   19  C   UNL     1      -9.570  18.808  69.257  1.00  0.00    -0.036 C  
BRANCH  19  20
HETATM   20  N   UNL     1      -9.655  17.346  69.345  1.00  0.00     0.056 NA 
HETATM   21  H   UNL     1      -9.113  17.002  70.137  1.00  0.00     0.000 HD 
BRANCH  20  22
HETATM   22  C   UNL     1     -11.032  16.837  69.397  1.00  0.00    -0.176 C  
HETATM   23  C   UNL     1     -11.516  16.300  68.043  1.00  0.00    -0.125 C  
HETATM   24  C   UNL     1     -11.077  15.709  70.429  1.00  0.00    -0.369 C  
ENDBRANCH  20  22
ENDBRANCH  19  20
ENDBRANCH  16  19
ENDBRANCH  15  16
ENDBRANCH  14  15
ENDBRANCH  11  14
BRANCH  12  25
HETATM   25  C   UNL     1      -8.273  18.306  65.925  1.00  0.00     0.088 C  
HETATM   26  C   UNL     1      -7.090  19.063  65.382  1.00  0.00    -0.077 C  
HETATM   27  O   UNL     1      -9.396  18.812  65.898  1.00  0.00    -0.466 OA 
ENDBRANCH  12  25
ENDBRANCH   6   8
ENDBRANCH   3   4
ENDBRANCH   2   3
TORSDOF 10
ENDMDL
MODEL      254
REMARK 921   NORMALIZED FREE ENERGY PREDICTED BY IDOCK:   -0.65 KCAL/MOL
REMARK 922        TOTAL FREE ENERGY PREDICTED BY IDOCK:   -2.06 KCAL/MOL
REMARK 923 INTER-LIGAND FREE ENERGY PREDICTED BY IDOCK:   -2.88 KCAL/MOL
REMARK 924 INTRA-LIGAND FREE ENERGY PREDICTED BY IDOCK:    0.82 KCAL/MOL
REMARK 927      BINDING AFFINITY PREDICTED BY RF-SCORE:    0.00 PKD
ROOT
HETATM    1  C   UNL     1     -11.462  15.080  73.068  1.00  0.00    -0.060 C  
HETATM    2  C   UNL     1     -12.835  15.452  72.536  1.00  0.00    -0.491 C  
ENDROOT
BRANCH   2   3
HETATM    3  C   UNL     1     -13.141  14.718  71.237  1.00  0.00    -0.433 C  
BRANCH   3   4
HETATM    4  C   UNL     1     -12.674  15.523  70.046  1.00  0.00    -0.111 C  
HETATM    5  O   UNL     1     -13.279  15.452  68.980  1.00  0.00     1.072 OA 
HETATM    6  N   UNL     1     -11.584  16.336  70.323  1.00  0.00    -0.435 N  
HETATM    7  H   UNL     1     -11.218  16.316  71.275  1.00  0.00     0.000 HD 
BRANCH   6   8
HETATM    8  C   UNL     1     -10.938  17.190  69.403  1.00  0.00     0.167 A  
HETATM    9  C   UNL     1     -10.102  18.231  69.795  1.00  0.00     0.605 A  
HETATM   10  C   UNL     1      -9.413  18.992  68.849  1.00  0.00    -0.393 A  
HETATM   11  C   UNL     1      -9.547  18.742  67.479  1.00  0.00    -0.301 A  
HETATM   12  C   UNL     1     -10.448  17.747  67.068  1.00  0.00    -0.324 A  
HETATM   13  C   UNL     1     -11.134  16.977  68.036  1.00  0.00    -0.149 A  
BRANCH  11  14
HETATM   14  O   UNL     1      -8.805  19.393  66.528  1.00  0.00    -0.321 OA 
BRANCH  14  15
HETATM   15  C   UNL     1      -7.396  19.111  66.491  1.00  0.00    -0.236 C  
BRANCH  15  16
HETATM   16  C   UNL     1      -7.182  17.616  66.217  1.00  0.00    -0.307 C  
HETATM   17  H   UNL     1      -6.246  16.536  64.871  1.00  0.00     0.000 HD 
HETATM   18  O   UNL     1      -6.379  17.461  65.040  1.00  0.00     0.606 OA 
BRANCH  16  19
HETATM   19  C   UNL     1      -6.491  16.889  67.390  1.00  0.00    -0.154 C  
BRANCH  19  20
HETATM   20  N   UNL     1      -7.288  16.941  68.620  1.00  0.00    -0.210 NA 
HETATM   21  H   UNL     1      -8.229  16.585  68.454  1.00  0.00     0.000 HD 
BRANCH  20  22
HETATM   22  C   UNL     1      -6.665  16.249  69.757  1.00  0.00    -0.079 C  
HETATM   23  C   UNL     1      -7.265  14.859  70.005  1.00  0.00     0.009 C  
HETATM   24  C   UNL     1      -5.172  16.104  69.457  1.00  0.00    -0.115 C  
ENDBRANCH  20  22
ENDBRANCH  19  20
ENDBRANCH  16  19
ENDBRANCH  15  16
ENDBRANCH  14  15
ENDBRANCH  11  14
BRANCH  12  25
HETATM   25  C   UNL     1     -10.710  17.384  65.642  1.00  0.00    -0.111 C  
HETATM   26  C   UNL     1     -10.674  15.952  65.179  1.00  0.00    -0.449 C  
HETATM   27  O   UNL     1     -10.912  18.291  64.834  1.00  0.00    -0.660 OA 
ENDBRANCH  12  25
ENDBRANCH   6   8
ENDBRANCH   3   4
ENDBRANCH   2   3
TORSDOF 10
ENDMDL
MODEL      255
REMARK 921   NORMALIZED FREE ENERGY PREDICTED BY IDOCK:    0.02 KCAL/MOL
REMARK 922        TOTAL FREE ENERGY PREDICTED BY IDOCK:   -1.01 KCAL/MOL
REMARK 923 INTER-LIGAND FREE ENERGY PREDICTED BY IDOCK:   -1.96 KCAL/MOL
REMARK 924 INTRA-LIGAND FREE ENERGY PREDICTED BY IDOCK:    0.95 KCAL/MOL
REMARK 927      BINDING AFFINITY PREDICTED BY RF-SCORE:    0.00 PKD
ROOT
HETATM    1  C   UNL     1     -13.489   9.153  70.425  1.00  0.00     0.876 C  
HETATM    2  C   UNL     1     -13.807   8.511  71.764  1.00  0.00    -0.462 C  
ENDROOT
BRANCH   2   3
HETATM    3  C   UNL     1     -12.719   7.530  72.180  1.00  0.00    -0.163 C  
BRANCH   3   4
HETATM    4  C   UNL     1     -11.501   7.681  71.298  1.00  0.00    -0.269 C  
HETATM    5  O   UNL     1     -10.965   8.778  71.170  1.00  0.00    -0.237 OA 
HETATM    6  N   UNL     1     -11.070   6.483  70.742  1.00  0.00    -0.280 N  
HETATM    7  H   UNL     1     -11.599   5.644  70.979  1.00  0.00     0.000 HD 
BRANCH   6   8
HETATM    8  C   UNL     1      -9.965   6.326  69.879  1.00  0.00    -0.169 A  
HETATM    9  C   UNL     1      -9.918   6.876  68.601  1.00  0.00    -0.149 A  
HETATM   10  C   UNL     1      -8.768   6.771  67.817  1.00  0.00    -0.120 A  
HETATM   11  C   UNL     1      -7.631   6.103  68.283  1.00  0.00    -0.098 A  
HETATM   12  C   UNL     1      -7.693   5.475  69.537  1.00  0.00    -0.082 A  
HETATM   13  C   UNL     1      -8.861   5.596  70.326  1.00  0.00    -0.146 A  
BRANCH  11  14
HETATM   14  O   UNL     1      -6.449   6.074  67.588  1.00  0.00    -0.043 OA 
BRANCH  14  15
HETATM   15  C   UNL     1      -6.308   5.061  66.579  1.00  0.00    -0.036 C  
BRANCH  15  16
HETATM   16  C   UNL     1      -7.429   5.214  65.541  1.00  0.00    -0.077 C  
HETATM   17  H   UNL     1      -8.091   6.637  64.361  1.00  0.00     0.000 HD 
HETATM   18  O   UNL     1      -7.397   6.542  65.004  1.00  0.00    -0.070 OA 
BRANCH  16  19
HETATM   19  C   UNL     1      -7.309   4.204  64.381  1.00  0.00    -0.070 C  
BRANCH  19  20
HETATM   20  N   UNL     1      -8.618   3.812  63.850  1.00  0.00    -0.092 NA 
HETATM   21  H   UNL     1      -8.711   4.099  62.876  1.00  0.00     0.000 HD 
BRANCH  20  22
HETATM   22  C   UNL     1      -8.911   2.380  64.000  1.00  0.00    -0.103 C  
HETATM   23  C   UNL     1      -7.747   1.487  63.548  1.00  0.00    -0.058 C  
HETATM   24  C   UNL     1      -9.203   2.112  65.477  1.00  0.00    -0.033 C  
ENDBRANCH  20  22
ENDBRANCH  19  20
ENDBRANCH  16  19
ENDBRANCH  15  16
ENDBRANCH  14  15
ENDBRANCH  11  14
BRANCH  12  25
HETATM   25  C   UNL     1      -6.567   4.711  70.154  1.00  0.00    -0.036 C  
HETATM   26  C   UNL     1      -5.982   3.498  69.481  1.00  0.00    -0.023 C  
HETATM   27  O   UNL     1      -6.150   5.067  71.256  1.00  0.00    -0.020 OA 
ENDBRANCH  12  25
ENDBRANCH   6   8
ENDBRANCH   3   4
ENDBRANCH   2   3
TORSDOF 10
ENDMDL
MODEL      256
REMARK 921   NORMALIZED FREE ENERGY PREDICTED BY IDOCK:    0.05 KCAL/MOL
REMARK 922        TOTAL FREE ENERGY PREDICTED BY IDOCK:   -0.95 KCAL/MOL
REMARK 923 INTER-LIGAND FREE ENERGY PREDICTED BY IDOCK:   -3.77 KCAL/MOL
REMARK 924 INTRA-LIGAND FREE ENERGY PREDICTED BY IDOCK:    2.82 KCAL/MOL
REMARK 927      BINDING AFFINITY PREDICTED BY RF-SCORE:    0.00 PKD
ROOT
HETATM    1  C   UNL     1     -13.792   8.780  70.970  1.00  0.00     0.011 C  
HETATM    2  C   UNL     1     -14.342   7.830  72.019  1.00  0.00    -0.472 C  
ENDROOT
BRANCH   2   3
HETATM    3  C   UNL     1     -13.425   6.631  72.214  1.00  0.00     0.194 C  
BRANCH   3   4
HETATM    4  C   UNL     1     -12.089   6.867  71.547  1.00  0.00    -0.358 C  
HETATM    5  O   UNL     1     -11.423   5.915  71.149  1.00  0.00    -0.237 OA 
HETATM    6  N   UNL     1     -11.773   8.211  71.405  1.00  0.00    -0.278 N  
HETATM    7  H   UNL     1     -12.454   8.888  71.751  1.00  0.00     0.000 HD 
BRANCH   6   8
HETATM    8  C   UNL     1     -10.593   8.723  70.825  1.00  0.00    -0.220 A  
HETATM    9  C   UNL     1      -9.333   8.188  71.074  1.00  0.00    -0.180 A  
HETATM   10  C   UNL     1      -8.204   8.669  70.408  1.00  0.00    -0.122 A  
HETATM   11  C   UNL     1      -8.300   9.710  69.478  1.00  0.00    -0.152 A  
HETATM   12  C   UNL     1      -9.552  10.312  69.277  1.00  0.00    -0.239 A  
HETATM   13  C   UNL     1     -10.689   9.810  69.951  1.00  0.00    -0.303 A  
BRANCH  11  14
HETATM   14  O   UNL     1      -7.235  10.134  68.725  1.00  0.00    -0.075 OA 
BRANCH  14  15
HETATM   15  C   UNL     1      -6.600   9.159  67.882  1.00  0.00    -0.063 C  
BRANCH  15  16
HETATM   16  C   UNL     1      -7.670   8.262  67.242  1.00  0.00    -0.101 C  
HETATM   17  H   UNL     1      -9.128   8.490  65.947  1.00  0.00     0.000 HD 
HETATM   18  O   UNL     1      -8.466   9.045  66.343  1.00  0.00    -0.116 OA 
BRANCH  16  19
HETATM   19  C   UNL     1      -7.064   7.074  66.467  1.00  0.00    -0.077 C  
BRANCH  19  20
HETATM   20  N   UNL     1      -8.076   6.076  66.104  1.00  0.00    -0.107 NA 
HETATM   21  H   UNL     1      -7.800   5.575  65.261  1.00  0.00     0.000 HD 
BRANCH  20  22
HETATM   22  C   UNL     1      -8.391   5.136  67.188  1.00  0.00    -0.107 C  
HETATM   23  C   UNL     1      -7.178   4.298  67.616  1.00  0.00    -0.068 C  
HETATM   24  C   UNL     1      -8.886   5.947  68.386  1.00  0.00    -0.111 C  
ENDBRANCH  20  22
ENDBRANCH  19  20
ENDBRANCH  16  19
ENDBRANCH  15  16
ENDBRANCH  14  15
ENDBRANCH  11  14
BRANCH  12  25
HETATM   25  C   UNL     1      -9.801  11.444  68.333  1.00  0.00    -0.205 C  
HETATM   26  C   UNL     1      -8.906  12.653  68.306  1.00  0.00    -0.172 C  
HETATM   27  O   UNL     1     -10.790  11.389  67.601  1.00  0.00    -0.209 OA 
ENDBRANCH  12  25
ENDBRANCH   6   8
ENDBRANCH   3   4
ENDBRANCH   2   3
TORSDOF 10
ENDMDL
MODEL      257
REMARK 921   NORMALIZED FREE ENERGY PREDICTED BY IDOCK:    0.18 KCAL/MOL
REMARK 922        TOTAL FREE ENERGY PREDICTED BY IDOCK:   -0.74 KCAL/MOL
REMARK 923 INTER-LIGAND FREE ENERGY PREDICTED BY IDOCK:   -2.50 KCAL/MOL
REMARK 924 INTRA-LIGAND FREE ENERGY PREDICTED BY IDOCK:    1.76 KCAL/MOL
REMARK 927      BINDING AFFINITY PREDICTED BY RF-SCORE:    0.00 PKD
ROOT
HETATM    1  C   UNL     1     -13.802   8.726  70.974  1.00  0.00     0.011 C  
HETATM    2  C   UNL     1     -14.410   7.866  72.068  1.00  0.00    -0.490 C  
ENDROOT
BRANCH   2   3
HETATM    3  C   UNL     1     -13.628   6.572  72.254  1.00  0.00     0.257 C  
BRANCH   3   4
HETATM    4  C   UNL     1     -12.395   6.565  71.380  1.00  0.00    -0.196 C  
HETATM    5  O   UNL     1     -12.380   7.203  70.331  1.00  0.00    -0.140 OA 
HETATM    6  N   UNL     1     -11.342   5.838  71.919  1.00  0.00    -0.243 N  
HETATM    7  H   UNL     1     -11.496   5.397  72.825  1.00  0.00     0.000 HD 
BRANCH   6   8
HETATM    8  C   UNL     1     -10.076   5.656  71.321  1.00  0.00    -0.206 A  
HETATM    9  C   UNL     1      -9.910   5.378  69.968  1.00  0.00    -0.274 A  
HETATM   10  C   UNL     1      -8.636   5.296  69.404  1.00  0.00    -0.102 A  
HETATM   11  C   UNL     1      -7.486   5.480  70.179  1.00  0.00    -0.070 A  
HETATM   12  C   UNL     1      -7.637   5.681  71.560  1.00  0.00    -0.105 A  
HETATM   13  C   UNL     1      -8.934   5.771  72.118  1.00  0.00    -0.137 A  
BRANCH  11  14
HETATM   14  O   UNL     1      -6.225   5.516  69.641  1.00  0.00    -0.026 OA 
BRANCH  14  15
HETATM   15  C   UNL     1      -5.989   6.468  68.590  1.00  0.00    -0.021 C  
BRANCH  15  16
HETATM   16  C   UNL     1      -6.821   7.732  68.849  1.00  0.00    -0.058 C  
HETATM   17  H   UNL     1      -6.648   9.347  69.952  1.00  0.00     0.000 HD 
HETATM   18  O   UNL     1      -6.133   8.564  69.792  1.00  0.00    -0.034 OA 
BRANCH  16  19
HETATM   19  C   UNL     1      -7.083   8.545  67.565  1.00  0.00    -0.080 C  
BRANCH  19  20
HETATM   20  N   UNL     1      -8.158   9.526  67.741  1.00  0.00    -0.106 NA 
HETATM   21  H   UNL     1      -8.050  10.024  68.624  1.00  0.00     0.000 HD 
BRANCH  20  22
HETATM   22  C   UNL     1      -8.282  10.473  66.624  1.00  0.00    -0.129 C  
HETATM   23  C   UNL     1      -7.043  11.365  66.465  1.00  0.00    -0.058 C  
HETATM   24  C   UNL     1      -8.483   9.664  65.342  1.00  0.00    -0.155 C  
ENDBRANCH  20  22
ENDBRANCH  19  20
ENDBRANCH  16  19
ENDBRANCH  15  16
ENDBRANCH  14  15
ENDBRANCH  11  14
BRANCH  12  25
HETATM   25  C   UNL     1      -6.502   5.872  72.513  1.00  0.00    -0.066 C  
HETATM   26  C   UNL     1      -5.224   5.088  72.376  1.00  0.00    -0.008 C  
HETATM   27  O   UNL     1      -6.650   6.657  73.450  1.00  0.00    -0.064 OA 
ENDBRANCH  12  25
ENDBRANCH   6   8
ENDBRANCH   3   4
ENDBRANCH   2   3
TORSDOF 10
ENDMDL
MODEL      258
REMARK 921   NORMALIZED FREE ENERGY PREDICTED BY IDOCK:    0.26 KCAL/MOL
REMARK 922        TOTAL FREE ENERGY PREDICTED BY IDOCK:   -0.61 KCAL/MOL
REMARK 923 INTER-LIGAND FREE ENERGY PREDICTED BY IDOCK:   -2.97 KCAL/MOL
REMARK 924 INTRA-LIGAND FREE ENERGY PREDICTED BY IDOCK:    2.35 KCAL/MOL
REMARK 927      BINDING AFFINITY PREDICTED BY RF-SCORE:    0.00 PKD
ROOT
HETATM    1  C   UNL     1     -13.489   9.153  70.425  1.00  0.00     0.876 C  
HETATM    2  C   UNL     1     -13.807   8.511  71.764  1.00  0.00    -0.462 C  
ENDROOT
BRANCH   2   3
HETATM    3  C   UNL     1     -12.719   7.530  72.180  1.00  0.00    -0.163 C  
BRANCH   3   4
HETATM    4  C   UNL     1     -11.501   7.681  71.298  1.00  0.00    -0.269 C  
HETATM    5  O   UNL     1     -10.788   6.709  71.062  1.00  0.00    -0.229 OA 
HETATM    6  N   UNL     1     -11.346   8.961  70.784  1.00  0.00    -0.273 N  
HETATM    7  H   UNL     1     -12.049   9.654  71.041  1.00  0.00     0.000 HD 
BRANCH   6   8
HETATM    8  C   UNL     1     -10.300   9.388  69.938  1.00  0.00    -0.227 A  
HETATM    9  C   UNL     1      -8.971   9.448  70.348  1.00  0.00    -0.294 A  
HETATM   10  C   UNL     1      -7.959   9.790  69.450  1.00  0.00    -0.125 A  
HETATM   11  C   UNL     1      -8.245  10.094  68.115  1.00  0.00    -0.113 A  
HETATM   12  C   UNL     1      -9.588  10.115  67.709  1.00  0.00    -0.168 A  
HETATM   13  C   UNL     1     -10.605   9.758  68.626  1.00  0.00    -0.249 A  
BRANCH  11  14
HETATM   14  O   UNL     1      -7.269  10.326  67.180  1.00  0.00    -0.088 OA 
BRANCH  14  15
HETATM   15  C   UNL     1      -6.747  11.663  67.098  1.00  0.00    -0.142 C  
BRANCH  15  16
HETATM   16  C   UNL     1      -6.164  12.068  68.459  1.00  0.00    -0.053 C  
HETATM   17  H   UNL     1      -4.813  11.360  69.695  1.00  0.00     0.000 HD 
HETATM   18  O   UNL     1      -5.174  11.109  68.853  1.00  0.00    -0.041 OA 
BRANCH  16  19
HETATM   19  C   UNL     1      -5.518  13.470  68.435  1.00  0.00    -0.095 C  
BRANCH  19  20
HETATM   20  N   UNL     1      -5.644  14.158  69.724  1.00  0.00    -0.096 NA 
HETATM   21  H   UNL     1      -4.725  14.333  70.129  1.00  0.00     0.000 HD 
BRANCH  20  22
HETATM   22  C   UNL     1      -6.426  15.401  69.654  1.00  0.00    -0.171 C  
HETATM   23  C   UNL     1      -6.000  16.303  68.488  1.00  0.00    -0.112 C  
HETATM   24  C   UNL     1      -7.897  15.021  69.483  1.00  0.00    -0.149 C  
ENDBRANCH  20  22
ENDBRANCH  19  20
ENDBRANCH  16  19
ENDBRANCH  15  16
ENDBRANCH  14  15
ENDBRANCH  11  14
BRANCH  12  25
HETATM   25  C   UNL     1     -10.045  10.441  66.324  1.00  0.00    -0.231 C  
HETATM   26  C   UNL     1      -9.745  11.774  65.693  1.00  0.00    -0.256 C  
HETATM   27  O   UNL     1     -10.719   9.607  65.718  1.00  0.00     0.164 OA 
ENDBRANCH  12  25
ENDBRANCH   6   8
ENDBRANCH   3   4
ENDBRANCH   2   3
TORSDOF 10
ENDMDL
MODEL      259
REMARK 921   NORMALIZED FREE ENERGY PREDICTED BY IDOCK:    0.88 KCAL/MOL
REMARK 922        TOTAL FREE ENERGY PREDICTED BY IDOCK:    0.37 KCAL/MOL
REMARK 923 INTER-LIGAND FREE ENERGY PREDICTED BY IDOCK:   -0.52 KCAL/MOL
REMARK 924 INTRA-LIGAND FREE ENERGY PREDICTED BY IDOCK:    0.89 KCAL/MOL
REMARK 927      BINDING AFFINITY PREDICTED BY RF-SCORE:    0.00 PKD
ROOT
HETATM    1  C   UNL     1      -7.339  13.860  70.824  1.00  0.00     2.005 C  
HETATM    2  C   UNL     1      -7.221  14.728  69.584  1.00  0.00    -0.136 C  
ENDROOT
BRANCH   2   3
HETATM    3  C   UNL     1      -8.050  14.167  68.436  1.00  0.00    -0.144 C  
BRANCH   3   4
HETATM    4  C   UNL     1      -7.525  12.816  68.009  1.00  0.00    -0.122 C  
HETATM    5  O   UNL     1      -6.553  12.326  68.577  1.00  0.00    -0.062 OA 
HETATM    6  N   UNL     1      -8.275  12.226  67.001  1.00  0.00    -0.249 N  
HETATM    7  H   UNL     1      -9.085  12.743  66.659  1.00  0.00     0.000 HD 
BRANCH   6   8
HETATM    8  C   UNL     1      -8.015  10.972  66.407  1.00  0.00    -0.161 A  
HETATM    9  C   UNL     1      -7.354   9.942  67.070  1.00  0.00    -0.091 A  
HETATM   10  C   UNL     1      -7.200   8.689  66.476  1.00  0.00    -0.080 A  
HETATM   11  C   UNL     1      -7.692   8.430  65.193  1.00  0.00    -0.097 A  
HETATM   12  C   UNL     1      -8.289   9.482  64.481  1.00  0.00    -0.167 A  
HETATM   13  C   UNL     1      -8.448  10.745  65.098  1.00  0.00    -0.102 A  
BRANCH  11  14
HETATM   14  O   UNL     1      -7.657   7.183  64.621  1.00  0.00    -0.091 OA 
BRANCH  14  15
HETATM   15  C   UNL     1      -6.621   6.290  65.063  1.00  0.00    -0.039 C  
BRANCH  15  16
HETATM   16  C   UNL     1      -7.226   5.229  65.994  1.00  0.00    -0.073 C  
HETATM   17  H   UNL     1      -9.025   4.565  66.415  1.00  0.00     0.000 HD 
HETATM   18  O   UNL     1      -8.651   5.222  65.840  1.00  0.00    -0.119 OA 
BRANCH  16  19
HETATM   19  C   UNL     1      -6.688   3.811  65.708  1.00  0.00    -0.045 C  
BRANCH  19  20
HETATM   20  N   UNL     1      -7.584   3.044  64.836  1.00  0.00    -0.075 NA 
HETATM   21  H   UNL     1      -8.558   3.215  65.082  1.00  0.00     0.000 HD 
BRANCH  20  22
HETATM   22  C   UNL     1      -7.360   3.285  63.404  1.00  0.00    -0.054 C  
HETATM   23  C   UNL     1      -7.177   1.985  62.607  1.00  0.00    -0.036 C  
HETATM   24  C   UNL     1      -8.573   4.039  62.859  1.00  0.00    -0.093 C  
ENDBRANCH  20  22
ENDBRANCH  19  20
ENDBRANCH  16  19
ENDBRANCH  15  16
ENDBRANCH  14  15
ENDBRANCH  11  14
BRANCH  12  25
HETATM   25  C   UNL     1      -8.842   9.359  63.098  1.00  0.00    -0.190 C  
HETATM   26  C   UNL     1      -9.394  10.552  62.365  1.00  0.00    -0.281 C  
HETATM   27  O   UNL     1      -8.879   8.242  62.580  1.00  0.00    -0.017 OA 
ENDBRANCH  12  25
ENDBRANCH   6   8
ENDBRANCH   3   4
ENDBRANCH   2   3
TORSDOF 10
ENDMDL
MODEL      260
REMARK 921   NORMALIZED FREE ENERGY PREDICTED BY IDOCK:    2.64 KCAL/MOL
REMARK 922        TOTAL FREE ENERGY PREDICTED BY IDOCK:    3.16 KCAL/MOL
REMARK 923 INTER-LIGAND FREE ENERGY PREDICTED BY IDOCK:    1.82 KCAL/MOL
REMARK 924 INTRA-LIGAND FREE ENERGY PREDICTED BY IDOCK:    1.34 KCAL/MOL
REMARK 927      BINDING AFFINITY PREDICTED BY RF-SCORE:    0.00 PKD
ROOT
HETATM    1  C   UNL     1      -7.531  13.714  71.053  1.00  0.00     3.640 C  
HETATM    2  C   UNL     1      -7.332  14.622  69.852  1.00  0.00     0.052 C  
ENDROOT
BRANCH   2   3
HETATM    3  C   UNL     1      -8.198  14.182  68.679  1.00  0.00    -0.116 C  
BRANCH   3   4
HETATM    4  C   UNL     1      -7.869  12.764  68.274  1.00  0.00    -0.141 C  
HETATM    5  O   UNL     1      -7.067  12.107  68.932  1.00  0.00    -0.107 OA 
HETATM    6  N   UNL     1      -8.589  12.323  67.173  1.00  0.00    -0.181 N  
HETATM    7  H   UNL     1      -9.253  12.977  66.758  1.00  0.00     0.000 HD 
BRANCH   6   8
HETATM    8  C   UNL     1      -8.483  11.048  66.576  1.00  0.00    -0.161 A  
HETATM    9  C   UNL     1      -8.106   9.910  67.282  1.00  0.00    -0.113 A  
HETATM   10  C   UNL     1      -8.102   8.655  66.671  1.00  0.00    -0.100 A  
HETATM   11  C   UNL     1      -8.466   8.500  65.330  1.00  0.00    -0.174 A  
HETATM   12  C   UNL     1      -8.771   9.650  64.584  1.00  0.00    -0.227 A  
HETATM   13  C   UNL     1      -8.780  10.915  65.217  1.00  0.00    -0.147 A  
BRANCH  11  14
HETATM   14  O   UNL     1      -8.580   7.273  64.727  1.00  0.00     0.039 OA 
BRANCH  14  15
HETATM   15  C   UNL     1      -7.434   6.408  64.783  1.00  0.00    -0.087 C  
BRANCH  15  16
HETATM   16  C   UNL     1      -7.678   5.303  65.821  1.00  0.00    -0.091 C  
HETATM   17  H   UNL     1      -9.111   4.819  67.072  1.00  0.00     0.000 HD 
HETATM   18  O   UNL     1      -8.960   5.503  66.431  1.00  0.00    -0.124 OA 
BRANCH  16  19
HETATM   19  C   UNL     1      -7.634   3.889  65.205  1.00  0.00    -0.081 C  
BRANCH  19  20
HETATM   20  N   UNL     1      -7.872   2.843  66.205  1.00  0.00    -0.080 NA 
HETATM   21  H   UNL     1      -7.482   1.953  65.894  1.00  0.00     0.000 HD 
BRANCH  20  22
HETATM   22  C   UNL     1      -7.378   3.186  67.546  1.00  0.00    -0.058 C  
HETATM   23  C   UNL     1      -8.329   2.729  68.661  1.00  0.00    -0.086 C  
HETATM   24  C   UNL     1      -6.021   2.506  67.736  1.00  0.00    -0.024 C  
ENDBRANCH  20  22
ENDBRANCH  19  20
ENDBRANCH  16  19
ENDBRANCH  15  16
ENDBRANCH  14  15
ENDBRANCH  11  14
BRANCH  12  25
HETATM   25  C   UNL     1      -9.156   9.641  63.140  1.00  0.00    -0.199 C  
HETATM   26  C   UNL     1      -9.356  10.921  62.374  1.00  0.00    -0.252 C  
HETATM   27  O   UNL     1      -9.353   8.555  62.593  1.00  0.00     0.635 OA 
ENDBRANCH  12  25
ENDBRANCH   6   8
ENDBRANCH   3   4
ENDBRANCH   2   3
TORSDOF 10
ENDMDL
MODEL      261
REMARK 921   NORMALIZED FREE ENERGY PREDICTED BY IDOCK:    8.19 KCAL/MOL
REMARK 922        TOTAL FREE ENERGY PREDICTED BY IDOCK:   11.95 KCAL/MOL
REMARK 923 INTER-LIGAND FREE ENERGY PREDICTED BY IDOCK:   11.17 KCAL/MOL
REMARK 924 INTRA-LIGAND FREE ENERGY PREDICTED BY IDOCK:    0.77 KCAL/MOL
REMARK 927      BINDING AFFINITY PREDICTED BY RF-SCORE:    0.00 PKD
ROOT
HETATM    1  C   UNL     1     -10.326  18.490  72.346  1.00  0.00     4.382 C  
HETATM    2  C   UNL     1     -11.787  18.579  72.752  1.00  0.00     5.277 C  
ENDROOT
BRANCH   2   3
HETATM    3  C   UNL     1     -12.328  17.219  73.172  1.00  0.00     1.202 C  
BRANCH   3   4
HETATM    4  C   UNL     1     -12.065  16.186  72.100  1.00  0.00    -0.512 C  
HETATM    5  O   UNL     1     -12.983  15.485  71.682  1.00  0.00    -0.403 OA 
HETATM    6  N   UNL     1     -10.753  16.182  71.646  1.00  0.00     0.791 N  
HETATM    7  H   UNL     1     -10.114  16.859  72.065  1.00  0.00     0.000 HD 
BRANCH   6   8
HETATM    8  C   UNL     1     -10.226  15.325  70.657  1.00  0.00     0.268 A  
HETATM    9  C   UNL     1      -8.900  15.377  70.238  1.00  0.00     0.807 A  
HETATM   10  C   UNL     1      -8.400  14.450  69.323  1.00  0.00     0.151 A  
HETATM   11  C   UNL     1      -9.214  13.446  68.789  1.00  0.00     0.112 A  
HETATM   12  C   UNL     1     -10.573  13.431  69.141  1.00  0.00    -0.035 A  
HETATM   13  C   UNL     1     -11.066  14.371  70.077  1.00  0.00    -0.125 A  
BRANCH  11  14
HETATM   14  O   UNL     1      -8.733  12.453  67.974  1.00  0.00    -0.170 OA 
BRANCH  14  15
HETATM   15  C   UNL     1      -7.911  11.445  68.586  1.00  0.00    -0.141 C  
BRANCH  15  16
HETATM   16  C   UNL     1      -6.893  10.925  67.562  1.00  0.00    -0.079 C  
HETATM   17  H   UNL     1      -5.690   9.381  67.410  1.00  0.00     0.000 HD 
HETATM   18  O   UNL     1      -6.320   9.703  68.044  1.00  0.00    -0.056 OA 
BRANCH  16  19
HETATM   19  C   UNL     1      -7.520  10.669  66.176  1.00  0.00    -0.138 C  
BRANCH  19  20
HETATM   20  N   UNL     1      -8.850  10.058  66.275  1.00  0.00    -0.142 NA 
HETATM   21  H   UNL     1      -9.273  10.263  67.180  1.00  0.00     0.000 HD 
BRANCH  20  22
HETATM   22  C   UNL     1      -9.755  10.437  65.181  1.00  0.00    -0.291 C  
HETATM   23  C   UNL     1      -9.531   9.602  63.912  1.00  0.00     0.040 C  
HETATM   24  C   UNL     1     -11.191  10.232  65.667  1.00  0.00     0.965 C  
ENDBRANCH  20  22
ENDBRANCH  19  20
ENDBRANCH  16  19
ENDBRANCH  15  16
ENDBRANCH  14  15
ENDBRANCH  11  14
BRANCH  12  25
HETATM   25  C   UNL     1     -11.564  12.434  68.635  1.00  0.00    -0.319 C  
HETATM   26  C   UNL     1     -11.493  10.985  69.037  1.00  0.00    -0.368 C  
HETATM   27  O   UNL     1     -12.424  12.814  67.839  1.00  0.00    -0.042 OA 
ENDBRANCH  12  25
ENDBRANCH   6   8
ENDBRANCH   3   4
ENDBRANCH   2   3
TORSDOF 10
ENDMDL
MODEL      262
REMARK 921   NORMALIZED FREE ENERGY PREDICTED BY IDOCK:   27.76 KCAL/MOL
REMARK 922        TOTAL FREE ENERGY PREDICTED BY IDOCK:   42.96 KCAL/MOL
REMARK 923 INTER-LIGAND FREE ENERGY PREDICTED BY IDOCK:   24.71 KCAL/MOL
REMARK 924 INTRA-LIGAND FREE ENERGY PREDICTED BY IDOCK:   18.25 KCAL/MOL
REMARK 927      BINDING AFFINITY PREDICTED BY RF-SCORE:    0.00 PKD
ROOT
HETATM    1  C   UNL     1     -11.403  12.481  71.233  1.00  0.00     2.702 C  
HETATM    2  C   UNL     1     -11.012  13.426  72.355  1.00  0.00     6.387 C  
ENDROOT
BRANCH   2   3
HETATM    3  C   UNL     1     -10.818  14.846  71.839  1.00  0.00     0.715 C  
BRANCH   3   4
HETATM    4  C   UNL     1     -11.316  14.969  70.417  1.00  0.00    -0.270 C  
HETATM    5  O   UNL     1     -11.910  15.983  70.059  1.00  0.00    -0.318 OA 
HETATM    6  N   UNL     1     -10.983  13.884  69.619  1.00  0.00    -0.455 N  
HETATM    7  H   UNL     1     -10.447  13.132  70.055  1.00  0.00     0.000 HD 
BRANCH   6   8
HETATM    8  C   UNL     1     -11.321  13.727  68.258  1.00  0.00    -0.285 A  
HETATM    9  C   UNL     1     -11.741  12.517  67.716  1.00  0.00    -0.419 A  
HETATM   10  C   UNL     1     -12.152  12.431  66.384  1.00  0.00    -0.215 A  
HETATM   11  C   UNL     1     -12.144  13.552  65.549  1.00  0.00    -0.419 A  
HETATM   12  C   UNL     1     -11.646  14.761  66.060  1.00  0.00    -0.286 A  
HETATM   13  C   UNL     1     -11.241  14.838  67.413  1.00  0.00    -0.346 A  
BRANCH  11  14
HETATM   14  O   UNL     1     -12.642  13.531  64.271  1.00  0.00    -0.629 OA 
BRANCH  14  15
HETATM   15  C   UNL     1     -12.442  14.710  63.472  1.00  0.00     0.764 C  
BRANCH  15  16
HETATM   16  C   UNL     1     -11.279  14.476  62.498  1.00  0.00     6.699 C  
HETATM   17  H   UNL     1      -9.694  15.474  61.910  1.00  0.00     0.000 HD 
HETATM   18  O   UNL     1     -10.414  15.619  62.512  1.00  0.00     7.626 OA 
BRANCH  16  19
HETATM   19  C   UNL     1     -10.452  13.221  62.849  1.00  0.00     3.255 C  
BRANCH  19  20
HETATM   20  N   UNL     1     -10.932  12.566  64.070  1.00  0.00    -0.365 NA 
HETATM   21  H   UNL     1     -11.815  12.976  64.375  1.00  0.00     0.000 HD 
BRANCH  20  22
HETATM   22  C   UNL     1     -11.053  11.107  63.948  1.00  0.00    -0.091 C  
HETATM   23  C   UNL     1     -10.113  10.523  62.884  1.00  0.00     0.034 C  
HETATM   24  C   UNL     1     -10.714  10.492  65.306  1.00  0.00    -0.019 C  
ENDBRANCH  20  22
ENDBRANCH  19  20
ENDBRANCH  16  19
ENDBRANCH  15  16
ENDBRANCH  14  15
ENDBRANCH  11  14
BRANCH  12  25
HETATM   25  C   UNL     1     -11.558  16.033  65.281  1.00  0.00     0.287 C  
HETATM   26  C   UNL     1     -11.318  17.354  65.961  1.00  0.00     1.057 C  
HETATM   27  O   UNL     1     -11.733  15.988  64.062  1.00  0.00    -0.696 OA 
ENDBRANCH  12  25
ENDBRANCH   6   8
ENDBRANCH   3   4
ENDBRANCH   2   3
TORSDOF 10
ENDMDL
