MODEL        1
REMARK 921   NORMALIZED FREE ENERGY PREDICTED BY IDOCK:   -4.67 KCAL/MOL
REMARK 922        TOTAL FREE ENERGY PREDICTED BY IDOCK:   -5.38 KCAL/MOL
REMARK 923 INTER-LIGAND FREE ENERGY PREDICTED BY IDOCK:   -5.21 KCAL/MOL
REMARK 924 INTRA-LIGAND FREE ENERGY PREDICTED BY IDOCK:   -0.17 KCAL/MOL
REMARK 927      BINDING AFFINITY PREDICTED BY RF-SCORE:    0.00 PKD
ROOT
HETATM    1  C   UNL     1     -11.300  14.811  65.479  1.00  0.00    -0.343 C  
HETATM    2  C   UNL     1     -10.983  16.136  64.853  1.00  0.00    -0.349 C  
HETATM    3  O   UNL     1     -11.544  16.574  63.859  1.00  0.00    -1.175 OA 
ENDROOT
BRANCH   2   4
HETATM    4  O   UNL     1      -9.965  16.749  65.514  1.00  0.00    -0.567 OA 
BRANCH   4   5
HETATM    5  C   UNL     1     -10.366  17.662  66.553  1.00  0.00    -0.337 C  
HETATM    6  C   UNL     1     -10.505  19.105  66.000  1.00  0.00    -0.467 C  
HETATM    7  N   UNL     1      -9.488  20.027  66.574  1.00  0.00    -0.395 NA 
HETATM    8  C   UNL     1      -9.694  20.109  68.036  1.00  0.00    -0.334 C  
HETATM    9  C   UNL     1      -9.661  18.719  68.695  1.00  0.00    -0.437 C  
HETATM   10  C   UNL     1      -9.274  17.666  67.645  1.00  0.00    -0.245 C  
HETATM   11  C   UNL     1      -7.942  18.114  67.017  1.00  0.00    -0.239 C  
HETATM   12  C   UNL     1      -8.143  19.464  66.311  1.00  0.00    -0.325 C  
ENDBRANCH   4   5
ENDBRANCH   2   4
TORSDOF 2
ENDMDL
MODEL        2
REMARK 921   NORMALIZED FREE ENERGY PREDICTED BY IDOCK:   -4.60 KCAL/MOL
REMARK 922        TOTAL FREE ENERGY PREDICTED BY IDOCK:   -5.31 KCAL/MOL
REMARK 923 INTER-LIGAND FREE ENERGY PREDICTED BY IDOCK:   -5.20 KCAL/MOL
REMARK 924 INTRA-LIGAND FREE ENERGY PREDICTED BY IDOCK:   -0.11 KCAL/MOL
REMARK 927      BINDING AFFINITY PREDICTED BY RF-SCORE:    0.00 PKD
ROOT
HETATM    1  C   UNL     1      -9.629  17.397  66.292  1.00  0.00    -0.260 C  
HETATM    2  C   UNL     1     -10.540  16.712  65.318  1.00  0.00    -0.205 C  
HETATM    3  O   UNL     1     -11.194  17.295  64.466  1.00  0.00    -1.083 OA 
ENDROOT
BRANCH   2   4
HETATM    4  O   UNL     1     -10.566  15.372  65.547  1.00  0.00    -0.329 OA 
BRANCH   4   5
HETATM    5  C   UNL     1     -11.149  14.578  64.496  1.00  0.00    -0.268 C  
HETATM    6  C   UNL     1     -12.635  14.256  64.802  1.00  0.00    -0.291 C  
HETATM    7  N   UNL     1     -12.859  12.805  65.041  1.00  0.00    -0.821 NA 
HETATM    8  C   UNL     1     -12.505  12.062  63.812  1.00  0.00    -0.485 C  
HETATM    9  C   UNL     1     -11.068  12.365  63.355  1.00  0.00    -0.465 C  
HETATM   10  C   UNL     1     -10.374  13.245  64.408  1.00  0.00    -0.372 C  
HETATM   11  C   UNL     1     -10.482  12.514  65.758  1.00  0.00    -0.296 C  
HETATM   12  C   UNL     1     -11.964  12.368  66.138  1.00  0.00    -0.327 C  
ENDBRANCH   4   5
ENDBRANCH   2   4
TORSDOF 2
ENDMDL
MODEL        3
REMARK 921   NORMALIZED FREE ENERGY PREDICTED BY IDOCK:   -4.54 KCAL/MOL
REMARK 922        TOTAL FREE ENERGY PREDICTED BY IDOCK:   -5.24 KCAL/MOL
REMARK 923 INTER-LIGAND FREE ENERGY PREDICTED BY IDOCK:   -5.04 KCAL/MOL
REMARK 924 INTRA-LIGAND FREE ENERGY PREDICTED BY IDOCK:   -0.19 KCAL/MOL
REMARK 927      BINDING AFFINITY PREDICTED BY RF-SCORE:    0.00 PKD
ROOT
HETATM    1  C   UNL     1     -10.298  14.996  65.415  1.00  0.00    -0.410 C  
HETATM    2  C   UNL     1     -10.803  16.397  65.252  1.00  0.00    -0.258 C  
HETATM    3  O   UNL     1     -11.304  16.829  64.224  1.00  0.00    -1.170 OA 
ENDROOT
BRANCH   2   4
HETATM    4  O   UNL     1     -10.586  17.121  66.383  1.00  0.00    -0.274 OA 
BRANCH   4   5
HETATM    5  C   UNL     1      -9.299  17.762  66.467  1.00  0.00    -0.279 C  
HETATM    6  C   UNL     1      -8.655  17.534  67.860  1.00  0.00    -0.239 C  
HETATM    7  N   UNL     1      -8.534  18.797  68.637  1.00  0.00    -0.342 NA 
HETATM    8  C   UNL     1      -7.645  19.723  67.902  1.00  0.00    -0.296 C  
HETATM    9  C   UNL     1      -8.137  19.965  66.465  1.00  0.00    -0.357 C  
HETATM   10  C   UNL     1      -9.499  19.281  66.271  1.00  0.00    -0.387 C  
HETATM   11  C   UNL     1     -10.438  19.807  67.371  1.00  0.00    -0.577 C  
HETATM   12  C   UNL     1      -9.878  19.410  68.746  1.00  0.00    -0.456 C  
ENDBRANCH   4   5
ENDBRANCH   2   4
TORSDOF 2
ENDMDL
MODEL        4
REMARK 921   NORMALIZED FREE ENERGY PREDICTED BY IDOCK:   -4.48 KCAL/MOL
REMARK 922        TOTAL FREE ENERGY PREDICTED BY IDOCK:   -5.17 KCAL/MOL
REMARK 923 INTER-LIGAND FREE ENERGY PREDICTED BY IDOCK:   -4.94 KCAL/MOL
REMARK 924 INTRA-LIGAND FREE ENERGY PREDICTED BY IDOCK:   -0.23 KCAL/MOL
REMARK 927      BINDING AFFINITY PREDICTED BY RF-SCORE:    0.00 PKD
ROOT
HETATM    1  C   UNL     1     -10.192  10.270  67.596  1.00  0.00    -0.247 C  
HETATM    2  C   UNL     1     -11.437  11.103  67.655  1.00  0.00    -0.250 C  
HETATM    3  O   UNL     1     -12.109  11.258  68.664  1.00  0.00    -0.543 OA 
ENDROOT
BRANCH   2   4
HETATM    4  O   UNL     1     -11.730  11.616  66.430  1.00  0.00    -0.472 OA 
BRANCH   4   5
HETATM    5  C   UNL     1     -11.575  13.043  66.307  1.00  0.00    -0.360 C  
HETATM    6  C   UNL     1     -12.828  13.683  65.652  1.00  0.00    -0.371 C  
HETATM    7  N   UNL     1     -12.530  14.256  64.312  1.00  0.00    -0.692 NA 
HETATM    8  C   UNL     1     -11.533  15.337  64.470  1.00  0.00    -0.315 C  
HETATM    9  C   UNL     1     -10.265  14.842  65.188  1.00  0.00    -0.409 C  
HETATM   10  C   UNL     1     -10.359  13.323  65.397  1.00  0.00    -0.316 C  
HETATM   11  C   UNL     1     -10.609  12.685  64.019  1.00  0.00    -0.457 C  
HETATM   12  C   UNL     1     -11.951  13.189  63.464  1.00  0.00    -0.513 C  
ENDBRANCH   4   5
ENDBRANCH   2   4
TORSDOF 2
ENDMDL
MODEL        5
REMARK 921   NORMALIZED FREE ENERGY PREDICTED BY IDOCK:   -4.37 KCAL/MOL
REMARK 922        TOTAL FREE ENERGY PREDICTED BY IDOCK:   -5.05 KCAL/MOL
REMARK 923 INTER-LIGAND FREE ENERGY PREDICTED BY IDOCK:   -4.81 KCAL/MOL
REMARK 924 INTRA-LIGAND FREE ENERGY PREDICTED BY IDOCK:   -0.24 KCAL/MOL
REMARK 927      BINDING AFFINITY PREDICTED BY RF-SCORE:    0.00 PKD
ROOT
HETATM    1  C   UNL     1     -10.421  17.209  65.906  1.00  0.00    -0.265 C  
HETATM    2  C   UNL     1     -10.936  16.287  64.842  1.00  0.00    -0.307 C  
HETATM    3  O   UNL     1     -11.652  16.642  63.917  1.00  0.00    -1.204 OA 
ENDROOT
BRANCH   2   4
HETATM    4  O   UNL     1     -10.534  15.009  65.078  1.00  0.00    -0.388 OA 
BRANCH   4   5
HETATM    5  C   UNL     1     -10.554  14.601  66.459  1.00  0.00    -0.300 C  
HETATM    6  C   UNL     1      -9.525  13.470  66.718  1.00  0.00    -0.269 C  
HETATM    7  N   UNL     1     -10.182  12.183  67.075  1.00  0.00    -0.207 NA 
HETATM    8  C   UNL     1     -10.938  12.369  68.332  1.00  0.00    -0.241 C  
HETATM    9  C   UNL     1     -11.942  13.529  68.227  1.00  0.00    -0.377 C  
HETATM   10  C   UNL     1     -11.962  14.056  66.784  1.00  0.00    -0.473 C  
HETATM   11  C   UNL     1     -12.260  12.860  65.863  1.00  0.00    -0.469 C  
HETATM   12  C   UNL     1     -11.130  11.827  65.994  1.00  0.00    -0.312 C  
ENDBRANCH   4   5
ENDBRANCH   2   4
TORSDOF 2
ENDMDL
MODEL        6
REMARK 921   NORMALIZED FREE ENERGY PREDICTED BY IDOCK:   -4.33 KCAL/MOL
REMARK 922        TOTAL FREE ENERGY PREDICTED BY IDOCK:   -5.01 KCAL/MOL
REMARK 923 INTER-LIGAND FREE ENERGY PREDICTED BY IDOCK:   -4.84 KCAL/MOL
REMARK 924 INTRA-LIGAND FREE ENERGY PREDICTED BY IDOCK:   -0.17 KCAL/MOL
REMARK 927      BINDING AFFINITY PREDICTED BY RF-SCORE:    0.00 PKD
ROOT
HETATM    1  C   UNL     1     -10.147  18.367  66.634  1.00  0.00    -0.399 C  
HETATM    2  C   UNL     1      -9.470  17.095  66.221  1.00  0.00    -0.243 C  
HETATM    3  O   UNL     1      -8.313  17.031  65.832  1.00  0.00    -0.515 OA 
ENDROOT
BRANCH   2   4
HETATM    4  O   UNL     1     -10.331  16.045  66.298  1.00  0.00    -0.296 OA 
BRANCH   4   5
HETATM    5  C   UNL     1     -10.446  15.252  65.102  1.00  0.00    -0.411 C  
HETATM    6  C   UNL     1     -11.831  15.453  64.433  1.00  0.00    -0.256 C  
HETATM    7  N   UNL     1     -12.658  14.216  64.471  1.00  0.00    -0.675 NA 
HETATM    8  C   UNL     1     -11.964  13.158  63.705  1.00  0.00    -0.514 C  
HETATM    9  C   UNL     1     -10.535  12.923  64.224  1.00  0.00    -0.430 C  
HETATM   10  C   UNL     1     -10.308  13.764  65.490  1.00  0.00    -0.333 C  
HETATM   11  C   UNL     1     -11.424  13.402  66.487  1.00  0.00    -0.372 C  
HETATM   12  C   UNL     1     -12.785  13.781  65.881  1.00  0.00    -0.401 C  
ENDBRANCH   4   5
ENDBRANCH   2   4
TORSDOF 2
ENDMDL
MODEL        7
REMARK 921   NORMALIZED FREE ENERGY PREDICTED BY IDOCK:   -4.26 KCAL/MOL
REMARK 922        TOTAL FREE ENERGY PREDICTED BY IDOCK:   -4.92 KCAL/MOL
REMARK 923 INTER-LIGAND FREE ENERGY PREDICTED BY IDOCK:   -4.71 KCAL/MOL
REMARK 924 INTRA-LIGAND FREE ENERGY PREDICTED BY IDOCK:   -0.21 KCAL/MOL
REMARK 927      BINDING AFFINITY PREDICTED BY RF-SCORE:    0.00 PKD
ROOT
HETATM    1  C   UNL     1     -12.252  12.061  63.388  1.00  0.00    -0.627 C  
HETATM    2  C   UNL     1     -12.121  13.398  64.053  1.00  0.00    -0.449 C  
HETATM    3  O   UNL     1     -12.656  14.420  63.646  1.00  0.00    -0.817 OA 
ENDROOT
BRANCH   2   4
HETATM    4  O   UNL     1     -11.297  13.320  65.132  1.00  0.00    -0.292 OA 
BRANCH   4   5
HETATM    5  C   UNL     1     -11.931  12.924  66.364  1.00  0.00    -0.395 C  
HETATM    6  C   UNL     1     -11.931  14.090  67.387  1.00  0.00    -0.404 C  
HETATM    7  N   UNL     1     -11.076  13.800  68.570  1.00  0.00    -0.255 NA 
HETATM    8  C   UNL     1     -11.622  12.617  69.270  1.00  0.00    -0.318 C  
HETATM    9  C   UNL     1     -11.751  11.406  68.330  1.00  0.00    -0.373 C  
HETATM   10  C   UNL     1     -11.128  11.751  66.968  1.00  0.00    -0.358 C  
HETATM   11  C   UNL     1      -9.684  12.216  67.228  1.00  0.00    -0.193 C  
HETATM   12  C   UNL     1      -9.709  13.485  68.094  1.00  0.00    -0.233 C  
ENDBRANCH   4   5
ENDBRANCH   2   4
TORSDOF 2
ENDMDL
MODEL        8
REMARK 921   NORMALIZED FREE ENERGY PREDICTED BY IDOCK:   -4.24 KCAL/MOL
REMARK 922        TOTAL FREE ENERGY PREDICTED BY IDOCK:   -4.90 KCAL/MOL
REMARK 923 INTER-LIGAND FREE ENERGY PREDICTED BY IDOCK:   -4.79 KCAL/MOL
REMARK 924 INTRA-LIGAND FREE ENERGY PREDICTED BY IDOCK:   -0.12 KCAL/MOL
REMARK 927      BINDING AFFINITY PREDICTED BY RF-SCORE:    0.00 PKD
ROOT
HETATM    1  C   UNL     1     -11.323  11.972  63.563  1.00  0.00    -0.528 C  
HETATM    2  C   UNL     1     -11.679  13.384  63.920  1.00  0.00    -0.404 C  
HETATM    3  O   UNL     1     -12.652  13.977  63.476  1.00  0.00    -0.842 OA 
ENDROOT
BRANCH   2   4
HETATM    4  O   UNL     1     -10.753  13.915  64.762  1.00  0.00    -0.382 OA 
BRANCH   4   5
HETATM    5  C   UNL     1     -11.241  14.937  65.651  1.00  0.00    -0.347 C  
HETATM    6  C   UNL     1     -10.881  16.351  65.123  1.00  0.00    -0.275 C  
HETATM    7  N   UNL     1      -9.912  17.052  66.009  1.00  0.00    -0.461 NA 
HETATM    8  C   UNL     1     -10.534  17.238  67.337  1.00  0.00    -0.338 C  
HETATM    9  C   UNL     1     -11.013  15.904  67.935  1.00  0.00    -0.327 C  
HETATM   10  C   UNL     1     -10.565  14.749  67.027  1.00  0.00    -0.290 C  
HETATM   11  C   UNL     1      -9.040  14.867  66.854  1.00  0.00    -0.271 C  
HETATM   12  C   UNL     1      -8.711  16.197  66.157  1.00  0.00    -0.323 C  
ENDBRANCH   4   5
ENDBRANCH   2   4
TORSDOF 2
ENDMDL
MODEL        9
REMARK 921   NORMALIZED FREE ENERGY PREDICTED BY IDOCK:   -4.23 KCAL/MOL
REMARK 922        TOTAL FREE ENERGY PREDICTED BY IDOCK:   -4.90 KCAL/MOL
REMARK 923 INTER-LIGAND FREE ENERGY PREDICTED BY IDOCK:   -4.66 KCAL/MOL
REMARK 924 INTRA-LIGAND FREE ENERGY PREDICTED BY IDOCK:   -0.24 KCAL/MOL
REMARK 927      BINDING AFFINITY PREDICTED BY RF-SCORE:    0.00 PKD
ROOT
HETATM    1  C   UNL     1     -12.391  12.082  63.571  1.00  0.00    -0.661 C  
HETATM    2  C   UNL     1     -12.068  13.490  63.970  1.00  0.00    -0.441 C  
HETATM    3  O   UNL     1     -12.713  14.466  63.617  1.00  0.00    -0.773 OA 
ENDROOT
BRANCH   2   4
HETATM    4  O   UNL     1     -10.943  13.527  64.734  1.00  0.00    -0.334 OA 
BRANCH   4   5
HETATM    5  C   UNL     1     -11.012  14.378  65.893  1.00  0.00    -0.312 C  
HETATM    6  C   UNL     1      -9.605  14.588  66.513  1.00  0.00    -0.293 C  
HETATM    7  N   UNL     1      -9.488  13.970  67.862  1.00  0.00    -0.203 NA 
HETATM    8  C   UNL     1     -10.456  14.625  68.769  1.00  0.00    -0.246 C  
HETATM    9  C   UNL     1     -11.890  14.557  68.217  1.00  0.00    -0.347 C  
HETATM   10  C   UNL     1     -11.907  13.691  66.948  1.00  0.00    -0.451 C  
HETATM   11  C   UNL     1     -11.291  12.329  67.314  1.00  0.00    -0.392 C  
HETATM   12  C   UNL     1      -9.832  12.534  67.751  1.00  0.00    -0.204 C  
ENDBRANCH   4   5
ENDBRANCH   2   4
TORSDOF 2
ENDMDL
MODEL       10
REMARK 921   NORMALIZED FREE ENERGY PREDICTED BY IDOCK:   -4.20 KCAL/MOL
REMARK 922        TOTAL FREE ENERGY PREDICTED BY IDOCK:   -4.86 KCAL/MOL
REMARK 923 INTER-LIGAND FREE ENERGY PREDICTED BY IDOCK:   -4.63 KCAL/MOL
REMARK 924 INTRA-LIGAND FREE ENERGY PREDICTED BY IDOCK:   -0.23 KCAL/MOL
REMARK 927      BINDING AFFINITY PREDICTED BY RF-SCORE:    0.00 PKD
ROOT
HETATM    1  C   UNL     1      -9.797  17.123  66.066  1.00  0.00    -0.239 C  
HETATM    2  C   UNL     1     -10.823  16.330  65.314  1.00  0.00    -0.297 C  
HETATM    3  O   UNL     1     -11.216  16.610  64.190  1.00  0.00    -1.103 OA 
ENDROOT
BRANCH   2   4
HETATM    4  O   UNL     1     -11.280  15.296  66.070  1.00  0.00    -0.321 OA 
BRANCH   4   5
HETATM    5  C   UNL     1     -10.873  13.985  65.632  1.00  0.00    -0.295 C  
HETATM    6  C   UNL     1     -12.080  13.011  65.600  1.00  0.00    -0.454 C  
HETATM    7  N   UNL     1     -11.952  11.926  66.611  1.00  0.00    -0.564 NA 
HETATM    8  C   UNL     1     -10.749  11.125  66.297  1.00  0.00    -0.240 C  
HETATM    9  C   UNL     1      -9.486  12.001  66.217  1.00  0.00    -0.237 C  
HETATM   10  C   UNL     1      -9.836  13.437  66.636  1.00  0.00    -0.278 C  
HETATM   11  C   UNL     1     -10.482  13.364  68.031  1.00  0.00    -0.243 C  
HETATM   12  C   UNL     1     -11.780  12.547  67.945  1.00  0.00    -0.359 C  
ENDBRANCH   4   5
ENDBRANCH   2   4
TORSDOF 2
ENDMDL
MODEL       11
REMARK 921   NORMALIZED FREE ENERGY PREDICTED BY IDOCK:   -4.19 KCAL/MOL
REMARK 922        TOTAL FREE ENERGY PREDICTED BY IDOCK:   -4.85 KCAL/MOL
REMARK 923 INTER-LIGAND FREE ENERGY PREDICTED BY IDOCK:   -4.66 KCAL/MOL
REMARK 924 INTRA-LIGAND FREE ENERGY PREDICTED BY IDOCK:   -0.19 KCAL/MOL
REMARK 927      BINDING AFFINITY PREDICTED BY RF-SCORE:    0.00 PKD
ROOT
HETATM    1  C   UNL     1      -7.696  15.111  67.245  1.00  0.00    -0.241 C  
HETATM    2  C   UNL     1      -8.774  15.694  66.381  1.00  0.00    -0.318 C  
HETATM    3  O   UNL     1      -8.714  16.801  65.866  1.00  0.00    -0.504 OA 
ENDROOT
BRANCH   2   4
HETATM    4  O   UNL     1      -9.830  14.842  66.291  1.00  0.00    -0.265 OA 
BRANCH   4   5
HETATM    5  C   UNL     1     -10.149  14.393  64.960  1.00  0.00    -0.286 C  
HETATM    6  C   UNL     1     -11.480  15.021  64.467  1.00  0.00    -0.318 C  
HETATM    7  N   UNL     1     -12.551  14.003  64.293  1.00  0.00    -0.685 NA 
HETATM    8  C   UNL     1     -12.124  13.039  63.256  1.00  0.00    -0.422 C  
HETATM    9  C   UNL     1     -10.764  12.405  63.592  1.00  0.00    -0.497 C  
HETATM   10  C   UNL     1     -10.323  12.859  64.992  1.00  0.00    -0.334 C  
HETATM   11  C   UNL     1     -11.458  12.505  65.969  1.00  0.00    -0.423 C  
HETATM   12  C   UNL     1     -12.725  13.282  65.575  1.00  0.00    -0.367 C  
ENDBRANCH   4   5
ENDBRANCH   2   4
TORSDOF 2
ENDMDL
MODEL       12
REMARK 921   NORMALIZED FREE ENERGY PREDICTED BY IDOCK:   -4.17 KCAL/MOL
REMARK 922        TOTAL FREE ENERGY PREDICTED BY IDOCK:   -4.83 KCAL/MOL
REMARK 923 INTER-LIGAND FREE ENERGY PREDICTED BY IDOCK:   -4.66 KCAL/MOL
REMARK 924 INTRA-LIGAND FREE ENERGY PREDICTED BY IDOCK:   -0.17 KCAL/MOL
REMARK 927      BINDING AFFINITY PREDICTED BY RF-SCORE:    0.00 PKD
ROOT
HETATM    1  C   UNL     1     -10.289  16.096  65.985  1.00  0.00    -0.372 C  
HETATM    2  C   UNL     1     -11.124  16.086  64.740  1.00  0.00    -0.365 C  
HETATM    3  O   UNL     1     -11.389  17.085  64.087  1.00  0.00    -1.164 OA 
ENDROOT
BRANCH   2   4
HETATM    4  O   UNL     1     -11.572  14.831  64.472  1.00  0.00    -0.395 OA 
BRANCH   4   5
HETATM    5  C   UNL     1     -10.889  13.770  65.166  1.00  0.00    -0.345 C  
HETATM    6  C   UNL     1      -9.933  13.008  64.211  1.00  0.00    -0.058 C  
HETATM    7  N   UNL     1     -10.370  11.604  63.981  1.00  0.00    -0.320 NA 
HETATM    8  C   UNL     1     -10.348  10.883  65.273  1.00  0.00    -0.268 C  
HETATM    9  C   UNL     1     -11.200  11.594  66.338  1.00  0.00    -0.349 C  
HETATM   10  C   UNL     1     -11.945  12.772  65.690  1.00  0.00    -0.503 C  
HETATM   11  C   UNL     1     -12.739  12.213  64.496  1.00  0.00    -0.245 C  
HETATM   12  C   UNL     1     -11.759  11.624  63.469  1.00  0.00    -0.279 C  
ENDBRANCH   4   5
ENDBRANCH   2   4
TORSDOF 2
ENDMDL
MODEL       13
REMARK 921   NORMALIZED FREE ENERGY PREDICTED BY IDOCK:   -4.16 KCAL/MOL
REMARK 922        TOTAL FREE ENERGY PREDICTED BY IDOCK:   -4.81 KCAL/MOL
REMARK 923 INTER-LIGAND FREE ENERGY PREDICTED BY IDOCK:   -4.66 KCAL/MOL
REMARK 924 INTRA-LIGAND FREE ENERGY PREDICTED BY IDOCK:   -0.16 KCAL/MOL
REMARK 927      BINDING AFFINITY PREDICTED BY RF-SCORE:    0.00 PKD
ROOT
HETATM    1  C   UNL     1     -11.673  15.060  69.702  1.00  0.00    -0.353 C  
HETATM    2  C   UNL     1     -11.396  15.728  68.389  1.00  0.00    -0.372 C  
HETATM    3  O   UNL     1     -11.564  15.194  67.302  1.00  0.00    -0.323 OA 
ENDROOT
BRANCH   2   4
HETATM    4  O   UNL     1     -10.898  16.978  68.582  1.00  0.00    -0.338 OA 
BRANCH   4   5
HETATM    5  C   UNL     1     -10.419  17.641  67.396  1.00  0.00    -0.356 C  
HETATM    6  C   UNL     1      -8.881  17.488  67.257  1.00  0.00    -0.231 C  
HETATM    7  N   UNL     1      -8.172  18.788  67.400  1.00  0.00    -0.261 NA 
HETATM    8  C   UNL     1      -8.611  19.690  66.313  1.00  0.00    -0.366 C  
HETATM    9  C   UNL     1     -10.141  19.857  66.293  1.00  0.00    -0.613 C  
HETATM   10  C   UNL     1     -10.746  19.145  67.514  1.00  0.00    -0.555 C  
HETATM   11  C   UNL     1     -10.052  19.711  68.765  1.00  0.00    -0.532 C  
HETATM   12  C   UNL     1      -8.551  19.387  68.701  1.00  0.00    -0.358 C  
ENDBRANCH   4   5
ENDBRANCH   2   4
TORSDOF 2
ENDMDL
MODEL       14
REMARK 921   NORMALIZED FREE ENERGY PREDICTED BY IDOCK:   -4.15 KCAL/MOL
REMARK 922        TOTAL FREE ENERGY PREDICTED BY IDOCK:   -4.81 KCAL/MOL
REMARK 923 INTER-LIGAND FREE ENERGY PREDICTED BY IDOCK:   -4.59 KCAL/MOL
REMARK 924 INTRA-LIGAND FREE ENERGY PREDICTED BY IDOCK:   -0.22 KCAL/MOL
REMARK 927      BINDING AFFINITY PREDICTED BY RF-SCORE:    0.00 PKD
ROOT
HETATM    1  C   UNL     1      -5.765  20.808  65.901  1.00  0.00    -0.256 C  
HETATM    2  C   UNL     1      -6.565  19.823  65.103  1.00  0.00    -0.280 C  
HETATM    3  O   UNL     1      -6.082  19.052  64.286  1.00  0.00    -0.462 OA 
ENDROOT
BRANCH   2   4
HETATM    4  O   UNL     1      -7.890  19.940  65.383  1.00  0.00    -0.335 OA 
BRANCH   4   5
HETATM    5  C   UNL     1      -8.262  19.640  66.742  1.00  0.00    -0.304 C  
HETATM    6  C   UNL     1      -8.260  18.109  66.993  1.00  0.00    -0.235 C  
HETATM    7  N   UNL     1      -9.625  17.581  67.261  1.00  0.00    -0.267 NA 
HETATM    8  C   UNL     1     -10.144  18.215  68.492  1.00  0.00    -0.400 C  
HETATM    9  C   UNL     1     -10.119  19.750  68.398  1.00  0.00    -0.568 C  
HETATM   10  C   UNL     1      -9.694  20.166  66.981  1.00  0.00    -0.574 C  
HETATM   11  C   UNL     1     -10.652  19.475  65.994  1.00  0.00    -0.589 C  
HETATM   12  C   UNL     1     -10.501  17.951  66.125  1.00  0.00    -0.321 C  
ENDBRANCH   4   5
ENDBRANCH   2   4
TORSDOF 2
ENDMDL
MODEL       15
REMARK 921   NORMALIZED FREE ENERGY PREDICTED BY IDOCK:   -4.15 KCAL/MOL
REMARK 922        TOTAL FREE ENERGY PREDICTED BY IDOCK:   -4.81 KCAL/MOL
REMARK 923 INTER-LIGAND FREE ENERGY PREDICTED BY IDOCK:   -4.61 KCAL/MOL
REMARK 924 INTRA-LIGAND FREE ENERGY PREDICTED BY IDOCK:   -0.20 KCAL/MOL
REMARK 927      BINDING AFFINITY PREDICTED BY RF-SCORE:    0.00 PKD
ROOT
HETATM    1  C   UNL     1     -11.940  11.852  63.340  1.00  0.00    -0.528 C  
HETATM    2  C   UNL     1     -12.454  13.019  64.129  1.00  0.00    -0.300 C  
HETATM    3  O   UNL     1     -12.719  14.109  63.644  1.00  0.00    -0.790 OA 
ENDROOT
BRANCH   2   4
HETATM    4  O   UNL     1     -12.541  12.705  65.449  1.00  0.00    -0.641 OA 
BRANCH   4   5
HETATM    5  C   UNL     1     -11.286  12.433  66.102  1.00  0.00    -0.352 C  
HETATM    6  C   UNL     1     -11.514  11.885  67.536  1.00  0.00    -0.326 C  
HETATM    7  N   UNL     1     -11.031  12.828  68.581  1.00  0.00    -0.251 NA 
HETATM    8  C   UNL     1      -9.573  13.009  68.419  1.00  0.00    -0.178 C  
HETATM    9  C   UNL     1      -9.209  13.475  66.999  1.00  0.00    -0.248 C  
HETATM   10  C   UNL     1     -10.498  13.756  66.210  1.00  0.00    -0.291 C  
HETATM   11  C   UNL     1     -11.324  14.765  67.028  1.00  0.00    -0.358 C  
HETATM   12  C   UNL     1     -11.701  14.134  68.378  1.00  0.00    -0.345 C  
ENDBRANCH   4   5
ENDBRANCH   2   4
TORSDOF 2
ENDMDL
MODEL       16
REMARK 921   NORMALIZED FREE ENERGY PREDICTED BY IDOCK:   -4.11 KCAL/MOL
REMARK 922        TOTAL FREE ENERGY PREDICTED BY IDOCK:   -4.77 KCAL/MOL
REMARK 923 INTER-LIGAND FREE ENERGY PREDICTED BY IDOCK:   -4.54 KCAL/MOL
REMARK 924 INTRA-LIGAND FREE ENERGY PREDICTED BY IDOCK:   -0.22 KCAL/MOL
REMARK 927      BINDING AFFINITY PREDICTED BY RF-SCORE:    0.00 PKD
ROOT
HETATM    1  C   UNL     1     -11.175  11.978  63.790  1.00  0.00    -0.516 C  
HETATM    2  C   UNL     1     -11.670  13.389  63.891  1.00  0.00    -0.404 C  
HETATM    3  O   UNL     1     -12.659  13.811  63.308  1.00  0.00    -0.830 OA 
ENDROOT
BRANCH   2   4
HETATM    4  O   UNL     1     -10.847  14.132  64.678  1.00  0.00    -0.403 OA 
BRANCH   4   5
HETATM    5  C   UNL     1     -10.711  13.670  66.036  1.00  0.00    -0.280 C  
HETATM    6  C   UNL     1     -11.851  14.227  66.928  1.00  0.00    -0.433 C  
HETATM    7  N   UNL     1     -11.347  15.175  67.959  1.00  0.00    -0.326 NA 
HETATM    8  C   UNL     1     -10.419  14.451  68.854  1.00  0.00    -0.245 C  
HETATM    9  C   UNL     1      -9.279  13.778  68.071  1.00  0.00    -0.195 C  
HETATM   10  C   UNL     1      -9.366  14.187  66.592  1.00  0.00    -0.299 C  
HETATM   11  C   UNL     1      -9.363  15.726  66.541  1.00  0.00    -0.312 C  
HETATM   12  C   UNL     1     -10.604  16.259  67.274  1.00  0.00    -0.298 C  
ENDBRANCH   4   5
ENDBRANCH   2   4
TORSDOF 2
ENDMDL
MODEL       17
REMARK 921   NORMALIZED FREE ENERGY PREDICTED BY IDOCK:   -4.07 KCAL/MOL
REMARK 922        TOTAL FREE ENERGY PREDICTED BY IDOCK:   -4.71 KCAL/MOL
REMARK 923 INTER-LIGAND FREE ENERGY PREDICTED BY IDOCK:   -4.51 KCAL/MOL
REMARK 924 INTRA-LIGAND FREE ENERGY PREDICTED BY IDOCK:   -0.20 KCAL/MOL
REMARK 927      BINDING AFFINITY PREDICTED BY RF-SCORE:    0.00 PKD
ROOT
HETATM    1  C   UNL     1     -12.085  14.024  69.972  1.00  0.00    -0.412 C  
HETATM    2  C   UNL     1     -11.575  15.165  69.145  1.00  0.00    -0.323 C  
HETATM    3  O   UNL     1     -11.012  16.147  69.607  1.00  0.00    -0.299 OA 
ENDROOT
BRANCH   2   4
HETATM    4  O   UNL     1     -11.864  14.972  67.830  1.00  0.00    -0.336 OA 
BRANCH   4   5
HETATM    5  C   UNL     1     -11.072  13.970  67.164  1.00  0.00    -0.303 C  
HETATM    6  C   UNL     1     -10.145  14.613  66.099  1.00  0.00    -0.300 C  
HETATM    7  N   UNL     1     -10.516  14.211  64.715  1.00  0.00    -0.433 NA 
HETATM    8  C   UNL     1     -10.359  12.746  64.590  1.00  0.00    -0.338 C  
HETATM    9  C   UNL     1     -11.172  11.991  65.656  1.00  0.00    -0.377 C  
HETATM   10  C   UNL     1     -12.028  12.993  66.446  1.00  0.00    -0.466 C  
HETATM   11  C   UNL     1     -12.872  13.779  65.427  1.00  0.00    -0.455 C  
HETATM   12  C   UNL     1     -11.937  14.561  64.491  1.00  0.00    -0.468 C  
ENDBRANCH   4   5
ENDBRANCH   2   4
TORSDOF 2
ENDMDL
MODEL       18
REMARK 921   NORMALIZED FREE ENERGY PREDICTED BY IDOCK:   -4.06 KCAL/MOL
REMARK 922        TOTAL FREE ENERGY PREDICTED BY IDOCK:   -4.70 KCAL/MOL
REMARK 923 INTER-LIGAND FREE ENERGY PREDICTED BY IDOCK:   -4.49 KCAL/MOL
REMARK 924 INTRA-LIGAND FREE ENERGY PREDICTED BY IDOCK:   -0.22 KCAL/MOL
REMARK 927      BINDING AFFINITY PREDICTED BY RF-SCORE:    0.00 PKD
ROOT
HETATM    1  C   UNL     1     -11.994  13.157  69.766  1.00  0.00    -0.382 C  
HETATM    2  C   UNL     1     -11.824  12.172  68.650  1.00  0.00    -0.306 C  
HETATM    3  O   UNL     1     -12.140  10.993  68.723  1.00  0.00    -0.518 OA 
ENDROOT
BRANCH   2   4
HETATM    4  O   UNL     1     -11.234  12.760  67.575  1.00  0.00    -0.261 OA 
BRANCH   4   5
HETATM    5  C   UNL     1     -11.456  12.104  66.313  1.00  0.00    -0.374 C  
HETATM    6  C   UNL     1     -10.163  12.097  65.455  1.00  0.00    -0.265 C  
HETATM    7  N   UNL     1     -10.297  12.930  64.229  1.00  0.00    -0.394 NA 
HETATM    8  C   UNL     1     -11.372  12.362  63.386  1.00  0.00    -0.433 C  
HETATM    9  C   UNL     1     -12.697  12.238  64.157  1.00  0.00    -0.431 C  
HETATM   10  C   UNL     1     -12.542  12.886  65.542  1.00  0.00    -0.359 C  
HETATM   11  C   UNL     1     -12.056  14.330  65.322  1.00  0.00    -0.400 C  
HETATM   12  C   UNL     1     -10.682  14.302  64.635  1.00  0.00    -0.365 C  
ENDBRANCH   4   5
ENDBRANCH   2   4
TORSDOF 2
ENDMDL
MODEL       19
REMARK 921   NORMALIZED FREE ENERGY PREDICTED BY IDOCK:   -4.03 KCAL/MOL
REMARK 922        TOTAL FREE ENERGY PREDICTED BY IDOCK:   -4.67 KCAL/MOL
REMARK 923 INTER-LIGAND FREE ENERGY PREDICTED BY IDOCK:   -4.44 KCAL/MOL
REMARK 924 INTRA-LIGAND FREE ENERGY PREDICTED BY IDOCK:   -0.23 KCAL/MOL
REMARK 927      BINDING AFFINITY PREDICTED BY RF-SCORE:    0.00 PKD
ROOT
HETATM    1  C   UNL     1     -12.174  14.167  64.250  1.00  0.00    -0.449 C  
HETATM    2  C   UNL     1     -11.464  15.468  64.473  1.00  0.00    -0.308 C  
HETATM    3  O   UNL     1     -11.769  16.517  63.924  1.00  0.00    -1.148 OA 
ENDROOT
BRANCH   2   4
HETATM    4  O   UNL     1     -10.420  15.305  65.329  1.00  0.00    -0.358 OA 
BRANCH   4   5
HETATM    5  C   UNL     1     -10.039  16.481  66.069  1.00  0.00    -0.348 C  
HETATM    6  C   UNL     1      -8.501  16.537  66.268  1.00  0.00    -0.328 C  
HETATM    7  N   UNL     1      -8.114  16.389  67.697  1.00  0.00    -0.154 NA 
HETATM    8  C   UNL     1      -8.686  17.518  68.462  1.00  0.00    -0.282 C  
HETATM    9  C   UNL     1     -10.209  17.620  68.277  1.00  0.00    -0.374 C  
HETATM   10  C   UNL     1     -10.704  16.416  67.461  1.00  0.00    -0.298 C  
HETATM   11  C   UNL     1     -10.226  15.144  68.184  1.00  0.00    -0.227 C  
HETATM   12  C   UNL     1      -8.690  15.124  68.210  1.00  0.00    -0.171 C  
ENDBRANCH   4   5
ENDBRANCH   2   4
TORSDOF 2
ENDMDL
MODEL       20
REMARK 921   NORMALIZED FREE ENERGY PREDICTED BY IDOCK:   -4.03 KCAL/MOL
REMARK 922        TOTAL FREE ENERGY PREDICTED BY IDOCK:   -4.67 KCAL/MOL
REMARK 923 INTER-LIGAND FREE ENERGY PREDICTED BY IDOCK:   -4.46 KCAL/MOL
REMARK 924 INTRA-LIGAND FREE ENERGY PREDICTED BY IDOCK:   -0.21 KCAL/MOL
REMARK 927      BINDING AFFINITY PREDICTED BY RF-SCORE:    0.00 PKD
ROOT
HETATM    1  C   UNL     1     -11.727  11.724  66.708  1.00  0.00    -0.197 C  
HETATM    2  C   UNL     1     -12.043  12.742  65.654  1.00  0.00    -0.459 C  
HETATM    3  O   UNL     1     -13.054  12.725  64.967  1.00  0.00    -0.811 OA 
ENDROOT
BRANCH   2   4
HETATM    4  O   UNL     1     -11.036  13.649  65.546  1.00  0.00    -0.287 OA 
BRANCH   4   5
HETATM    5  C   UNL     1     -11.324  14.958  66.075  1.00  0.00    -0.306 C  
HETATM    6  C   UNL     1     -10.750  16.067  65.155  1.00  0.00    -0.409 C  
HETATM    7  N   UNL     1      -9.654  16.831  65.812  1.00  0.00    -0.537 NA 
HETATM    8  C   UNL     1     -10.200  17.508  67.009  1.00  0.00    -0.327 C  
HETATM    9  C   UNL     1     -10.877  16.513  67.968  1.00  0.00    -0.337 C  
HETATM   10  C   UNL     1     -10.651  15.081  67.459  1.00  0.00    -0.265 C  
HETATM   11  C   UNL     1      -9.133  14.887  67.295  1.00  0.00    -0.211 C  
HETATM   12  C   UNL     1      -8.608  15.873  66.240  1.00  0.00    -0.313 C  
ENDBRANCH   4   5
ENDBRANCH   2   4
TORSDOF 2
ENDMDL
MODEL       21
REMARK 921   NORMALIZED FREE ENERGY PREDICTED BY IDOCK:   -4.01 KCAL/MOL
REMARK 922        TOTAL FREE ENERGY PREDICTED BY IDOCK:   -4.65 KCAL/MOL
REMARK 923 INTER-LIGAND FREE ENERGY PREDICTED BY IDOCK:   -4.44 KCAL/MOL
REMARK 924 INTRA-LIGAND FREE ENERGY PREDICTED BY IDOCK:   -0.21 KCAL/MOL
REMARK 927      BINDING AFFINITY PREDICTED BY RF-SCORE:    0.00 PKD
ROOT
HETATM    1  C   UNL     1     -11.942  15.338  69.532  1.00  0.00    -0.356 C  
HETATM    2  C   UNL     1     -11.413  15.192  68.137  1.00  0.00    -0.342 C  
HETATM    3  O   UNL     1     -11.847  14.393  67.320  1.00  0.00    -0.384 OA 
ENDROOT
BRANCH   2   4
HETATM    4  O   UNL     1     -10.365  16.035  67.931  1.00  0.00    -0.255 OA 
BRANCH   4   5
HETATM    5  C   UNL     1     -10.720  17.389  67.592  1.00  0.00    -0.310 C  
HETATM    6  C   UNL     1     -10.396  17.692  66.105  1.00  0.00    -0.334 C  
HETATM    7  N   UNL     1      -9.312  18.701  65.961  1.00  0.00    -0.486 NA 
HETATM    8  C   UNL     1      -9.764  19.972  66.567  1.00  0.00    -0.443 C  
HETATM    9  C   UNL     1     -10.197  19.783  68.032  1.00  0.00    -0.581 C  
HETATM   10  C   UNL     1      -9.886  18.345  68.473  1.00  0.00    -0.402 C  
HETATM   11  C   UNL     1      -8.392  18.095  68.204  1.00  0.00    -0.285 C  
HETATM   12  C   UNL     1      -8.121  18.217  66.696  1.00  0.00    -0.260 C  
ENDBRANCH   4   5
ENDBRANCH   2   4
TORSDOF 2
ENDMDL
MODEL       22
REMARK 921   NORMALIZED FREE ENERGY PREDICTED BY IDOCK:   -4.01 KCAL/MOL
REMARK 922        TOTAL FREE ENERGY PREDICTED BY IDOCK:   -4.65 KCAL/MOL
REMARK 923 INTER-LIGAND FREE ENERGY PREDICTED BY IDOCK:   -4.48 KCAL/MOL
REMARK 924 INTRA-LIGAND FREE ENERGY PREDICTED BY IDOCK:   -0.17 KCAL/MOL
REMARK 927      BINDING AFFINITY PREDICTED BY RF-SCORE:    0.00 PKD
ROOT
HETATM    1  C   UNL     1      -5.961  21.338  66.660  1.00  0.00    -0.370 C  
HETATM    2  C   UNL     1      -6.712  20.682  67.780  1.00  0.00    -0.328 C  
HETATM    3  O   UNL     1      -6.231  20.442  68.878  1.00  0.00    -0.315 OA 
ENDROOT
BRANCH   2   4
HETATM    4  O   UNL     1      -7.973  20.358  67.387  1.00  0.00    -0.317 OA 
BRANCH   4   5
HETATM    5  C   UNL     1      -8.381  19.007  67.675  1.00  0.00    -0.287 C  
HETATM    6  C   UNL     1      -8.402  18.146  66.385  1.00  0.00    -0.245 C  
HETATM    7  N   UNL     1      -9.780  17.721  66.016  1.00  0.00    -0.533 NA 
HETATM    8  C   UNL     1     -10.321  16.875  67.102  1.00  0.00    -0.304 C  
HETATM    9  C   UNL     1     -10.275  17.594  68.462  1.00  0.00    -0.386 C  
HETATM   10  C   UNL     1      -9.812  19.045  68.255  1.00  0.00    -0.440 C  
HETATM   11  C   UNL     1     -10.754  19.684  67.219  1.00  0.00    -0.583 C  
HETATM   12  C   UNL     1     -10.625  18.931  65.885  1.00  0.00    -0.373 C  
ENDBRANCH   4   5
ENDBRANCH   2   4
TORSDOF 2
ENDMDL
MODEL       23
REMARK 921   NORMALIZED FREE ENERGY PREDICTED BY IDOCK:   -4.00 KCAL/MOL
REMARK 922        TOTAL FREE ENERGY PREDICTED BY IDOCK:   -4.64 KCAL/MOL
REMARK 923 INTER-LIGAND FREE ENERGY PREDICTED BY IDOCK:   -4.43 KCAL/MOL
REMARK 924 INTRA-LIGAND FREE ENERGY PREDICTED BY IDOCK:   -0.21 KCAL/MOL
REMARK 927      BINDING AFFINITY PREDICTED BY RF-SCORE:    0.00 PKD
ROOT
HETATM    1  C   UNL     1     -10.740   9.754  68.420  1.00  0.00    -0.262 C  
HETATM    2  C   UNL     1     -11.503  11.014  68.699  1.00  0.00    -0.308 C  
HETATM    3  O   UNL     1     -11.732  11.441  69.821  1.00  0.00    -0.287 OA 
ENDROOT
BRANCH   2   4
HETATM    4  O   UNL     1     -11.934  11.581  67.540  1.00  0.00    -0.629 OA 
BRANCH   4   5
HETATM    5  C   UNL     1     -10.917  12.239  66.760  1.00  0.00    -0.276 C  
HETATM    6  C   UNL     1     -10.852  13.752  67.096  1.00  0.00    -0.283 C  
HETATM    7  N   UNL     1     -11.270  14.601  65.946  1.00  0.00    -0.333 NA 
HETATM    8  C   UNL     1     -10.334  14.372  64.824  1.00  0.00    -0.320 C  
HETATM    9  C   UNL     1     -10.246  12.882  64.450  1.00  0.00    -0.342 C  
HETATM   10  C   UNL     1     -11.279  12.090  65.266  1.00  0.00    -0.374 C  
HETATM   11  C   UNL     1     -12.653  12.738  65.018  1.00  0.00    -0.538 C  
HETATM   12  C   UNL     1     -12.629  14.187  65.528  1.00  0.00    -0.479 C  
ENDBRANCH   4   5
ENDBRANCH   2   4
TORSDOF 2
ENDMDL
MODEL       24
REMARK 921   NORMALIZED FREE ENERGY PREDICTED BY IDOCK:   -3.96 KCAL/MOL
REMARK 922        TOTAL FREE ENERGY PREDICTED BY IDOCK:   -4.59 KCAL/MOL
REMARK 923 INTER-LIGAND FREE ENERGY PREDICTED BY IDOCK:   -4.38 KCAL/MOL
REMARK 924 INTRA-LIGAND FREE ENERGY PREDICTED BY IDOCK:   -0.22 KCAL/MOL
REMARK 927      BINDING AFFINITY PREDICTED BY RF-SCORE:    0.00 PKD
ROOT
HETATM    1  C   UNL     1     -12.095  12.784  63.548  1.00  0.00    -0.642 C  
HETATM    2  C   UNL     1     -12.627  13.093  64.915  1.00  0.00    -0.407 C  
HETATM    3  O   UNL     1     -13.267  14.099  65.189  1.00  0.00    -0.743 OA 
ENDROOT
BRANCH   2   4
HETATM    4  O   UNL     1     -12.263  12.129  65.802  1.00  0.00    -0.586 OA 
BRANCH   4   5
HETATM    5  C   UNL     1     -10.892  12.179  66.239  1.00  0.00    -0.282 C  
HETATM    6  C   UNL     1     -10.305  10.751  66.392  1.00  0.00    -0.248 C  
HETATM    7  N   UNL     1      -9.993  10.421  67.809  1.00  0.00    -0.171 NA 
HETATM    8  C   UNL     1      -8.961  11.361  68.298  1.00  0.00    -0.175 C  
HETATM    9  C   UNL     1      -9.394  12.826  68.121  1.00  0.00    -0.214 C  
HETATM   10  C   UNL     1     -10.846  12.871  67.619  1.00  0.00    -0.252 C  
HETATM   11  C   UNL     1     -11.700  12.062  68.611  1.00  0.00    -0.380 C  
HETATM   12  C   UNL     1     -11.224  10.600  68.614  1.00  0.00    -0.278 C  
ENDBRANCH   4   5
ENDBRANCH   2   4
TORSDOF 2
ENDMDL
MODEL       25
REMARK 921   NORMALIZED FREE ENERGY PREDICTED BY IDOCK:   -3.95 KCAL/MOL
REMARK 922        TOTAL FREE ENERGY PREDICTED BY IDOCK:   -4.59 KCAL/MOL
REMARK 923 INTER-LIGAND FREE ENERGY PREDICTED BY IDOCK:   -4.49 KCAL/MOL
REMARK 924 INTRA-LIGAND FREE ENERGY PREDICTED BY IDOCK:   -0.10 KCAL/MOL
REMARK 927      BINDING AFFINITY PREDICTED BY RF-SCORE:    0.00 PKD
ROOT
HETATM    1  C   UNL     1     -10.392  17.499  65.985  1.00  0.00    -0.309 C  
HETATM    2  C   UNL     1     -10.819  16.433  65.021  1.00  0.00    -0.273 C  
HETATM    3  O   UNL     1     -11.572  16.626  64.078  1.00  0.00    -1.197 OA 
ENDROOT
BRANCH   2   4
HETATM    4  O   UNL     1     -10.289  15.230  65.370  1.00  0.00    -0.340 OA 
BRANCH   4   5
HETATM    5  C   UNL     1     -11.240  14.240  65.803  1.00  0.00    -0.317 C  
HETATM    6  C   UNL     1     -11.750  14.550  67.235  1.00  0.00    -0.406 C  
HETATM    7  N   UNL     1     -11.315  13.524  68.222  1.00  0.00    -0.275 NA 
HETATM    8  C   UNL     1     -11.895  12.219  67.835  1.00  0.00    -0.293 C  
HETATM    9  C   UNL     1     -11.526  11.836  66.391  1.00  0.00    -0.309 C  
HETATM   10  C   UNL     1     -10.534  12.866  65.829  1.00  0.00    -0.293 C  
HETATM   11  C   UNL     1      -9.343  12.935  66.803  1.00  0.00    -0.243 C  
HETATM   12  C   UNL     1      -9.838  13.424  68.173  1.00  0.00    -0.234 C  
ENDBRANCH   4   5
ENDBRANCH   2   4
TORSDOF 2
ENDMDL
MODEL       26
REMARK 921   NORMALIZED FREE ENERGY PREDICTED BY IDOCK:   -3.95 KCAL/MOL
REMARK 922        TOTAL FREE ENERGY PREDICTED BY IDOCK:   -4.58 KCAL/MOL
REMARK 923 INTER-LIGAND FREE ENERGY PREDICTED BY IDOCK:   -4.44 KCAL/MOL
REMARK 924 INTRA-LIGAND FREE ENERGY PREDICTED BY IDOCK:   -0.14 KCAL/MOL
REMARK 927      BINDING AFFINITY PREDICTED BY RF-SCORE:    0.00 PKD
ROOT
HETATM    1  C   UNL     1      -9.713  14.796  65.757  1.00  0.00    -0.347 C  
HETATM    2  C   UNL     1     -10.782  15.736  65.288  1.00  0.00    -0.428 C  
HETATM    3  O   UNL     1     -11.852  15.376  64.817  1.00  0.00    -0.280 OA 
ENDROOT
BRANCH   2   4
HETATM    4  O   UNL     1     -10.378  17.028  65.421  1.00  0.00    -0.617 OA 
BRANCH   4   5
HETATM    5  C   UNL     1      -9.615  17.317  66.607  1.00  0.00    -0.276 C  
HETATM    6  C   UNL     1     -10.547  17.501  67.835  1.00  0.00    -0.390 C  
HETATM    7  N   UNL     1     -10.528  18.897  68.351  1.00  0.00    -0.284 NA 
HETATM    8  C   UNL     1      -9.156  19.216  68.804  1.00  0.00    -0.353 C  
HETATM    9  C   UNL     1      -8.120  18.990  67.689  1.00  0.00    -0.296 C  
HETATM   10  C   UNL     1      -8.847  18.638  66.382  1.00  0.00    -0.283 C  
HETATM   11  C   UNL     1      -9.859  19.763  66.103  1.00  0.00    -0.544 C  
HETATM   12  C   UNL     1     -10.890  19.811  67.242  1.00  0.00    -0.342 C  
ENDBRANCH   4   5
ENDBRANCH   2   4
TORSDOF 2
ENDMDL
MODEL       27
REMARK 921   NORMALIZED FREE ENERGY PREDICTED BY IDOCK:   -3.91 KCAL/MOL
REMARK 922        TOTAL FREE ENERGY PREDICTED BY IDOCK:   -4.54 KCAL/MOL
REMARK 923 INTER-LIGAND FREE ENERGY PREDICTED BY IDOCK:   -4.28 KCAL/MOL
REMARK 924 INTRA-LIGAND FREE ENERGY PREDICTED BY IDOCK:   -0.25 KCAL/MOL
REMARK 927      BINDING AFFINITY PREDICTED BY RF-SCORE:    0.00 PKD
ROOT
HETATM    1  C   UNL     1     -12.218  12.988  64.581  1.00  0.00    -0.477 C  
HETATM    2  C   UNL     1     -12.052  13.050  66.070  1.00  0.00    -0.432 C  
HETATM    3  O   UNL     1     -12.033  12.068  66.798  1.00  0.00    -0.616 OA 
ENDROOT
BRANCH   2   4
HETATM    4  O   UNL     1     -11.971  14.340  66.491  1.00  0.00    -0.408 OA 
BRANCH   4   5
HETATM    5  C   UNL     1     -11.046  14.581  67.568  1.00  0.00    -0.307 C  
HETATM    6  C   UNL     1     -11.483  15.808  68.411  1.00  0.00    -0.365 C  
HETATM    7  N   UNL     1     -10.526  16.941  68.293  1.00  0.00    -0.333 NA 
HETATM    8  C   UNL     1      -9.213  16.509  68.817  1.00  0.00    -0.252 C  
HETATM    9  C   UNL     1      -8.706  15.239  68.111  1.00  0.00    -0.162 C  
HETATM   10  C   UNL     1      -9.659  14.883  66.960  1.00  0.00    -0.245 C  
HETATM   11  C   UNL     1      -9.770  16.123  66.055  1.00  0.00    -0.376 C  
HETATM   12  C   UNL     1     -10.380  17.283  66.859  1.00  0.00    -0.310 C  
ENDBRANCH   4   5
ENDBRANCH   2   4
TORSDOF 2
ENDMDL
MODEL       28
REMARK 921   NORMALIZED FREE ENERGY PREDICTED BY IDOCK:   -3.91 KCAL/MOL
REMARK 922        TOTAL FREE ENERGY PREDICTED BY IDOCK:   -4.53 KCAL/MOL
REMARK 923 INTER-LIGAND FREE ENERGY PREDICTED BY IDOCK:   -4.41 KCAL/MOL
REMARK 924 INTRA-LIGAND FREE ENERGY PREDICTED BY IDOCK:   -0.12 KCAL/MOL
REMARK 927      BINDING AFFINITY PREDICTED BY RF-SCORE:    0.00 PKD
ROOT
HETATM    1  C   UNL     1     -11.078  13.036  63.871  1.00  0.00    -0.411 C  
HETATM    2  C   UNL     1     -12.086  12.508  64.847  1.00  0.00    -0.440 C  
HETATM    3  O   UNL     1     -13.273  12.363  64.593  1.00  0.00    -0.822 OA 
ENDROOT
BRANCH   2   4
HETATM    4  O   UNL     1     -11.505  12.259  66.051  1.00  0.00    -0.346 OA 
BRANCH   4   5
HETATM    5  C   UNL     1     -11.995  13.052  67.148  1.00  0.00    -0.329 C  
HETATM    6  C   UNL     1     -11.602  14.543  66.975  1.00  0.00    -0.386 C  
HETATM    7  N   UNL     1     -10.641  14.996  68.017  1.00  0.00    -0.246 NA 
HETATM    8  C   UNL     1     -11.287  14.876  69.342  1.00  0.00    -0.290 C  
HETATM    9  C   UNL     1     -11.799  13.448  69.599  1.00  0.00    -0.394 C  
HETATM   10  C   UNL     1     -11.350  12.531  68.451  1.00  0.00    -0.333 C  
HETATM   11  C   UNL     1      -9.821  12.656  68.336  1.00  0.00    -0.200 C  
HETATM   12  C   UNL     1      -9.457  14.106  67.979  1.00  0.00    -0.213 C  
ENDBRANCH   4   5
ENDBRANCH   2   4
TORSDOF 2
ENDMDL
MODEL       29
REMARK 921   NORMALIZED FREE ENERGY PREDICTED BY IDOCK:   -3.90 KCAL/MOL
REMARK 922        TOTAL FREE ENERGY PREDICTED BY IDOCK:   -4.53 KCAL/MOL
REMARK 923 INTER-LIGAND FREE ENERGY PREDICTED BY IDOCK:   -4.41 KCAL/MOL
REMARK 924 INTRA-LIGAND FREE ENERGY PREDICTED BY IDOCK:   -0.12 KCAL/MOL
REMARK 927      BINDING AFFINITY PREDICTED BY RF-SCORE:    0.00 PKD
ROOT
HETATM    1  C   UNL     1     -10.463  17.111  66.036  1.00  0.00    -0.271 C  
HETATM    2  C   UNL     1      -9.348  16.115  66.147  1.00  0.00    -0.336 C  
HETATM    3  O   UNL     1      -8.163  16.404  66.082  1.00  0.00    -0.324 OA 
ENDROOT
BRANCH   2   4
HETATM    4  O   UNL     1      -9.842  14.855  66.283  1.00  0.00    -0.262 OA 
BRANCH   4   5
HETATM    5  C   UNL     1     -10.853  14.482  65.326  1.00  0.00    -0.367 C  
HETATM    6  C   UNL     1     -12.155  14.035  66.041  1.00  0.00    -0.439 C  
HETATM    7  N   UNL     1     -12.444  12.590  65.831  1.00  0.00    -0.517 NA 
HETATM    8  C   UNL     1     -12.647  12.352  64.386  1.00  0.00    -0.399 C  
HETATM    9  C   UNL     1     -11.446  12.835  63.554  1.00  0.00    -0.521 C  
HETATM   10  C   UNL     1     -10.323  13.290  64.499  1.00  0.00    -0.394 C  
HETATM   11  C   UNL     1     -10.020  12.118  65.449  1.00  0.00    -0.269 C  
HETATM   12  C   UNL     1     -11.271  11.808  66.286  1.00  0.00    -0.312 C  
ENDBRANCH   4   5
ENDBRANCH   2   4
TORSDOF 2
ENDMDL
MODEL       30
REMARK 921   NORMALIZED FREE ENERGY PREDICTED BY IDOCK:   -3.88 KCAL/MOL
REMARK 922        TOTAL FREE ENERGY PREDICTED BY IDOCK:   -4.51 KCAL/MOL
REMARK 923 INTER-LIGAND FREE ENERGY PREDICTED BY IDOCK:   -4.30 KCAL/MOL
REMARK 924 INTRA-LIGAND FREE ENERGY PREDICTED BY IDOCK:   -0.21 KCAL/MOL
REMARK 927      BINDING AFFINITY PREDICTED BY RF-SCORE:    0.00 PKD
ROOT
HETATM    1  C   UNL     1     -10.638  16.632  69.145  1.00  0.00    -0.340 C  
HETATM    2  C   UNL     1     -11.542  15.473  69.438  1.00  0.00    -0.355 C  
HETATM    3  O   UNL     1     -12.506  15.529  70.188  1.00  0.00    -0.387 OA 
ENDROOT
BRANCH   2   4
HETATM    4  O   UNL     1     -11.114  14.355  68.792  1.00  0.00    -0.236 OA 
BRANCH   4   5
HETATM    5  C   UNL     1     -12.009  13.842  67.788  1.00  0.00    -0.355 C  
HETATM    6  C   UNL     1     -11.777  12.325  67.559  1.00  0.00    -0.332 C  
HETATM    7  N   UNL     1     -11.240  12.038  66.201  1.00  0.00    -0.330 NA 
HETATM    8  C   UNL     1     -12.234  12.474  65.196  1.00  0.00    -0.448 C  
HETATM    9  C   UNL     1     -12.613  13.954  65.374  1.00  0.00    -0.538 C  
HETATM   10  C   UNL     1     -11.726  14.580  66.461  1.00  0.00    -0.380 C  
HETATM   11  C   UNL     1     -10.261  14.334  66.056  1.00  0.00    -0.327 C  
HETATM   12  C   UNL     1      -9.996  12.820  66.014  1.00  0.00    -0.271 C  
ENDBRANCH   4   5
ENDBRANCH   2   4
TORSDOF 2
ENDMDL
MODEL       31
REMARK 921   NORMALIZED FREE ENERGY PREDICTED BY IDOCK:   -3.87 KCAL/MOL
REMARK 922        TOTAL FREE ENERGY PREDICTED BY IDOCK:   -4.50 KCAL/MOL
REMARK 923 INTER-LIGAND FREE ENERGY PREDICTED BY IDOCK:   -4.27 KCAL/MOL
REMARK 924 INTRA-LIGAND FREE ENERGY PREDICTED BY IDOCK:   -0.23 KCAL/MOL
REMARK 927      BINDING AFFINITY PREDICTED BY RF-SCORE:    0.00 PKD
ROOT
HETATM    1  C   UNL     1     -12.269  12.521  65.035  1.00  0.00    -0.519 C  
HETATM    2  C   UNL     1     -12.302  14.009  64.858  1.00  0.00    -0.427 C  
HETATM    3  O   UNL     1     -12.504  14.566  63.788  1.00  0.00    -0.809 OA 
ENDROOT
BRANCH   2   4
HETATM    4  O   UNL     1     -12.036  14.639  66.033  1.00  0.00    -0.337 OA 
BRANCH   4   5
HETATM    5  C   UNL     1     -10.738  14.371  66.596  1.00  0.00    -0.292 C  
HETATM    6  C   UNL     1     -10.820  14.238  68.140  1.00  0.00    -0.244 C  
HETATM    7  N   UNL     1     -10.101  15.339  68.837  1.00  0.00    -0.216 NA 
HETATM    8  C   UNL     1      -8.668  15.271  68.478  1.00  0.00    -0.176 C  
HETATM    9  C   UNL     1      -8.459  15.309  66.954  1.00  0.00    -0.286 C  
HETATM   10  C   UNL     1      -9.808  15.558  66.262  1.00  0.00    -0.317 C  
HETATM   11  C   UNL     1     -10.403  16.843  66.864  1.00  0.00    -0.304 C  
HETATM   12  C   UNL     1     -10.651  16.631  68.365  1.00  0.00    -0.343 C  
ENDBRANCH   4   5
ENDBRANCH   2   4
TORSDOF 2
ENDMDL
MODEL       32
REMARK 921   NORMALIZED FREE ENERGY PREDICTED BY IDOCK:   -3.84 KCAL/MOL
REMARK 922        TOTAL FREE ENERGY PREDICTED BY IDOCK:   -4.46 KCAL/MOL
REMARK 923 INTER-LIGAND FREE ENERGY PREDICTED BY IDOCK:   -4.24 KCAL/MOL
REMARK 924 INTRA-LIGAND FREE ENERGY PREDICTED BY IDOCK:   -0.22 KCAL/MOL
REMARK 927      BINDING AFFINITY PREDICTED BY RF-SCORE:    0.00 PKD
ROOT
HETATM    1  C   UNL     1      -9.276  10.326  63.390  1.00  0.00    -0.321 C  
HETATM    2  C   UNL     1      -9.876  10.262  64.762  1.00  0.00    -0.334 C  
HETATM    3  O   UNL     1      -9.584   9.418  65.598  1.00  0.00    -0.258 OA 
ENDROOT
BRANCH   2   4
HETATM    4  O   UNL     1     -10.811  11.237  64.924  1.00  0.00    -0.291 OA 
BRANCH   4   5
HETATM    5  C   UNL     1     -10.351  12.426  65.594  1.00  0.00    -0.258 C  
HETATM    6  C   UNL     1     -11.196  12.709  66.864  1.00  0.00    -0.300 C  
HETATM    7  N   UNL     1     -11.999  13.956  66.738  1.00  0.00    -0.421 NA 
HETATM    8  C   UNL     1     -11.075  15.100  66.576  1.00  0.00    -0.305 C  
HETATM    9  C   UNL     1     -10.119  14.897  65.388  1.00  0.00    -0.400 C  
HETATM   10  C   UNL     1     -10.514  13.621  64.629  1.00  0.00    -0.442 C  
HETATM   11  C   UNL     1     -11.999  13.755  64.247  1.00  0.00    -0.481 C  
HETATM   12  C   UNL     1     -12.845  13.849  65.527  1.00  0.00    -0.431 C  
ENDBRANCH   4   5
ENDBRANCH   2   4
TORSDOF 2
ENDMDL
MODEL       33
REMARK 921   NORMALIZED FREE ENERGY PREDICTED BY IDOCK:   -3.82 KCAL/MOL
REMARK 922        TOTAL FREE ENERGY PREDICTED BY IDOCK:   -4.44 KCAL/MOL
REMARK 923 INTER-LIGAND FREE ENERGY PREDICTED BY IDOCK:   -4.18 KCAL/MOL
REMARK 924 INTRA-LIGAND FREE ENERGY PREDICTED BY IDOCK:   -0.26 KCAL/MOL
REMARK 927      BINDING AFFINITY PREDICTED BY RF-SCORE:    0.00 PKD
ROOT
HETATM    1  C   UNL     1      -5.986  20.843  65.942  1.00  0.00    -0.285 C  
HETATM    2  C   UNL     1      -6.870  19.733  65.460  1.00  0.00    -0.298 C  
HETATM    3  O   UNL     1      -6.507  18.855  64.689  1.00  0.00    -0.500 OA 
ENDROOT
BRANCH   2   4
HETATM    4  O   UNL     1      -8.127  19.867  65.961  1.00  0.00    -0.348 OA 
BRANCH   4   5
HETATM    5  C   UNL     1      -8.772  18.638  66.345  1.00  0.00    -0.276 C  
HETATM    6  C   UNL     1     -10.312  18.818  66.416  1.00  0.00    -0.439 C  
HETATM    7  N   UNL     1     -10.829  18.685  67.805  1.00  0.00    -0.344 NA 
HETATM    8  C   UNL     1     -10.536  17.319  68.291  1.00  0.00    -0.383 C  
HETATM    9  C   UNL     1      -9.038  16.987  68.191  1.00  0.00    -0.237 C  
HETATM   10  C   UNL     1      -8.267  18.241  67.749  1.00  0.00    -0.253 C  
HETATM   11  C   UNL     1      -8.614  19.366  68.741  1.00  0.00    -0.371 C  
HETATM   12  C   UNL     1     -10.120  19.661  68.664  1.00  0.00    -0.447 C  
ENDBRANCH   4   5
ENDBRANCH   2   4
TORSDOF 2
ENDMDL
MODEL       34
REMARK 921   NORMALIZED FREE ENERGY PREDICTED BY IDOCK:   -3.81 KCAL/MOL
REMARK 922        TOTAL FREE ENERGY PREDICTED BY IDOCK:   -4.43 KCAL/MOL
REMARK 923 INTER-LIGAND FREE ENERGY PREDICTED BY IDOCK:   -4.28 KCAL/MOL
REMARK 924 INTRA-LIGAND FREE ENERGY PREDICTED BY IDOCK:   -0.15 KCAL/MOL
REMARK 927      BINDING AFFINITY PREDICTED BY RF-SCORE:    0.00 PKD
ROOT
HETATM    1  C   UNL     1      -9.829  11.194  68.299  1.00  0.00    -0.195 C  
HETATM    2  C   UNL     1     -10.374  10.256  67.264  1.00  0.00    -0.232 C  
HETATM    3  O   UNL     1     -10.740   9.113  67.501  1.00  0.00    -0.273 OA 
ENDROOT
BRANCH   2   4
HETATM    4  O   UNL     1     -10.361  10.837  66.035  1.00  0.00    -0.248 OA 
BRANCH   4   5
HETATM    5  C   UNL     1     -10.721  12.230  66.007  1.00  0.00    -0.261 C  
HETATM    6  C   UNL     1     -12.262  12.406  66.061  1.00  0.00    -0.092 C  
HETATM    7  N   UNL     1     -12.807  12.980  64.801  1.00  0.00    -0.745 NA 
HETATM    8  C   UNL     1     -12.230  14.327  64.605  1.00  0.00    -0.454 C  
HETATM    9  C   UNL     1     -10.692  14.297  64.617  1.00  0.00    -0.384 C  
HETATM   10  C   UNL     1     -10.212  12.838  64.682  1.00  0.00    -0.321 C  
HETATM   11  C   UNL     1     -10.863  12.089  63.506  1.00  0.00    -0.509 C  
HETATM   12  C   UNL     1     -12.391  12.113  63.674  1.00  0.00    -0.568 C  
ENDBRANCH   4   5
ENDBRANCH   2   4
TORSDOF 2
ENDMDL
MODEL       35
REMARK 921   NORMALIZED FREE ENERGY PREDICTED BY IDOCK:   -3.75 KCAL/MOL
REMARK 922        TOTAL FREE ENERGY PREDICTED BY IDOCK:   -4.36 KCAL/MOL
REMARK 923 INTER-LIGAND FREE ENERGY PREDICTED BY IDOCK:   -4.36 KCAL/MOL
REMARK 924 INTRA-LIGAND FREE ENERGY PREDICTED BY IDOCK:    0.00 KCAL/MOL
REMARK 927      BINDING AFFINITY PREDICTED BY RF-SCORE:    0.00 PKD
ROOT
HETATM    1  C   UNL     1     -10.723  10.796  69.029  1.00  0.00    -0.265 C  
HETATM    2  C   UNL     1     -11.039  10.571  67.581  1.00  0.00    -0.309 C  
HETATM    3  O   UNL     1     -10.513   9.709  66.892  1.00  0.00    -0.242 OA 
ENDROOT
BRANCH   2   4
HETATM    4  O   UNL     1     -11.951  11.479  67.141  1.00  0.00    -0.581 OA 
BRANCH   4   5
HETATM    5  C   UNL     1     -11.584  12.192  65.944  1.00  0.00    -0.364 C  
HETATM    6  C   UNL     1     -10.088  12.602  65.979  1.00  0.00    -0.262 C  
HETATM    7  N   UNL     1      -9.911  14.078  66.051  1.00  0.00    -0.308 NA 
HETATM    8  C   UNL     1     -10.492  14.684  64.833  1.00  0.00    -0.387 C  
HETATM    9  C   UNL     1     -11.963  14.279  64.640  1.00  0.00    -0.468 C  
HETATM   10  C   UNL     1     -12.435  13.477  65.863  1.00  0.00    -0.484 C  
HETATM   11  C   UNL     1     -12.160  14.338  67.109  1.00  0.00    -0.412 C  
HETATM   12  C   UNL     1     -10.648  14.581  67.233  1.00  0.00    -0.280 C  
ENDBRANCH   4   5
ENDBRANCH   2   4
TORSDOF 2
ENDMDL
MODEL       36
REMARK 921   NORMALIZED FREE ENERGY PREDICTED BY IDOCK:   -3.74 KCAL/MOL
REMARK 922        TOTAL FREE ENERGY PREDICTED BY IDOCK:   -4.35 KCAL/MOL
REMARK 923 INTER-LIGAND FREE ENERGY PREDICTED BY IDOCK:   -4.11 KCAL/MOL
REMARK 924 INTRA-LIGAND FREE ENERGY PREDICTED BY IDOCK:   -0.25 KCAL/MOL
REMARK 927      BINDING AFFINITY PREDICTED BY RF-SCORE:    0.00 PKD
ROOT
HETATM    1  C   UNL     1     -10.589  19.367  66.664  1.00  0.00    -0.566 C  
HETATM    2  C   UNL     1      -9.348  18.534  66.553  1.00  0.00    -0.313 C  
HETATM    3  O   UNL     1      -8.373  18.845  65.884  1.00  0.00    -0.483 OA 
ENDROOT
BRANCH   2   4
HETATM    4  O   UNL     1      -9.480  17.379  67.259  1.00  0.00    -0.245 OA 
BRANCH   4   5
HETATM    5  C   UNL     1     -10.657  16.605  66.961  1.00  0.00    -0.247 C  
HETATM    6  C   UNL     1     -11.204  15.912  68.237  1.00  0.00    -0.354 C  
HETATM    7  N   UNL     1     -11.087  14.430  68.166  1.00  0.00    -0.255 NA 
HETATM    8  C   UNL     1     -11.904  13.945  67.033  1.00  0.00    -0.415 C  
HETATM    9  C   UNL     1     -11.510  14.627  65.712  1.00  0.00    -0.338 C  
HETATM   10  C   UNL     1     -10.273  15.509  65.943  1.00  0.00    -0.367 C  
HETATM   11  C   UNL     1      -9.181  14.616  66.559  1.00  0.00    -0.294 C  
HETATM   12  C   UNL     1      -9.668  14.084  67.916  1.00  0.00    -0.229 C  
ENDBRANCH   4   5
ENDBRANCH   2   4
TORSDOF 2
ENDMDL
MODEL       37
REMARK 921   NORMALIZED FREE ENERGY PREDICTED BY IDOCK:   -3.74 KCAL/MOL
REMARK 922        TOTAL FREE ENERGY PREDICTED BY IDOCK:   -4.35 KCAL/MOL
REMARK 923 INTER-LIGAND FREE ENERGY PREDICTED BY IDOCK:   -4.11 KCAL/MOL
REMARK 924 INTRA-LIGAND FREE ENERGY PREDICTED BY IDOCK:   -0.24 KCAL/MOL
REMARK 927      BINDING AFFINITY PREDICTED BY RF-SCORE:    0.00 PKD
ROOT
HETATM    1  C   UNL     1     -11.620  15.118  71.935  1.00  0.00    -0.490 C  
HETATM    2  C   UNL     1     -12.590  14.121  71.377  1.00  0.00    -0.368 C  
HETATM    3  O   UNL     1     -13.225  13.329  72.058  1.00  0.00    -0.418 OA 
ENDROOT
BRANCH   2   4
HETATM    4  O   UNL     1     -12.625  14.193  70.019  1.00  0.00    -0.332 OA 
BRANCH   4   5
HETATM    5  C   UNL     1     -11.359  14.452  69.382  1.00  0.00    -0.281 C  
HETATM    6  C   UNL     1     -11.520  15.465  68.218  1.00  0.00    -0.353 C  
HETATM    7  N   UNL     1     -11.247  14.846  66.893  1.00  0.00    -0.342 NA 
HETATM    8  C   UNL     1      -9.842  14.385  66.866  1.00  0.00    -0.261 C  
HETATM    9  C   UNL     1      -9.533  13.430  68.032  1.00  0.00    -0.218 C  
HETATM   10  C   UNL     1     -10.830  13.124  68.797  1.00  0.00    -0.278 C  
HETATM   11  C   UNL     1     -11.848  12.587  67.776  1.00  0.00    -0.375 C  
HETATM   12  C   UNL     1     -12.139  13.675  66.730  1.00  0.00    -0.399 C  
ENDBRANCH   4   5
ENDBRANCH   2   4
TORSDOF 2
ENDMDL
MODEL       38
REMARK 921   NORMALIZED FREE ENERGY PREDICTED BY IDOCK:   -3.73 KCAL/MOL
REMARK 922        TOTAL FREE ENERGY PREDICTED BY IDOCK:   -4.33 KCAL/MOL
REMARK 923 INTER-LIGAND FREE ENERGY PREDICTED BY IDOCK:   -4.09 KCAL/MOL
REMARK 924 INTRA-LIGAND FREE ENERGY PREDICTED BY IDOCK:   -0.24 KCAL/MOL
REMARK 927      BINDING AFFINITY PREDICTED BY RF-SCORE:    0.00 PKD
ROOT
HETATM    1  C   UNL     1     -11.252  16.065  70.222  1.00  0.00    -0.397 C  
HETATM    2  C   UNL     1     -11.386  15.931  68.735  1.00  0.00    -0.378 C  
HETATM    3  O   UNL     1     -11.737  14.906  68.169  1.00  0.00    -0.327 OA 
ENDROOT
BRANCH   2   4
HETATM    4  O   UNL     1     -11.022  17.086  68.114  1.00  0.00    -0.367 OA 
BRANCH   4   5
HETATM    5  C   UNL     1      -9.922  17.791  68.719  1.00  0.00    -0.367 C  
HETATM    6  C   UNL     1     -10.102  19.326  68.577  1.00  0.00    -0.430 C  
HETATM    7  N   UNL     1      -9.069  19.933  67.694  1.00  0.00    -0.332 NA 
HETATM    8  C   UNL     1      -7.738  19.713  68.302  1.00  0.00    -0.321 C  
HETATM    9  C   UNL     1      -7.474  18.222  68.572  1.00  0.00    -0.300 C  
HETATM   10  C   UNL     1      -8.624  17.387  67.988  1.00  0.00    -0.240 C  
HETATM   11  C   UNL     1      -8.752  17.760  66.500  1.00  0.00    -0.281 C  
HETATM   12  C   UNL     1      -9.114  19.249  66.381  1.00  0.00    -0.352 C  
ENDBRANCH   4   5
ENDBRANCH   2   4
TORSDOF 2
ENDMDL
MODEL       39
REMARK 921   NORMALIZED FREE ENERGY PREDICTED BY IDOCK:   -3.72 KCAL/MOL
REMARK 922        TOTAL FREE ENERGY PREDICTED BY IDOCK:   -4.33 KCAL/MOL
REMARK 923 INTER-LIGAND FREE ENERGY PREDICTED BY IDOCK:   -4.08 KCAL/MOL
REMARK 924 INTRA-LIGAND FREE ENERGY PREDICTED BY IDOCK:   -0.24 KCAL/MOL
REMARK 927      BINDING AFFINITY PREDICTED BY RF-SCORE:    0.00 PKD
ROOT
HETATM    1  C   UNL     1     -13.149  10.891  71.783  1.00  0.00    -0.564 C  
HETATM    2  C   UNL     1     -13.418   9.435  72.020  1.00  0.00    -0.449 C  
HETATM    3  O   UNL     1     -14.326   9.013  72.721  1.00  0.00    -0.596 OA 
ENDROOT
BRANCH   2   4
HETATM    4  O   UNL     1     -12.492   8.667  71.386  1.00  0.00    -0.309 OA 
BRANCH   4   5
HETATM    5  C   UNL     1     -11.163   8.721  71.939  1.00  0.00    -0.368 C  
HETATM    6  C   UNL     1     -10.097   8.437  70.848  1.00  0.00    -0.194 C  
HETATM    7  N   UNL     1      -9.370   7.161  71.091  1.00  0.00    -0.157 NA 
HETATM    8  C   UNL     1      -8.648   7.265  72.377  1.00  0.00    -0.115 C  
HETATM    9  C   UNL     1      -9.594   7.628  73.535  1.00  0.00    -0.348 C  
HETATM   10  C   UNL     1     -11.044   7.630  73.026  1.00  0.00    -0.437 C  
HETATM   11  C   UNL     1     -11.307   6.256  72.386  1.00  0.00    -0.333 C  
HETATM   12  C   UNL     1     -10.365   6.067  71.187  1.00  0.00    -0.214 C  
ENDBRANCH   4   5
ENDBRANCH   2   4
TORSDOF 2
ENDMDL
MODEL       40
REMARK 921   NORMALIZED FREE ENERGY PREDICTED BY IDOCK:   -3.72 KCAL/MOL
REMARK 922        TOTAL FREE ENERGY PREDICTED BY IDOCK:   -4.32 KCAL/MOL
REMARK 923 INTER-LIGAND FREE ENERGY PREDICTED BY IDOCK:   -4.10 KCAL/MOL
REMARK 924 INTRA-LIGAND FREE ENERGY PREDICTED BY IDOCK:   -0.22 KCAL/MOL
REMARK 927      BINDING AFFINITY PREDICTED BY RF-SCORE:    0.00 PKD
ROOT
HETATM    1  C   UNL     1     -12.292  13.844  70.977  1.00  0.00    -0.453 C  
HETATM    2  C   UNL     1     -12.253  14.638  69.706  1.00  0.00    -0.302 C  
HETATM    3  O   UNL     1     -12.252  15.860  69.662  1.00  0.00    -0.303 OA 
ENDROOT
BRANCH   2   4
HETATM    4  O   UNL     1     -12.263  13.814  68.624  1.00  0.00    -0.347 OA 
BRANCH   4   5
HETATM    5  C   UNL     1     -11.681  14.361  67.426  1.00  0.00    -0.397 C  
HETATM    6  C   UNL     1     -12.491  13.938  66.172  1.00  0.00    -0.436 C  
HETATM    7  N   UNL     1     -11.714  13.037  65.278  1.00  0.00    -0.336 NA 
HETATM    8  C   UNL     1     -10.523  13.765  64.791  1.00  0.00    -0.428 C  
HETATM    9  C   UNL     1      -9.674  14.312  65.952  1.00  0.00    -0.289 C  
HETATM   10  C   UNL     1     -10.247  13.805  67.284  1.00  0.00    -0.253 C  
HETATM   11  C   UNL     1     -10.313  12.269  67.201  1.00  0.00    -0.234 C  
HETATM   12  C   UNL     1     -11.269  11.865  66.067  1.00  0.00    -0.324 C  
ENDBRANCH   4   5
ENDBRANCH   2   4
TORSDOF 2
ENDMDL
MODEL       41
REMARK 921   NORMALIZED FREE ENERGY PREDICTED BY IDOCK:   -3.71 KCAL/MOL
REMARK 922        TOTAL FREE ENERGY PREDICTED BY IDOCK:   -4.31 KCAL/MOL
REMARK 923 INTER-LIGAND FREE ENERGY PREDICTED BY IDOCK:   -4.14 KCAL/MOL
REMARK 924 INTRA-LIGAND FREE ENERGY PREDICTED BY IDOCK:   -0.17 KCAL/MOL
REMARK 927      BINDING AFFINITY PREDICTED BY RF-SCORE:    0.00 PKD
ROOT
HETATM    1  C   UNL     1     -13.447  13.303  72.103  1.00  0.00    -0.655 C  
HETATM    2  C   UNL     1     -12.918  14.333  71.152  1.00  0.00    -0.353 C  
HETATM    3  O   UNL     1     -13.363  15.467  71.054  1.00  0.00    -0.505 OA 
ENDROOT
BRANCH   2   4
HETATM    4  O   UNL     1     -11.913  13.816  70.395  1.00  0.00    -0.320 OA 
BRANCH   4   5
HETATM    5  C   UNL     1     -12.245  13.569  69.015  1.00  0.00    -0.186 C  
HETATM    6  C   UNL     1     -11.745  12.171  68.566  1.00  0.00    -0.330 C  
HETATM    7  N   UNL     1     -10.668  12.262  67.543  1.00  0.00    -0.220 NA 
HETATM    8  C   UNL     1     -11.212  12.927  66.340  1.00  0.00    -0.300 C  
HETATM    9  C   UNL     1     -11.820  14.301  66.673  1.00  0.00    -0.442 C  
HETATM   10  C   UNL     1     -11.543  14.636  68.147  1.00  0.00    -0.362 C  
HETATM   11  C   UNL     1     -10.023  14.533  68.363  1.00  0.00    -0.241 C  
HETATM   12  C   UNL     1      -9.569  13.090  68.092  1.00  0.00    -0.227 C  
ENDBRANCH   4   5
ENDBRANCH   2   4
TORSDOF 2
ENDMDL
MODEL       42
REMARK 921   NORMALIZED FREE ENERGY PREDICTED BY IDOCK:   -3.68 KCAL/MOL
REMARK 922        TOTAL FREE ENERGY PREDICTED BY IDOCK:   -4.28 KCAL/MOL
REMARK 923 INTER-LIGAND FREE ENERGY PREDICTED BY IDOCK:   -4.06 KCAL/MOL
REMARK 924 INTRA-LIGAND FREE ENERGY PREDICTED BY IDOCK:   -0.22 KCAL/MOL
REMARK 927      BINDING AFFINITY PREDICTED BY RF-SCORE:    0.00 PKD
ROOT
HETATM    1  C   UNL     1     -10.563  15.834  69.752  1.00  0.00    -0.312 C  
HETATM    2  C   UNL     1     -10.849  16.502  68.441  1.00  0.00    -0.348 C  
HETATM    3  O   UNL     1     -10.649  17.687  68.219  1.00  0.00    -0.374 OA 
ENDROOT
BRANCH   2   4
HETATM    4  O   UNL     1     -11.396  15.620  67.562  1.00  0.00    -0.300 OA 
BRANCH   4   5
HETATM    5  C   UNL     1     -10.781  14.318  67.531  1.00  0.00    -0.270 C  
HETATM    6  C   UNL     1      -9.666  14.255  66.454  1.00  0.00    -0.299 C  
HETATM    7  N   UNL     1     -10.011  13.328  65.342  1.00  0.00    -0.234 NA 
HETATM    8  C   UNL     1     -10.150  11.962  65.892  1.00  0.00    -0.234 C  
HETATM    9  C   UNL     1     -11.177  11.909  67.036  1.00  0.00    -0.379 C  
HETATM   10  C   UNL     1     -11.863  13.278  67.167  1.00  0.00    -0.424 C  
HETATM   11  C   UNL     1     -12.451  13.630  65.789  1.00  0.00    -0.524 C  
HETATM   12  C   UNL     1     -11.309  13.748  64.767  1.00  0.00    -0.360 C  
ENDBRANCH   4   5
ENDBRANCH   2   4
TORSDOF 2
ENDMDL
MODEL       43
REMARK 921   NORMALIZED FREE ENERGY PREDICTED BY IDOCK:   -3.67 KCAL/MOL
REMARK 922        TOTAL FREE ENERGY PREDICTED BY IDOCK:   -4.27 KCAL/MOL
REMARK 923 INTER-LIGAND FREE ENERGY PREDICTED BY IDOCK:   -4.41 KCAL/MOL
REMARK 924 INTRA-LIGAND FREE ENERGY PREDICTED BY IDOCK:    0.13 KCAL/MOL
REMARK 927      BINDING AFFINITY PREDICTED BY RF-SCORE:    0.00 PKD
ROOT
HETATM    1  C   UNL     1     -11.508  12.057  67.661  1.00  0.00    -0.392 C  
HETATM    2  C   UNL     1     -11.584  13.317  68.469  1.00  0.00    -0.333 C  
HETATM    3  O   UNL     1     -10.824  14.265  68.331  1.00  0.00    -0.240 OA 
ENDROOT
BRANCH   2   4
HETATM    4  O   UNL     1     -12.578  13.236  69.393  1.00  0.00     0.003 OA 
BRANCH   4   5
HETATM    5  C   UNL     1     -12.164  13.409  70.762  1.00  0.00    -0.328 C  
HETATM    6  C   UNL     1     -13.251  12.893  71.740  1.00  0.00    -0.384 C  
HETATM    7  N   UNL     1     -13.858  13.993  72.538  1.00  0.00    -0.652 NA 
HETATM    8  C   UNL     1     -12.801  14.617  73.364  1.00  0.00    -0.406 C  
HETATM    9  C   UNL     1     -11.617  15.099  72.508  1.00  0.00    -0.448 C  
HETATM   10  C   UNL     1     -11.958  14.917  71.020  1.00  0.00    -0.376 C  
HETATM   11  C   UNL     1     -13.284  15.654  70.760  1.00  0.00    -0.270 C  
HETATM   12  C   UNL     1     -14.395  15.008  71.603  1.00  0.00    -0.584 C  
ENDBRANCH   4   5
ENDBRANCH   2   4
TORSDOF 2
ENDMDL
MODEL       44
REMARK 921   NORMALIZED FREE ENERGY PREDICTED BY IDOCK:   -3.65 KCAL/MOL
REMARK 922        TOTAL FREE ENERGY PREDICTED BY IDOCK:   -4.24 KCAL/MOL
REMARK 923 INTER-LIGAND FREE ENERGY PREDICTED BY IDOCK:   -4.03 KCAL/MOL
REMARK 924 INTRA-LIGAND FREE ENERGY PREDICTED BY IDOCK:   -0.21 KCAL/MOL
REMARK 927      BINDING AFFINITY PREDICTED BY RF-SCORE:    0.00 PKD
ROOT
HETATM    1  C   UNL     1     -13.223  11.692  71.895  1.00  0.00    -0.475 C  
HETATM    2  C   UNL     1     -12.308  11.287  70.780  1.00  0.00    -0.398 C  
HETATM    3  O   UNL     1     -11.695  12.077  70.077  1.00  0.00    -0.312 OA 
ENDROOT
BRANCH   2   4
HETATM    4  O   UNL     1     -12.293   9.935  70.637  1.00  0.00    -0.273 OA 
BRANCH   4   5
HETATM    5  C   UNL     1     -11.230   9.253  71.329  1.00  0.00    -0.355 C  
HETATM    6  C   UNL     1     -10.342   8.458  70.335  1.00  0.00    -0.205 C  
HETATM    7  N   UNL     1     -10.449   6.987  70.539  1.00  0.00    -0.205 NA 
HETATM    8  C   UNL     1      -9.966   6.662  71.898  1.00  0.00    -0.177 C  
HETATM    9  C   UNL     1     -10.719   7.458  72.978  1.00  0.00    -0.413 C  
HETATM   10  C   UNL     1     -11.860   8.251  72.322  1.00  0.00    -0.451 C  
HETATM   11  C   UNL     1     -12.725   7.248  71.538  1.00  0.00    -0.422 C  
HETATM   12  C   UNL     1     -11.875   6.602  70.433  1.00  0.00    -0.346 C  
ENDBRANCH   4   5
ENDBRANCH   2   4
TORSDOF 2
ENDMDL
MODEL       45
REMARK 921   NORMALIZED FREE ENERGY PREDICTED BY IDOCK:   -3.63 KCAL/MOL
REMARK 922        TOTAL FREE ENERGY PREDICTED BY IDOCK:   -4.23 KCAL/MOL
REMARK 923 INTER-LIGAND FREE ENERGY PREDICTED BY IDOCK:   -4.13 KCAL/MOL
REMARK 924 INTRA-LIGAND FREE ENERGY PREDICTED BY IDOCK:   -0.09 KCAL/MOL
REMARK 927      BINDING AFFINITY PREDICTED BY RF-SCORE:    0.00 PKD
ROOT
HETATM    1  C   UNL     1      -9.790  20.184  67.271  1.00  0.00    -0.580 C  
HETATM    2  C   UNL     1     -10.473  19.000  66.656  1.00  0.00    -0.437 C  
HETATM    3  O   UNL     1     -10.694  18.883  65.460  1.00  0.00    -0.556 OA 
ENDROOT
BRANCH   2   4
HETATM    4  O   UNL     1     -10.844  18.109  67.614  1.00  0.00    -0.392 OA 
BRANCH   4   5
HETATM    5  C   UNL     1      -9.834  17.155  67.994  1.00  0.00    -0.283 C  
HETATM    6  C   UNL     1      -9.569  16.142  66.849  1.00  0.00    -0.230 C  
HETATM    7  N   UNL     1      -9.989  14.761  67.212  1.00  0.00    -0.230 NA 
HETATM    8  C   UNL     1      -9.190  14.313  68.373  1.00  0.00    -0.196 C  
HETATM    9  C   UNL     1      -9.305  15.289  69.557  1.00  0.00    -0.198 C  
HETATM   10  C   UNL     1     -10.344  16.372  69.224  1.00  0.00    -0.292 C  
HETATM   11  C   UNL     1     -11.653  15.653  68.851  1.00  0.00    -0.392 C  
HETATM   12  C   UNL     1     -11.419  14.794  67.599  1.00  0.00    -0.347 C  
ENDBRANCH   4   5
ENDBRANCH   2   4
TORSDOF 2
ENDMDL
MODEL       46
REMARK 921   NORMALIZED FREE ENERGY PREDICTED BY IDOCK:   -3.60 KCAL/MOL
REMARK 922        TOTAL FREE ENERGY PREDICTED BY IDOCK:   -4.20 KCAL/MOL
REMARK 923 INTER-LIGAND FREE ENERGY PREDICTED BY IDOCK:   -4.02 KCAL/MOL
REMARK 924 INTRA-LIGAND FREE ENERGY PREDICTED BY IDOCK:   -0.17 KCAL/MOL
REMARK 927      BINDING AFFINITY PREDICTED BY RF-SCORE:    0.00 PKD
ROOT
HETATM    1  C   UNL     1      -9.806  20.121  67.071  1.00  0.00    -0.595 C  
HETATM    2  C   UNL     1     -10.474  19.475  65.895  1.00  0.00    -0.491 C  
HETATM    3  O   UNL     1     -11.285  20.038  65.174  1.00  0.00    -0.247 OA 
ENDROOT
BRANCH   2   4
HETATM    4  O   UNL     1     -10.085  18.177  65.775  1.00  0.00    -0.563 OA 
BRANCH   4   5
HETATM    5  C   UNL     1      -9.378  17.638  66.908  1.00  0.00    -0.264 C  
HETATM    6  C   UNL     1      -8.146  16.813  66.451  1.00  0.00    -0.320 C  
HETATM    7  N   UNL     1      -8.292  15.365  66.763  1.00  0.00    -0.253 NA 
HETATM    8  C   UNL     1      -8.394  15.205  68.229  1.00  0.00    -0.149 C  
HETATM    9  C   UNL     1      -9.538  16.048  68.818  1.00  0.00    -0.221 C  
HETATM   10  C   UNL     1     -10.333  16.696  67.673  1.00  0.00    -0.305 C  
HETATM   11  C   UNL     1     -10.783  15.567  66.730  1.00  0.00    -0.305 C  
HETATM   12  C   UNL     1      -9.544  14.876  66.139  1.00  0.00    -0.310 C  
ENDBRANCH   4   5
ENDBRANCH   2   4
TORSDOF 2
ENDMDL
MODEL       47
REMARK 921   NORMALIZED FREE ENERGY PREDICTED BY IDOCK:   -3.60 KCAL/MOL
REMARK 922        TOTAL FREE ENERGY PREDICTED BY IDOCK:   -4.19 KCAL/MOL
REMARK 923 INTER-LIGAND FREE ENERGY PREDICTED BY IDOCK:   -3.98 KCAL/MOL
REMARK 924 INTRA-LIGAND FREE ENERGY PREDICTED BY IDOCK:   -0.21 KCAL/MOL
REMARK 927      BINDING AFFINITY PREDICTED BY RF-SCORE:    0.00 PKD
ROOT
HETATM    1  C   UNL     1     -11.256   9.961  70.869  1.00  0.00    -0.433 C  
HETATM    2  C   UNL     1     -12.264  11.040  70.616  1.00  0.00    -0.385 C  
HETATM    3  O   UNL     1     -13.057  11.446  71.454  1.00  0.00    -0.385 OA 
ENDROOT
BRANCH   2   4
HETATM    4  O   UNL     1     -12.200  11.465  69.326  1.00  0.00    -0.305 OA 
BRANCH   4   5
HETATM    5  C   UNL     1     -11.255  12.521  69.070  1.00  0.00    -0.268 C  
HETATM    6  C   UNL     1     -11.983  13.839  68.697  1.00  0.00    -0.366 C  
HETATM    7  N   UNL     1     -11.726  14.244  67.288  1.00  0.00    -0.377 NA 
HETATM    8  C   UNL     1     -10.278  14.495  67.125  1.00  0.00    -0.260 C  
HETATM    9  C   UNL     1      -9.436  13.279  67.546  1.00  0.00    -0.220 C  
HETATM   10  C   UNL     1     -10.370  12.103  67.875  1.00  0.00    -0.216 C  
HETATM   11  C   UNL     1     -11.267  11.873  66.646  1.00  0.00    -0.384 C  
HETATM   12  C   UNL     1     -12.121  13.126  66.400  1.00  0.00    -0.382 C  
ENDBRANCH   4   5
ENDBRANCH   2   4
TORSDOF 2
ENDMDL
MODEL       48
REMARK 921   NORMALIZED FREE ENERGY PREDICTED BY IDOCK:   -3.58 KCAL/MOL
REMARK 922        TOTAL FREE ENERGY PREDICTED BY IDOCK:   -4.17 KCAL/MOL
REMARK 923 INTER-LIGAND FREE ENERGY PREDICTED BY IDOCK:   -4.01 KCAL/MOL
REMARK 924 INTRA-LIGAND FREE ENERGY PREDICTED BY IDOCK:   -0.16 KCAL/MOL
REMARK 927      BINDING AFFINITY PREDICTED BY RF-SCORE:    0.00 PKD
ROOT
HETATM    1  C   UNL     1     -11.622  15.919  64.371  1.00  0.00    -0.234 C  
HETATM    2  C   UNL     1     -12.104  14.529  64.654  1.00  0.00    -0.473 C  
HETATM    3  O   UNL     1     -12.487  13.749  63.795  1.00  0.00    -0.713 OA 
ENDROOT
BRANCH   2   4
HETATM    4  O   UNL     1     -12.095  14.281  65.992  1.00  0.00    -0.405 OA 
BRANCH   4   5
HETATM    5  C   UNL     1     -11.019  14.896  66.726  1.00  0.00    -0.326 C  
HETATM    6  C   UNL     1      -9.747  14.008  66.695  1.00  0.00    -0.289 C  
HETATM    7  N   UNL     1      -9.402  13.474  68.040  1.00  0.00    -0.206 NA 
HETATM    8  C   UNL     1      -9.108  14.610  68.940  1.00  0.00    -0.148 C  
HETATM    9  C   UNL     1     -10.272  15.614  68.990  1.00  0.00    -0.225 C  
HETATM   10  C   UNL     1     -11.463  15.054  68.197  1.00  0.00    -0.355 C  
HETATM   11  C   UNL     1     -11.784  13.663  68.773  1.00  0.00    -0.383 C  
HETATM   12  C   UNL     1     -10.575  12.738  68.567  1.00  0.00    -0.252 C  
ENDBRANCH   4   5
ENDBRANCH   2   4
TORSDOF 2
ENDMDL
MODEL       49
REMARK 921   NORMALIZED FREE ENERGY PREDICTED BY IDOCK:   -3.57 KCAL/MOL
REMARK 922        TOTAL FREE ENERGY PREDICTED BY IDOCK:   -4.16 KCAL/MOL
REMARK 923 INTER-LIGAND FREE ENERGY PREDICTED BY IDOCK:   -4.21 KCAL/MOL
REMARK 924 INTRA-LIGAND FREE ENERGY PREDICTED BY IDOCK:    0.05 KCAL/MOL
REMARK 927      BINDING AFFINITY PREDICTED BY RF-SCORE:    0.00 PKD
ROOT
HETATM    1  C   UNL     1      -8.276  15.291  66.893  1.00  0.00    -0.263 C  
HETATM    2  C   UNL     1      -7.293  16.388  66.616  1.00  0.00    -0.206 C  
HETATM    3  O   UNL     1      -6.105  16.331  66.899  1.00  0.00    -0.313 OA 
ENDROOT
BRANCH   2   4
HETATM    4  O   UNL     1      -7.915  17.459  66.053  1.00  0.00    -0.472 OA 
BRANCH   4   5
HETATM    5  C   UNL     1      -8.135  18.578  66.933  1.00  0.00    -0.245 C  
HETATM    6  C   UNL     1      -8.593  18.099  68.336  1.00  0.00    -0.299 C  
HETATM    7  N   UNL     1      -9.992  18.507  68.640  1.00  0.00    -0.375 NA 
HETATM    8  C   UNL     1     -10.063  19.984  68.648  1.00  0.00    -0.347 C  
HETATM    9  C   UNL     1      -9.551  20.588  67.329  1.00  0.00    -0.580 C  
HETATM   10  C   UNL     1      -9.254  19.456  66.333  1.00  0.00    -0.403 C  
HETATM   11  C   UNL     1     -10.535  18.613  66.202  1.00  0.00    -0.473 C  
HETATM   12  C   UNL     1     -10.873  17.992  67.567  1.00  0.00    -0.234 C  
ENDBRANCH   4   5
ENDBRANCH   2   4
TORSDOF 2
ENDMDL
MODEL       50
REMARK 921   NORMALIZED FREE ENERGY PREDICTED BY IDOCK:   -3.55 KCAL/MOL
REMARK 922        TOTAL FREE ENERGY PREDICTED BY IDOCK:   -4.14 KCAL/MOL
REMARK 923 INTER-LIGAND FREE ENERGY PREDICTED BY IDOCK:   -3.89 KCAL/MOL
REMARK 924 INTRA-LIGAND FREE ENERGY PREDICTED BY IDOCK:   -0.24 KCAL/MOL
REMARK 927      BINDING AFFINITY PREDICTED BY RF-SCORE:    0.00 PKD
ROOT
HETATM    1  C   UNL     1     -12.096  14.096  69.500  1.00  0.00    -0.388 C  
HETATM    2  C   UNL     1     -11.735  15.544  69.641  1.00  0.00    -0.357 C  
HETATM    3  O   UNL     1     -11.744  16.151  70.702  1.00  0.00    -0.368 OA 
ENDROOT
BRANCH   2   4
HETATM    4  O   UNL     1     -11.444  16.087  68.429  1.00  0.00    -0.369 OA 
BRANCH   4   5
HETATM    5  C   UNL     1     -10.493  17.168  68.449  1.00  0.00    -0.376 C  
HETATM    6  C   UNL     1     -10.634  18.056  67.185  1.00  0.00    -0.325 C  
HETATM    7  N   UNL     1      -9.438  17.974  66.304  1.00  0.00    -0.449 NA 
HETATM    8  C   UNL     1      -8.264  18.477  67.050  1.00  0.00    -0.247 C  
HETATM    9  C   UNL     1      -8.066  17.725  68.377  1.00  0.00    -0.297 C  
HETATM   10  C   UNL     1      -9.071  16.565  68.459  1.00  0.00    -0.231 C  
HETATM   11  C   UNL     1      -8.884  15.705  67.196  1.00  0.00    -0.228 C  
HETATM   12  C   UNL     1      -9.210  16.552  65.956  1.00  0.00    -0.260 C  
ENDBRANCH   4   5
ENDBRANCH   2   4
TORSDOF 2
ENDMDL
MODEL       51
REMARK 921   NORMALIZED FREE ENERGY PREDICTED BY IDOCK:   -3.51 KCAL/MOL
REMARK 922        TOTAL FREE ENERGY PREDICTED BY IDOCK:   -4.10 KCAL/MOL
REMARK 923 INTER-LIGAND FREE ENERGY PREDICTED BY IDOCK:   -3.89 KCAL/MOL
REMARK 924 INTRA-LIGAND FREE ENERGY PREDICTED BY IDOCK:   -0.21 KCAL/MOL
REMARK 927      BINDING AFFINITY PREDICTED BY RF-SCORE:    0.00 PKD
ROOT
HETATM    1  C   UNL     1     -11.934  13.891  69.901  1.00  0.00    -0.405 C  
HETATM    2  C   UNL     1     -11.226  13.600  68.613  1.00  0.00    -0.277 C  
HETATM    3  O   UNL     1     -11.423  12.602  67.934  1.00  0.00    -0.267 OA 
ENDROOT
BRANCH   2   4
HETATM    4  O   UNL     1     -10.314  14.570  68.336  1.00  0.00    -0.229 OA 
BRANCH   4   5
HETATM    5  C   UNL     1     -10.855  15.785  67.783  1.00  0.00    -0.316 C  
HETATM    6  C   UNL     1     -10.834  15.746  66.232  1.00  0.00    -0.232 C  
HETATM    7  N   UNL     1      -9.898  16.749  65.656  1.00  0.00    -0.572 NA 
HETATM    8  C   UNL     1     -10.356  18.101  66.043  1.00  0.00    -0.353 C  
HETATM    9  C   UNL     1     -10.498  18.240  67.569  1.00  0.00    -0.431 C  
HETATM   10  C   UNL     1      -9.974  16.965  68.247  1.00  0.00    -0.282 C  
HETATM   11  C   UNL     1      -8.535  16.740  67.751  1.00  0.00    -0.196 C  
HETATM   12  C   UNL     1      -8.552  16.517  66.231  1.00  0.00    -0.332 C  
ENDBRANCH   4   5
ENDBRANCH   2   4
TORSDOF 2
ENDMDL
MODEL       52
REMARK 921   NORMALIZED FREE ENERGY PREDICTED BY IDOCK:   -3.51 KCAL/MOL
REMARK 922        TOTAL FREE ENERGY PREDICTED BY IDOCK:   -4.10 KCAL/MOL
REMARK 923 INTER-LIGAND FREE ENERGY PREDICTED BY IDOCK:   -3.87 KCAL/MOL
REMARK 924 INTRA-LIGAND FREE ENERGY PREDICTED BY IDOCK:   -0.22 KCAL/MOL
REMARK 927      BINDING AFFINITY PREDICTED BY RF-SCORE:    0.00 PKD
ROOT
HETATM    1  C   UNL     1     -12.255  14.121  71.161  1.00  0.00    -0.435 C  
HETATM    2  C   UNL     1     -11.629  15.370  71.704  1.00  0.00    -0.423 C  
HETATM    3  O   UNL     1     -11.565  15.641  72.894  1.00  0.00    -0.437 OA 
ENDROOT
BRANCH   2   4
HETATM    4  O   UNL     1     -11.191  16.166  70.693  1.00  0.00    -0.368 OA 
BRANCH   4   5
HETATM    5  C   UNL     1     -10.666  15.473  69.544  1.00  0.00    -0.272 C  
HETATM    6  C   UNL     1      -9.115  15.467  69.560  1.00  0.00    -0.260 C  
HETATM    7  N   UNL     1      -8.538  16.265  68.444  1.00  0.00    -0.192 NA 
HETATM    8  C   UNL     1      -8.955  15.656  67.162  1.00  0.00    -0.214 C  
HETATM    9  C   UNL     1     -10.485  15.528  67.061  1.00  0.00    -0.304 C  
HETATM   10  C   UNL     1     -11.134  16.215  68.273  1.00  0.00    -0.348 C  
HETATM   11  C   UNL     1     -10.608  17.661  68.317  1.00  0.00    -0.342 C  
HETATM   12  C   UNL     1      -9.085  17.640  68.520  1.00  0.00    -0.279 C  
ENDBRANCH   4   5
ENDBRANCH   2   4
TORSDOF 2
ENDMDL
MODEL       53
REMARK 921   NORMALIZED FREE ENERGY PREDICTED BY IDOCK:   -3.49 KCAL/MOL
REMARK 922        TOTAL FREE ENERGY PREDICTED BY IDOCK:   -4.07 KCAL/MOL
REMARK 923 INTER-LIGAND FREE ENERGY PREDICTED BY IDOCK:   -3.86 KCAL/MOL
REMARK 924 INTRA-LIGAND FREE ENERGY PREDICTED BY IDOCK:   -0.21 KCAL/MOL
REMARK 927      BINDING AFFINITY PREDICTED BY RF-SCORE:    0.00 PKD
ROOT
HETATM    1  C   UNL     1     -13.080  10.666  71.711  1.00  0.00    -0.571 C  
HETATM    2  C   UNL     1     -13.295   9.317  72.328  1.00  0.00    -0.477 C  
HETATM    3  O   UNL     1     -14.395   8.858  72.602  1.00  0.00    -0.613 OA 
ENDROOT
BRANCH   2   4
HETATM    4  O   UNL     1     -12.106   8.706  72.575  1.00  0.00    -0.374 OA 
BRANCH   4   5
HETATM    5  C   UNL     1     -11.519   8.021  71.453  1.00  0.00    -0.258 C  
HETATM    6  C   UNL     1     -11.545   6.485  71.664  1.00  0.00    -0.308 C  
HETATM    7  N   UNL     1     -10.178   5.914  71.809  1.00  0.00    -0.198 NA 
HETATM    8  C   UNL     1      -9.427   6.160  70.559  1.00  0.00    -0.164 C  
HETATM    9  C   UNL     1      -9.401   7.654  70.194  1.00  0.00    -0.157 C  
HETATM   10  C   UNL     1     -10.045   8.467  71.328  1.00  0.00    -0.260 C  
HETATM   11  C   UNL     1      -9.303   8.107  72.628  1.00  0.00    -0.342 C  
HETATM   12  C   UNL     1      -9.495   6.612  72.923  1.00  0.00    -0.138 C  
ENDBRANCH   4   5
ENDBRANCH   2   4
TORSDOF 2
ENDMDL
MODEL       54
REMARK 921   NORMALIZED FREE ENERGY PREDICTED BY IDOCK:   -3.48 KCAL/MOL
REMARK 922        TOTAL FREE ENERGY PREDICTED BY IDOCK:   -4.06 KCAL/MOL
REMARK 923 INTER-LIGAND FREE ENERGY PREDICTED BY IDOCK:   -3.88 KCAL/MOL
REMARK 924 INTRA-LIGAND FREE ENERGY PREDICTED BY IDOCK:   -0.18 KCAL/MOL
REMARK 927      BINDING AFFINITY PREDICTED BY RF-SCORE:    0.00 PKD
ROOT
HETATM    1  C   UNL     1     -12.788  13.368  71.522  1.00  0.00    -0.427 C  
HETATM    2  C   UNL     1     -12.691  14.645  70.742  1.00  0.00    -0.359 C  
HETATM    3  O   UNL     1     -13.435  15.601  70.900  1.00  0.00    -0.569 OA 
ENDROOT
BRANCH   2   4
HETATM    4  O   UNL     1     -11.697  14.568  69.817  1.00  0.00    -0.269 OA 
BRANCH   4   5
HETATM    5  C   UNL     1     -11.545  15.727  68.977  1.00  0.00    -0.400 C  
HETATM    6  C   UNL     1     -11.447  15.320  67.483  1.00  0.00    -0.265 C  
HETATM    7  N   UNL     1     -10.107  15.617  66.907  1.00  0.00    -0.257 NA 
HETATM    8  C   UNL     1      -9.878  17.077  66.968  1.00  0.00    -0.270 C  
HETATM    9  C   UNL     1     -10.032  17.619  68.399  1.00  0.00    -0.356 C  
HETATM   10  C   UNL     1     -10.236  16.445  69.369  1.00  0.00    -0.273 C  
HETATM   11  C   UNL     1      -9.056  15.476  69.170  1.00  0.00    -0.248 C  
HETATM   12  C   UNL     1      -9.082  14.937  67.732  1.00  0.00    -0.185 C  
ENDBRANCH   4   5
ENDBRANCH   2   4
TORSDOF 2
ENDMDL
MODEL       55
REMARK 921   NORMALIZED FREE ENERGY PREDICTED BY IDOCK:   -3.48 KCAL/MOL
REMARK 922        TOTAL FREE ENERGY PREDICTED BY IDOCK:   -4.06 KCAL/MOL
REMARK 923 INTER-LIGAND FREE ENERGY PREDICTED BY IDOCK:   -3.89 KCAL/MOL
REMARK 924 INTRA-LIGAND FREE ENERGY PREDICTED BY IDOCK:   -0.17 KCAL/MOL
REMARK 927      BINDING AFFINITY PREDICTED BY RF-SCORE:    0.00 PKD
ROOT
HETATM    1  C   UNL     1      -8.613  15.562  69.197  1.00  0.00    -0.246 C  
HETATM    2  C   UNL     1     -10.039  15.996  69.355  1.00  0.00    -0.271 C  
HETATM    3  O   UNL     1     -10.570  16.861  68.673  1.00  0.00    -0.322 OA 
ENDROOT
BRANCH   2   4
HETATM    4  O   UNL     1     -10.633  15.330  70.381  1.00  0.00    -0.276 OA 
BRANCH   4   5
HETATM    5  C   UNL     1     -11.880  15.888  70.838  1.00  0.00    -0.417 C  
HETATM    6  C   UNL     1     -11.838  16.164  72.364  1.00  0.00    -0.538 C  
HETATM    7  N   UNL     1     -12.778  15.291  73.119  1.00  0.00    -0.426 NA 
HETATM    8  C   UNL     1     -14.157  15.581  72.671  1.00  0.00    -0.450 C  
HETATM    9  C   UNL     1     -14.307  15.423  71.148  1.00  0.00    -0.284 C  
HETATM   10  C   UNL     1     -13.001  14.862  70.563  1.00  0.00    -0.339 C  
HETATM   11  C   UNL     1     -12.683  13.560  71.319  1.00  0.00    -0.432 C  
HETATM   12  C   UNL     1     -12.460  13.879  72.805  1.00  0.00     0.112 C  
ENDBRANCH   4   5
ENDBRANCH   2   4
TORSDOF 2
ENDMDL
MODEL       56
REMARK 921   NORMALIZED FREE ENERGY PREDICTED BY IDOCK:   -3.48 KCAL/MOL
REMARK 922        TOTAL FREE ENERGY PREDICTED BY IDOCK:   -4.06 KCAL/MOL
REMARK 923 INTER-LIGAND FREE ENERGY PREDICTED BY IDOCK:   -3.87 KCAL/MOL
REMARK 924 INTRA-LIGAND FREE ENERGY PREDICTED BY IDOCK:   -0.18 KCAL/MOL
REMARK 927      BINDING AFFINITY PREDICTED BY RF-SCORE:    0.00 PKD
ROOT
HETATM    1  C   UNL     1      -6.042  20.849  67.976  1.00  0.00    -0.389 C  
HETATM    2  C   UNL     1      -6.341  20.248  69.316  1.00  0.00    -0.293 C  
HETATM    3  O   UNL     1      -5.613  20.355  70.292  1.00  0.00    -0.290 OA 
ENDROOT
BRANCH   2   4
HETATM    4  O   UNL     1      -7.502  19.540  69.277  1.00  0.00    -0.351 OA 
BRANCH   4   5
HETATM    5  C   UNL     1      -8.065  19.352  67.965  1.00  0.00    -0.310 C  
HETATM    6  C   UNL     1      -9.565  19.748  67.943  1.00  0.00    -0.373 C  
HETATM    7  N   UNL     1     -10.452  18.577  67.706  1.00  0.00    -0.407 NA 
HETATM    8  C   UNL     1     -10.141  18.008  66.377  1.00  0.00    -0.384 C  
HETATM    9  C   UNL     1      -8.651  17.649  66.245  1.00  0.00    -0.224 C  
HETATM   10  C   UNL     1      -7.955  17.855  67.599  1.00  0.00    -0.219 C  
HETATM   11  C   UNL     1      -8.728  17.028  68.642  1.00  0.00    -0.261 C  
HETATM   12  C   UNL     1     -10.167  17.557  68.742  1.00  0.00    -0.373 C  
ENDBRANCH   4   5
ENDBRANCH   2   4
TORSDOF 2
ENDMDL
MODEL       57
REMARK 921   NORMALIZED FREE ENERGY PREDICTED BY IDOCK:   -3.47 KCAL/MOL
REMARK 922        TOTAL FREE ENERGY PREDICTED BY IDOCK:   -4.05 KCAL/MOL
REMARK 923 INTER-LIGAND FREE ENERGY PREDICTED BY IDOCK:   -3.88 KCAL/MOL
REMARK 924 INTRA-LIGAND FREE ENERGY PREDICTED BY IDOCK:   -0.17 KCAL/MOL
REMARK 927      BINDING AFFINITY PREDICTED BY RF-SCORE:    0.00 PKD
ROOT
HETATM    1  C   UNL     1     -12.017  14.284  67.105  1.00  0.00    -0.449 C  
HETATM    2  C   UNL     1     -12.388  13.291  66.046  1.00  0.00    -0.386 C  
HETATM    3  O   UNL     1     -13.102  13.547  65.087  1.00  0.00    -0.737 OA 
ENDROOT
BRANCH   2   4
HETATM    4  O   UNL     1     -11.858  12.070  66.326  1.00  0.00    -0.563 OA 
BRANCH   4   5
HETATM    5  C   UNL     1     -10.431  11.964  66.161  1.00  0.00    -0.237 C  
HETATM    6  C   UNL     1     -10.073  10.917  65.074  1.00  0.00    -0.300 C  
HETATM    7  N   UNL     1      -9.373   9.733  65.642  1.00  0.00    -0.208 NA 
HETATM    8  C   UNL     1      -8.096  10.181  66.241  1.00  0.00    -0.124 C  
HETATM    9  C   UNL     1      -8.313  11.289  67.285  1.00  0.00    -0.145 C  
HETATM   10  C   UNL     1      -9.820  11.498  67.501  1.00  0.00    -0.203 C  
HETATM   11  C   UNL     1     -10.423  10.132  67.875  1.00  0.00    -0.265 C  
HETATM   12  C   UNL     1     -10.223   9.153  66.707  1.00  0.00    -0.261 C  
ENDBRANCH   4   5
ENDBRANCH   2   4
TORSDOF 2
ENDMDL
MODEL       58
REMARK 921   NORMALIZED FREE ENERGY PREDICTED BY IDOCK:   -3.45 KCAL/MOL
REMARK 922        TOTAL FREE ENERGY PREDICTED BY IDOCK:   -4.02 KCAL/MOL
REMARK 923 INTER-LIGAND FREE ENERGY PREDICTED BY IDOCK:   -3.77 KCAL/MOL
REMARK 924 INTRA-LIGAND FREE ENERGY PREDICTED BY IDOCK:   -0.25 KCAL/MOL
REMARK 927      BINDING AFFINITY PREDICTED BY RF-SCORE:    0.00 PKD
ROOT
HETATM    1  C   UNL     1      -9.834  11.105  68.498  1.00  0.00    -0.199 C  
HETATM    2  C   UNL     1     -11.192  10.905  69.100  1.00  0.00    -0.256 C  
HETATM    3  O   UNL     1     -12.238  11.205  68.543  1.00  0.00    -0.600 OA 
ENDROOT
BRANCH   2   4
HETATM    4  O   UNL     1     -11.090  10.390  70.355  1.00  0.00    -0.301 OA 
BRANCH   4   5
HETATM    5  C   UNL     1     -11.765   9.135  70.563  1.00  0.00    -0.152 C  
HETATM    6  C   UNL     1     -12.204   8.979  72.043  1.00  0.00    -0.375 C  
HETATM    7  N   UNL     1     -11.475   7.880  72.733  1.00  0.00    -0.399 NA 
HETATM    8  C   UNL     1     -11.792   6.604  72.056  1.00  0.00    -0.324 C  
HETATM    9  C   UNL     1     -11.477   6.661  70.552  1.00  0.00    -0.432 C  
HETATM   10  C   UNL     1     -10.781   7.992  70.228  1.00  0.00    -0.239 C  
HETATM   11  C   UNL     1      -9.554   8.105  71.149  1.00  0.00    -0.196 C  
HETATM   12  C   UNL     1     -10.021   8.136  72.613  1.00  0.00    -0.301 C  
ENDBRANCH   4   5
ENDBRANCH   2   4
TORSDOF 2
ENDMDL
MODEL       59
REMARK 921   NORMALIZED FREE ENERGY PREDICTED BY IDOCK:   -3.45 KCAL/MOL
REMARK 922        TOTAL FREE ENERGY PREDICTED BY IDOCK:   -4.02 KCAL/MOL
REMARK 923 INTER-LIGAND FREE ENERGY PREDICTED BY IDOCK:   -3.80 KCAL/MOL
REMARK 924 INTRA-LIGAND FREE ENERGY PREDICTED BY IDOCK:   -0.22 KCAL/MOL
REMARK 927      BINDING AFFINITY PREDICTED BY RF-SCORE:    0.00 PKD
ROOT
HETATM    1  C   UNL     1      -9.798  10.884  68.897  1.00  0.00    -0.203 C  
HETATM    2  C   UNL     1     -11.223  10.483  68.657  1.00  0.00    -0.270 C  
HETATM    3  O   UNL     1     -11.841  10.736  67.633  1.00  0.00    -0.505 OA 
ENDROOT
BRANCH   2   4
HETATM    4  O   UNL     1     -11.733   9.847  69.745  1.00  0.00    -0.152 OA 
BRANCH   4   5
HETATM    5  C   UNL     1     -10.817   8.976  70.436  1.00  0.00    -0.246 C  
HETATM    6  C   UNL     1     -11.024   7.500  70.007  1.00  0.00    -0.240 C  
HETATM    7  N   UNL     1     -11.540   6.658  71.121  1.00  0.00    -0.315 NA 
HETATM    8  C   UNL     1     -10.540   6.650  72.210  1.00  0.00    -0.214 C  
HETATM    9  C   UNL     1     -10.185   8.074  72.670  1.00  0.00    -0.385 C  
HETATM   10  C   UNL     1     -11.095   9.082  71.952  1.00  0.00    -0.433 C  
HETATM   11  C   UNL     1     -12.550   8.661  72.223  1.00  0.00    -0.457 C  
HETATM   12  C   UNL     1     -12.793   7.266  71.626  1.00  0.00    -0.375 C  
ENDBRANCH   4   5
ENDBRANCH   2   4
TORSDOF 2
ENDMDL
MODEL       60
REMARK 921   NORMALIZED FREE ENERGY PREDICTED BY IDOCK:   -3.38 KCAL/MOL
REMARK 922        TOTAL FREE ENERGY PREDICTED BY IDOCK:   -3.95 KCAL/MOL
REMARK 923 INTER-LIGAND FREE ENERGY PREDICTED BY IDOCK:   -3.78 KCAL/MOL
REMARK 924 INTRA-LIGAND FREE ENERGY PREDICTED BY IDOCK:   -0.18 KCAL/MOL
REMARK 927      BINDING AFFINITY PREDICTED BY RF-SCORE:    0.00 PKD
ROOT
HETATM    1  C   UNL     1      -7.907  12.331  68.029  1.00  0.00    -0.147 C  
HETATM    2  C   UNL     1      -8.611  13.630  67.776  1.00  0.00    -0.182 C  
HETATM    3  O   UNL     1      -8.800  14.484  68.630  1.00  0.00    -0.181 OA 
ENDROOT
BRANCH   2   4
HETATM    4  O   UNL     1      -9.042  13.699  66.487  1.00  0.00    -0.216 OA 
BRANCH   4   5
HETATM    5  C   UNL     1     -10.398  14.151  66.314  1.00  0.00    -0.292 C  
HETATM    6  C   UNL     1     -11.405  13.112  66.875  1.00  0.00    -0.318 C  
HETATM    7  N   UNL     1     -12.232  12.495  65.802  1.00  0.00    -0.626 NA 
HETATM    8  C   UNL     1     -13.032  13.557  65.152  1.00  0.00    -0.201 C  
HETATM    9  C   UNL     1     -12.144  14.697  64.624  1.00  0.00    -0.466 C  
HETATM   10  C   UNL     1     -10.666  14.316  64.802  1.00  0.00    -0.435 C  
HETATM   11  C   UNL     1     -10.455  12.959  64.107  1.00  0.00    -0.429 C  
HETATM   12  C   UNL     1     -11.325  11.896  64.797  1.00  0.00    -0.283 C  
ENDBRANCH   4   5
ENDBRANCH   2   4
TORSDOF 2
ENDMDL
MODEL       61
REMARK 921   NORMALIZED FREE ENERGY PREDICTED BY IDOCK:   -3.37 KCAL/MOL
REMARK 922        TOTAL FREE ENERGY PREDICTED BY IDOCK:   -3.94 KCAL/MOL
REMARK 923 INTER-LIGAND FREE ENERGY PREDICTED BY IDOCK:   -3.69 KCAL/MOL
REMARK 924 INTRA-LIGAND FREE ENERGY PREDICTED BY IDOCK:   -0.25 KCAL/MOL
REMARK 927      BINDING AFFINITY PREDICTED BY RF-SCORE:    0.00 PKD
ROOT
HETATM    1  C   UNL     1      -8.397  15.764  67.289  1.00  0.00    -0.213 C  
HETATM    2  C   UNL     1      -9.224  15.729  66.039  1.00  0.00    -0.344 C  
HETATM    3  O   UNL     1      -9.679  16.723  65.492  1.00  0.00    -0.537 OA 
ENDROOT
BRANCH   2   4
HETATM    4  O   UNL     1      -9.429  14.447  65.634  1.00  0.00    -0.194 OA 
BRANCH   4   5
HETATM    5  C   UNL     1      -9.808  13.525  66.673  1.00  0.00    -0.279 C  
HETATM    6  C   UNL     1      -9.182  12.126  66.430  1.00  0.00    -0.207 C  
HETATM    7  N   UNL     1     -10.211  11.094  66.130  1.00  0.00    -0.237 NA 
HETATM    8  C   UNL     1     -11.107  10.964  67.300  1.00  0.00    -0.283 C  
HETATM    9  C   UNL     1     -11.730  12.314  67.695  1.00  0.00    -0.403 C  
HETATM   10  C   UNL     1     -11.345  13.376  66.653  1.00  0.00    -0.350 C  
HETATM   11  C   UNL     1     -11.778  12.844  65.275  1.00  0.00    -0.399 C  
HETATM   12  C   UNL     1     -11.007  11.551  64.967  1.00  0.00    -0.241 C  
ENDBRANCH   4   5
ENDBRANCH   2   4
TORSDOF 2
ENDMDL
MODEL       62
REMARK 921   NORMALIZED FREE ENERGY PREDICTED BY IDOCK:   -3.36 KCAL/MOL
REMARK 922        TOTAL FREE ENERGY PREDICTED BY IDOCK:   -3.92 KCAL/MOL
REMARK 923 INTER-LIGAND FREE ENERGY PREDICTED BY IDOCK:   -3.73 KCAL/MOL
REMARK 924 INTRA-LIGAND FREE ENERGY PREDICTED BY IDOCK:   -0.19 KCAL/MOL
REMARK 927      BINDING AFFINITY PREDICTED BY RF-SCORE:    0.00 PKD
ROOT
HETATM    1  C   UNL     1     -12.758  10.931  70.729  1.00  0.00    -0.431 C  
HETATM    2  C   UNL     1     -11.378  10.977  70.146  1.00  0.00    -0.251 C  
HETATM    3  O   UNL     1     -10.552  10.086  70.272  1.00  0.00    -0.275 OA 
ENDROOT
BRANCH   2   4
HETATM    4  O   UNL     1     -11.168  12.157  69.502  1.00  0.00    -0.217 OA 
BRANCH   4   5
HETATM    5  C   UNL     1     -11.834  12.295  68.233  1.00  0.00    -0.310 C  
HETATM    6  C   UNL     1     -11.119  11.460  67.138  1.00  0.00    -0.305 C  
HETATM    7  N   UNL     1     -10.497  12.318  66.093  1.00  0.00    -0.235 NA 
HETATM    8  C   UNL     1     -11.563  13.087  65.415  1.00  0.00    -0.341 C  
HETATM    9  C   UNL     1     -12.404  13.899  66.415  1.00  0.00    -0.468 C  
HETATM   10  C   UNL     1     -11.784  13.781  67.816  1.00  0.00    -0.393 C  
HETATM   11  C   UNL     1     -10.313  14.219  67.705  1.00  0.00    -0.248 C  
HETATM   12  C   UNL     1      -9.571  13.265  66.756  1.00  0.00    -0.258 C  
ENDBRANCH   4   5
ENDBRANCH   2   4
TORSDOF 2
ENDMDL
MODEL       63
REMARK 921   NORMALIZED FREE ENERGY PREDICTED BY IDOCK:   -3.33 KCAL/MOL
REMARK 922        TOTAL FREE ENERGY PREDICTED BY IDOCK:   -3.89 KCAL/MOL
REMARK 923 INTER-LIGAND FREE ENERGY PREDICTED BY IDOCK:   -3.75 KCAL/MOL
REMARK 924 INTRA-LIGAND FREE ENERGY PREDICTED BY IDOCK:   -0.14 KCAL/MOL
REMARK 927      BINDING AFFINITY PREDICTED BY RF-SCORE:    0.00 PKD
ROOT
HETATM    1  C   UNL     1      -8.516  19.564  66.151  1.00  0.00    -0.329 C  
HETATM    2  C   UNL     1      -9.939  19.103  66.253  1.00  0.00    -0.401 C  
HETATM    3  O   UNL     1     -10.867  19.818  66.603  1.00  0.00    -0.467 OA 
ENDROOT
BRANCH   2   4
HETATM    4  O   UNL     1     -10.039  17.782  65.945  1.00  0.00    -0.526 OA 
BRANCH   4   5
HETATM    5  C   UNL     1     -10.584  16.946  66.984  1.00  0.00    -0.230 C  
HETATM    6  C   UNL     1      -9.704  17.003  68.261  1.00  0.00    -0.275 C  
HETATM    7  N   UNL     1      -9.047  15.699  68.549  1.00  0.00    -0.189 NA 
HETATM    8  C   UNL     1     -10.094  14.685  68.797  1.00  0.00    -0.235 C  
HETATM    9  C   UNL     1     -11.088  14.593  67.626  1.00  0.00    -0.311 C  
HETATM   10  C   UNL     1     -10.603  15.488  66.475  1.00  0.00    -0.307 C  
HETATM   11  C   UNL     1      -9.164  15.059  66.136  1.00  0.00    -0.294 C  
HETATM   12  C   UNL     1      -8.263  15.296  67.358  1.00  0.00    -0.184 C  
ENDBRANCH   4   5
ENDBRANCH   2   4
TORSDOF 2
ENDMDL
MODEL       64
REMARK 921   NORMALIZED FREE ENERGY PREDICTED BY IDOCK:   -3.33 KCAL/MOL
REMARK 922        TOTAL FREE ENERGY PREDICTED BY IDOCK:   -3.89 KCAL/MOL
REMARK 923 INTER-LIGAND FREE ENERGY PREDICTED BY IDOCK:   -3.84 KCAL/MOL
REMARK 924 INTRA-LIGAND FREE ENERGY PREDICTED BY IDOCK:   -0.05 KCAL/MOL
REMARK 927      BINDING AFFINITY PREDICTED BY RF-SCORE:    0.00 PKD
ROOT
HETATM    1  C   UNL     1     -10.983  11.544  68.337  1.00  0.00    -0.267 C  
HETATM    2  C   UNL     1     -11.776  12.506  67.505  1.00  0.00    -0.374 C  
HETATM    3  O   UNL     1     -12.141  12.282  66.360  1.00  0.00    -0.623 OA 
ENDROOT
BRANCH   2   4
HETATM    4  O   UNL     1     -11.990  13.665  68.184  1.00  0.00    -0.362 OA 
BRANCH   4   5
HETATM    5  C   UNL     1     -11.440  14.848  67.574  1.00  0.00    -0.348 C  
HETATM    6  C   UNL     1     -10.007  14.583  67.043  1.00  0.00    -0.255 C  
HETATM    7  N   UNL     1      -8.979  15.360  67.788  1.00  0.00    -0.172 NA 
HETATM    8  C   UNL     1      -9.245  16.802  67.597  1.00  0.00    -0.223 C  
HETATM    9  C   UNL     1     -10.678  17.178  68.013  1.00  0.00    -0.372 C  
HETATM   10  C   UNL     1     -11.361  15.956  68.647  1.00  0.00    -0.376 C  
HETATM   11  C   UNL     1     -10.460  15.473  69.798  1.00  0.00    -0.308 C  
HETATM   12  C   UNL     1      -9.101  15.037  69.228  1.00  0.00    -0.157 C  
ENDBRANCH   4   5
ENDBRANCH   2   4
TORSDOF 2
ENDMDL
MODEL       65
REMARK 921   NORMALIZED FREE ENERGY PREDICTED BY IDOCK:   -3.32 KCAL/MOL
REMARK 922        TOTAL FREE ENERGY PREDICTED BY IDOCK:   -3.88 KCAL/MOL
REMARK 923 INTER-LIGAND FREE ENERGY PREDICTED BY IDOCK:   -3.65 KCAL/MOL
REMARK 924 INTRA-LIGAND FREE ENERGY PREDICTED BY IDOCK:   -0.23 KCAL/MOL
REMARK 927      BINDING AFFINITY PREDICTED BY RF-SCORE:    0.00 PKD
ROOT
HETATM    1  C   UNL     1      -8.976  14.440  67.023  1.00  0.00    -0.257 C  
HETATM    2  C   UNL     1      -7.827  15.401  66.977  1.00  0.00    -0.209 C  
HETATM    3  O   UNL     1      -6.697  15.135  67.361  1.00  0.00    -0.207 OA 
ENDROOT
BRANCH   2   4
HETATM    4  O   UNL     1      -8.228  16.608  66.495  1.00  0.00    -0.235 OA 
BRANCH   4   5
HETATM    5  C   UNL     1      -9.253  17.269  67.261  1.00  0.00    -0.232 C  
HETATM    6  C   UNL     1     -10.289  17.951  66.330  1.00  0.00    -0.365 C  
HETATM    7  N   UNL     1     -10.254  19.435  66.443  1.00  0.00    -0.425 NA 
HETATM    8  C   UNL     1     -10.609  19.813  67.828  1.00  0.00    -0.361 C  
HETATM    9  C   UNL     1      -9.697  19.127  68.859  1.00  0.00    -0.474 C  
HETATM   10  C   UNL     1      -8.585  18.361  68.125  1.00  0.00    -0.301 C  
HETATM   11  C   UNL     1      -7.873  19.363  67.199  1.00  0.00    -0.279 C  
HETATM   12  C   UNL     1      -8.874  19.893  66.161  1.00  0.00    -0.306 C  
ENDBRANCH   4   5
ENDBRANCH   2   4
TORSDOF 2
ENDMDL
MODEL       66
REMARK 921   NORMALIZED FREE ENERGY PREDICTED BY IDOCK:   -3.31 KCAL/MOL
REMARK 922        TOTAL FREE ENERGY PREDICTED BY IDOCK:   -3.86 KCAL/MOL
REMARK 923 INTER-LIGAND FREE ENERGY PREDICTED BY IDOCK:   -3.64 KCAL/MOL
REMARK 924 INTRA-LIGAND FREE ENERGY PREDICTED BY IDOCK:   -0.22 KCAL/MOL
REMARK 927      BINDING AFFINITY PREDICTED BY RF-SCORE:    0.00 PKD
ROOT
HETATM    1  C   UNL     1      -8.994  14.769  66.583  1.00  0.00    -0.286 C  
HETATM    2  C   UNL     1      -9.690  15.875  65.848  1.00  0.00    -0.351 C  
HETATM    3  O   UNL     1     -10.791  15.763  65.327  1.00  0.00    -0.378 OA 
ENDROOT
BRANCH   2   4
HETATM    4  O   UNL     1      -8.912  16.989  65.807  1.00  0.00    -0.526 OA 
BRANCH   4   5
HETATM    5  C   UNL     1      -8.284  17.349  67.052  1.00  0.00    -0.217 C  
HETATM    6  C   UNL     1      -9.034  18.525  67.732  1.00  0.00    -0.275 C  
HETATM    7  N   UNL     1      -8.209  19.762  67.785  1.00  0.00    -0.300 NA 
HETATM    8  C   UNL     1      -7.006  19.494  68.602  1.00  0.00    -0.322 C  
HETATM    9  C   UNL     1      -6.214  18.285  68.073  1.00  0.00    -0.181 C  
HETATM   10  C   UNL     1      -6.839  17.806  66.754  1.00  0.00    -0.226 C  
HETATM   11  C   UNL     1      -6.884  19.015  65.802  1.00  0.00    -0.311 C  
HETATM   12  C   UNL     1      -7.786  20.103  66.407  1.00  0.00    -0.269 C  
ENDBRANCH   4   5
ENDBRANCH   2   4
TORSDOF 2
ENDMDL
MODEL       67
REMARK 921   NORMALIZED FREE ENERGY PREDICTED BY IDOCK:   -3.29 KCAL/MOL
REMARK 922        TOTAL FREE ENERGY PREDICTED BY IDOCK:   -3.85 KCAL/MOL
REMARK 923 INTER-LIGAND FREE ENERGY PREDICTED BY IDOCK:   -3.64 KCAL/MOL
REMARK 924 INTRA-LIGAND FREE ENERGY PREDICTED BY IDOCK:   -0.21 KCAL/MOL
REMARK 927      BINDING AFFINITY PREDICTED BY RF-SCORE:    0.00 PKD
ROOT
HETATM    1  C   UNL     1      -8.858   8.002  67.558  1.00  0.00    -0.129 C  
HETATM    2  C   UNL     1     -10.325   7.768  67.757  1.00  0.00    -0.221 C  
HETATM    3  O   UNL     1     -11.011   7.066  67.028  1.00  0.00    -0.375 OA 
ENDROOT
BRANCH   2   4
HETATM    4  O   UNL     1     -10.784   8.476  68.824  1.00  0.00    -0.169 OA 
BRANCH   4   5
HETATM    5  C   UNL     1     -10.435   7.941  70.115  1.00  0.00    -0.231 C  
HETATM    6  C   UNL     1     -11.562   7.023  70.658  1.00  0.00    -0.335 C  
HETATM    7  N   UNL     1     -12.215   7.592  71.869  1.00  0.00    -0.300 NA 
HETATM    8  C   UNL     1     -11.204   7.708  72.942  1.00  0.00    -0.372 C  
HETATM    9  C   UNL     1      -9.986   8.533  72.492  1.00  0.00    -0.322 C  
HETATM   10  C   UNL     1     -10.256   9.119  71.097  1.00  0.00    -0.384 C  
HETATM   11  C   UNL     1     -11.576   9.907  71.178  1.00  0.00    -0.468 C  
HETATM   12  C   UNL     1     -12.719   8.945  71.537  1.00  0.00    -0.335 C  
ENDBRANCH   4   5
ENDBRANCH   2   4
TORSDOF 2
ENDMDL
MODEL       68
REMARK 921   NORMALIZED FREE ENERGY PREDICTED BY IDOCK:   -3.28 KCAL/MOL
REMARK 922        TOTAL FREE ENERGY PREDICTED BY IDOCK:   -3.84 KCAL/MOL
REMARK 923 INTER-LIGAND FREE ENERGY PREDICTED BY IDOCK:   -3.64 KCAL/MOL
REMARK 924 INTRA-LIGAND FREE ENERGY PREDICTED BY IDOCK:   -0.20 KCAL/MOL
REMARK 927      BINDING AFFINITY PREDICTED BY RF-SCORE:    0.00 PKD
ROOT
HETATM    1  C   UNL     1     -10.753  16.941  67.729  1.00  0.00    -0.315 C  
HETATM    2  C   UNL     1     -10.344  18.371  67.536  1.00  0.00    -0.393 C  
HETATM    3  O   UNL     1     -11.125  19.311  67.536  1.00  0.00    -0.423 OA 
ENDROOT
BRANCH   2   4
HETATM    4  O   UNL     1      -9.004  18.462  67.321  1.00  0.00    -0.258 OA 
BRANCH   4   5
HETATM    5  C   UNL     1      -8.320  19.457  68.105  1.00  0.00    -0.328 C  
HETATM    6  C   UNL     1      -7.630  20.506  67.193  1.00  0.00    -0.326 C  
HETATM    7  N   UNL     1      -6.146  20.445  67.290  1.00  0.00    -0.188 NA 
HETATM    8  C   UNL     1      -5.749  20.761  68.679  1.00  0.00    -0.353 C  
HETATM    9  C   UNL     1      -6.440  19.834  69.694  1.00  0.00    -0.389 C  
HETATM   10  C   UNL     1      -7.230  18.752  68.941  1.00  0.00    -0.333 C  
HETATM   11  C   UNL     1      -6.248  18.047  67.988  1.00  0.00    -0.175 C  
HETATM   12  C   UNL     1      -5.713  19.065  66.969  1.00  0.00    -0.155 C  
ENDBRANCH   4   5
ENDBRANCH   2   4
TORSDOF 2
ENDMDL
MODEL       69
REMARK 921   NORMALIZED FREE ENERGY PREDICTED BY IDOCK:   -3.28 KCAL/MOL
REMARK 922        TOTAL FREE ENERGY PREDICTED BY IDOCK:   -3.83 KCAL/MOL
REMARK 923 INTER-LIGAND FREE ENERGY PREDICTED BY IDOCK:   -3.64 KCAL/MOL
REMARK 924 INTRA-LIGAND FREE ENERGY PREDICTED BY IDOCK:   -0.19 KCAL/MOL
REMARK 927      BINDING AFFINITY PREDICTED BY RF-SCORE:    0.00 PKD
ROOT
HETATM    1  C   UNL     1      -7.289  11.463  66.743  1.00  0.00    -0.135 C  
HETATM    2  C   UNL     1      -7.764  12.775  67.290  1.00  0.00    -0.127 C  
HETATM    3  O   UNL     1      -7.025  13.708  67.570  1.00  0.00    -0.165 OA 
ENDROOT
BRANCH   2   4
HETATM    4  O   UNL     1      -9.112  12.761  67.469  1.00  0.00    -0.177 OA 
BRANCH   4   5
HETATM    5  C   UNL     1      -9.895  12.855  66.263  1.00  0.00    -0.273 C  
HETATM    6  C   UNL     1      -9.928  14.314  65.736  1.00  0.00    -0.323 C  
HETATM    7  N   UNL     1     -11.290  14.909  65.812  1.00  0.00    -0.337 NA 
HETATM    8  C   UNL     1     -12.199  14.122  64.950  1.00  0.00    -0.438 C  
HETATM    9  C   UNL     1     -12.190  12.630  65.324  1.00  0.00    -0.532 C  
HETATM   10  C   UNL     1     -11.342  12.427  66.589  1.00  0.00    -0.394 C  
HETATM   11  C   UNL     1     -11.907  13.361  67.675  1.00  0.00    -0.394 C  
HETATM   12  C   UNL     1     -11.762  14.819  67.213  1.00  0.00    -0.347 C  
ENDBRANCH   4   5
ENDBRANCH   2   4
TORSDOF 2
ENDMDL
MODEL       70
REMARK 921   NORMALIZED FREE ENERGY PREDICTED BY IDOCK:   -3.26 KCAL/MOL
REMARK 922        TOTAL FREE ENERGY PREDICTED BY IDOCK:   -3.81 KCAL/MOL
REMARK 923 INTER-LIGAND FREE ENERGY PREDICTED BY IDOCK:   -3.59 KCAL/MOL
REMARK 924 INTRA-LIGAND FREE ENERGY PREDICTED BY IDOCK:   -0.22 KCAL/MOL
REMARK 927      BINDING AFFINITY PREDICTED BY RF-SCORE:    0.00 PKD
ROOT
HETATM    1  C   UNL     1      -7.021  17.003  67.779  1.00  0.00    -0.159 C  
HETATM    2  C   UNL     1      -7.595  16.976  66.394  1.00  0.00    -0.315 C  
HETATM    3  O   UNL     1      -7.630  17.945  65.649  1.00  0.00    -0.546 OA 
ENDROOT
BRANCH   2   4
HETATM    4  O   UNL     1      -8.102  15.747  66.108  1.00  0.00    -0.099 OA 
BRANCH   4   5
HETATM    5  C   UNL     1      -9.084  15.253  67.039  1.00  0.00    -0.225 C  
HETATM    6  C   UNL     1      -9.398  13.757  66.773  1.00  0.00    -0.266 C  
HETATM    7  N   UNL     1     -10.793  13.551  66.299  1.00  0.00    -0.288 NA 
HETATM    8  C   UNL     1     -11.724  14.001  67.356  1.00  0.00    -0.388 C  
HETATM    9  C   UNL     1     -11.456  15.459  67.769  1.00  0.00    -0.284 C  
HETATM   10  C   UNL     1     -10.386  16.061  66.846  1.00  0.00    -0.289 C  
HETATM   11  C   UNL     1     -10.876  15.881  65.398  1.00  0.00    -0.361 C  
HETATM   12  C   UNL     1     -11.004  14.381  65.090  1.00  0.00    -0.373 C  
ENDBRANCH   4   5
ENDBRANCH   2   4
TORSDOF 2
ENDMDL
MODEL       71
REMARK 921   NORMALIZED FREE ENERGY PREDICTED BY IDOCK:   -3.26 KCAL/MOL
REMARK 922        TOTAL FREE ENERGY PREDICTED BY IDOCK:   -3.81 KCAL/MOL
REMARK 923 INTER-LIGAND FREE ENERGY PREDICTED BY IDOCK:   -3.64 KCAL/MOL
REMARK 924 INTRA-LIGAND FREE ENERGY PREDICTED BY IDOCK:   -0.16 KCAL/MOL
REMARK 927      BINDING AFFINITY PREDICTED BY RF-SCORE:    0.00 PKD
ROOT
HETATM    1  C   UNL     1     -10.246  10.866  67.290  1.00  0.00    -0.242 C  
HETATM    2  C   UNL     1     -11.223  10.476  68.358  1.00  0.00    -0.279 C  
HETATM    3  O   UNL     1     -12.224  11.120  68.639  1.00  0.00    -0.582 OA 
ENDROOT
BRANCH   2   4
HETATM    4  O   UNL     1     -10.817   9.342  68.990  1.00  0.00    -0.211 OA 
BRANCH   4   5
HETATM    5  C   UNL     1     -10.863   9.387  70.429  1.00  0.00    -0.269 C  
HETATM    6  C   UNL     1      -9.487   9.014  71.040  1.00  0.00    -0.274 C  
HETATM    7  N   UNL     1      -9.537   7.732  71.795  1.00  0.00    -0.159 NA 
HETATM    8  C   UNL     1     -10.479   7.884  72.925  1.00  0.00    -0.355 C  
HETATM    9  C   UNL     1     -11.870   8.338  72.450  1.00  0.00    -0.461 C  
HETATM   10  C   UNL     1     -11.904   8.355  70.914  1.00  0.00    -0.237 C  
HETATM   11  C   UNL     1     -11.482   6.956  70.431  1.00  0.00    -0.387 C  
HETATM   12  C   UNL     1     -10.043   6.674  70.889  1.00  0.00    -0.187 C  
ENDBRANCH   4   5
ENDBRANCH   2   4
TORSDOF 2
ENDMDL
MODEL       72
REMARK 921   NORMALIZED FREE ENERGY PREDICTED BY IDOCK:   -3.24 KCAL/MOL
REMARK 922        TOTAL FREE ENERGY PREDICTED BY IDOCK:   -3.80 KCAL/MOL
REMARK 923 INTER-LIGAND FREE ENERGY PREDICTED BY IDOCK:   -3.60 KCAL/MOL
REMARK 924 INTRA-LIGAND FREE ENERGY PREDICTED BY IDOCK:   -0.20 KCAL/MOL
REMARK 927      BINDING AFFINITY PREDICTED BY RF-SCORE:    0.00 PKD
ROOT
HETATM    1  C   UNL     1     -10.374  19.981  66.368  1.00  0.00    -0.573 C  
HETATM    2  C   UNL     1     -10.569  18.562  65.926  1.00  0.00    -0.300 C  
HETATM    3  O   UNL     1     -11.010  18.240  64.832  1.00  0.00    -0.660 OA 
ENDROOT
BRANCH   2   4
HETATM    4  O   UNL     1     -10.231  17.698  66.921  1.00  0.00    -0.311 OA 
BRANCH   4   5
HETATM    5  C   UNL     1      -9.200  16.749  66.590  1.00  0.00    -0.256 C  
HETATM    6  C   UNL     1      -9.757  15.301  66.596  1.00  0.00    -0.252 C  
HETATM    7  N   UNL     1      -9.166  14.476  67.685  1.00  0.00    -0.190 NA 
HETATM    8  C   UNL     1      -7.708  14.372  67.463  1.00  0.00    -0.192 C  
HETATM    9  C   UNL     1      -7.047  15.757  67.353  1.00  0.00    -0.236 C  
HETATM   10  C   UNL     1      -8.090  16.844  67.658  1.00  0.00    -0.193 C  
HETATM   11  C   UNL     1      -8.695  16.526  69.037  1.00  0.00    -0.215 C  
HETATM   12  C   UNL     1      -9.406  15.164  68.975  1.00  0.00    -0.219 C  
ENDBRANCH   4   5
ENDBRANCH   2   4
TORSDOF 2
ENDMDL
MODEL       73
REMARK 921   NORMALIZED FREE ENERGY PREDICTED BY IDOCK:   -3.24 KCAL/MOL
REMARK 922        TOTAL FREE ENERGY PREDICTED BY IDOCK:   -3.79 KCAL/MOL
REMARK 923 INTER-LIGAND FREE ENERGY PREDICTED BY IDOCK:   -3.57 KCAL/MOL
REMARK 924 INTRA-LIGAND FREE ENERGY PREDICTED BY IDOCK:   -0.23 KCAL/MOL
REMARK 927      BINDING AFFINITY PREDICTED BY RF-SCORE:    0.00 PKD
ROOT
HETATM    1  C   UNL     1     -12.839  12.012  63.514  1.00  0.00    -0.472 C  
HETATM    2  C   UNL     1     -12.562  12.778  64.773  1.00  0.00    -0.446 C  
HETATM    3  O   UNL     1     -13.353  13.555  65.289  1.00  0.00    -0.618 OA 
ENDROOT
BRANCH   2   4
HETATM    4  O   UNL     1     -11.306  12.520  65.225  1.00  0.00    -0.303 OA 
BRANCH   4   5
HETATM    5  C   UNL     1     -11.234  11.869  66.508  1.00  0.00    -0.327 C  
HETATM    6  C   UNL     1     -10.239  12.600  67.447  1.00  0.00    -0.217 C  
HETATM    7  N   UNL     1      -9.046  11.768  67.761  1.00  0.00    -0.171 NA 
HETATM    8  C   UNL     1      -9.492  10.552  68.475  1.00  0.00    -0.164 C  
HETATM    9  C   UNL     1     -10.552   9.776  67.674  1.00  0.00    -0.333 C  
HETATM   10  C   UNL     1     -10.723  10.427  66.292  1.00  0.00    -0.107 C  
HETATM   11  C   UNL     1      -9.332  10.483  65.636  1.00  0.00    -0.242 C  
HETATM   12  C   UNL     1      -8.407  11.368  66.486  1.00  0.00    -0.164 C  
ENDBRANCH   4   5
ENDBRANCH   2   4
TORSDOF 2
ENDMDL
MODEL       74
REMARK 921   NORMALIZED FREE ENERGY PREDICTED BY IDOCK:   -3.19 KCAL/MOL
REMARK 922        TOTAL FREE ENERGY PREDICTED BY IDOCK:   -3.73 KCAL/MOL
REMARK 923 INTER-LIGAND FREE ENERGY PREDICTED BY IDOCK:   -3.51 KCAL/MOL
REMARK 924 INTRA-LIGAND FREE ENERGY PREDICTED BY IDOCK:   -0.22 KCAL/MOL
REMARK 927      BINDING AFFINITY PREDICTED BY RF-SCORE:    0.00 PKD
ROOT
HETATM    1  C   UNL     1      -7.623  17.329  66.265  1.00  0.00    -0.360 C  
HETATM    2  C   UNL     1      -8.079  16.690  67.542  1.00  0.00    -0.168 C  
HETATM    3  O   UNL     1      -7.975  17.211  68.643  1.00  0.00    -0.248 OA 
ENDROOT
BRANCH   2   4
HETATM    4  O   UNL     1      -8.577  15.446  67.306  1.00  0.00    -0.171 OA 
BRANCH   4   5
HETATM    5  C   UNL     1      -9.724  15.396  66.437  1.00  0.00    -0.288 C  
HETATM    6  C   UNL     1     -11.026  15.718  67.218  1.00  0.00    -0.259 C  
HETATM    7  N   UNL     1     -11.936  14.544  67.303  1.00  0.00    -0.394 NA 
HETATM    8  C   UNL     1     -12.343  14.161  65.933  1.00  0.00    -0.463 C  
HETATM    9  C   UNL     1     -11.127  13.894  65.030  1.00  0.00    -0.353 C  
HETATM   10  C   UNL     1      -9.843  13.964  65.871  1.00  0.00    -0.287 C  
HETATM   11  C   UNL     1     -10.006  12.977  67.040  1.00  0.00    -0.242 C  
HETATM   12  C   UNL     1     -11.192  13.418  67.913  1.00  0.00    -0.275 C  
ENDBRANCH   4   5
ENDBRANCH   2   4
TORSDOF 2
ENDMDL
MODEL       75
REMARK 921   NORMALIZED FREE ENERGY PREDICTED BY IDOCK:   -3.16 KCAL/MOL
REMARK 922        TOTAL FREE ENERGY PREDICTED BY IDOCK:   -3.70 KCAL/MOL
REMARK 923 INTER-LIGAND FREE ENERGY PREDICTED BY IDOCK:   -3.53 KCAL/MOL
REMARK 924 INTRA-LIGAND FREE ENERGY PREDICTED BY IDOCK:   -0.17 KCAL/MOL
REMARK 927      BINDING AFFINITY PREDICTED BY RF-SCORE:    0.00 PKD
ROOT
HETATM    1  C   UNL     1      -8.270   6.667  74.170  1.00  0.00    -0.141 C  
HETATM    2  C   UNL     1      -8.166   8.135  73.888  1.00  0.00    -0.250 C  
HETATM    3  O   UNL     1      -7.379   8.885  74.448  1.00  0.00    -0.411 OA 
ENDROOT
BRANCH   2   4
HETATM    4  O   UNL     1      -9.091   8.514  72.966  1.00  0.00    -0.270 OA 
BRANCH   4   5
HETATM    5  C   UNL     1      -9.831   7.439  72.357  1.00  0.00    -0.167 C  
HETATM    6  C   UNL     1      -9.525   7.346  70.838  1.00  0.00    -0.165 C  
HETATM    7  N   UNL     1     -10.713   7.677  70.005  1.00  0.00    -0.239 NA 
HETATM    8  C   UNL     1     -11.780   6.692  70.287  1.00  0.00    -0.371 C  
HETATM    9  C   UNL     1     -12.117   6.631  71.787  1.00  0.00    -0.400 C  
HETATM   10  C   UNL     1     -11.338   7.728  72.529  1.00  0.00    -0.429 C  
HETATM   11  C   UNL     1     -11.671   9.068  71.848  1.00  0.00    -0.445 C  
HETATM   12  C   UNL     1     -11.192   9.025  70.388  1.00  0.00    -0.241 C  
ENDBRANCH   4   5
ENDBRANCH   2   4
TORSDOF 2
ENDMDL
MODEL       76
REMARK 921   NORMALIZED FREE ENERGY PREDICTED BY IDOCK:   -3.13 KCAL/MOL
REMARK 922        TOTAL FREE ENERGY PREDICTED BY IDOCK:   -3.67 KCAL/MOL
REMARK 923 INTER-LIGAND FREE ENERGY PREDICTED BY IDOCK:   -3.47 KCAL/MOL
REMARK 924 INTRA-LIGAND FREE ENERGY PREDICTED BY IDOCK:   -0.20 KCAL/MOL
REMARK 927      BINDING AFFINITY PREDICTED BY RF-SCORE:    0.00 PKD
ROOT
HETATM    1  C   UNL     1     -10.999   6.319  67.021  1.00  0.00    -0.442 C  
HETATM    2  C   UNL     1     -10.507   7.637  67.537  1.00  0.00    -0.266 C  
HETATM    3  O   UNL     1     -10.480   8.665  66.874  1.00  0.00    -0.294 OA 
ENDROOT
BRANCH   2   4
HETATM    4  O   UNL     1     -10.059   7.516  68.815  1.00  0.00    -0.175 OA 
BRANCH   4   5
HETATM    5  C   UNL     1     -10.955   8.006  69.831  1.00  0.00    -0.172 C  
HETATM    6  C   UNL     1     -10.182   8.805  70.914  1.00  0.00    -0.226 C  
HETATM    7  N   UNL     1     -10.204   8.124  72.237  1.00  0.00    -0.252 NA 
HETATM    8  C   UNL     1     -11.606   8.028  72.697  1.00  0.00    -0.387 C  
HETATM    9  C   UNL     1     -12.499   7.322  71.662  1.00  0.00    -0.394 C  
HETATM   10  C   UNL     1     -11.626   6.793  70.513  1.00  0.00    -0.426 C  
HETATM   11  C   UNL     1     -10.535   5.905  71.137  1.00  0.00    -0.291 C  
HETATM   12  C   UNL     1      -9.660   6.757  72.069  1.00  0.00    -0.147 C  
ENDBRANCH   4   5
ENDBRANCH   2   4
TORSDOF 2
ENDMDL
MODEL       77
REMARK 921   NORMALIZED FREE ENERGY PREDICTED BY IDOCK:   -3.10 KCAL/MOL
REMARK 922        TOTAL FREE ENERGY PREDICTED BY IDOCK:   -3.63 KCAL/MOL
REMARK 923 INTER-LIGAND FREE ENERGY PREDICTED BY IDOCK:   -3.40 KCAL/MOL
REMARK 924 INTRA-LIGAND FREE ENERGY PREDICTED BY IDOCK:   -0.23 KCAL/MOL
REMARK 927      BINDING AFFINITY PREDICTED BY RF-SCORE:    0.00 PKD
ROOT
HETATM    1  C   UNL     1     -10.443   7.245  67.245  1.00  0.00    -0.380 C  
HETATM    2  C   UNL     1      -9.447   7.526  68.329  1.00  0.00    -0.144 C  
HETATM    3  O   UNL     1      -8.342   8.013  68.134  1.00  0.00    -0.125 OA 
ENDROOT
BRANCH   2   4
HETATM    4  O   UNL     1      -9.926   7.125  69.537  1.00  0.00    -0.161 OA 
BRANCH   4   5
HETATM    5  C   UNL     1     -11.205   7.674  69.906  1.00  0.00    -0.085 C  
HETATM    6  C   UNL     1     -11.038   9.048  70.608  1.00  0.00    -0.265 C  
HETATM    7  N   UNL     1     -11.451   9.003  72.037  1.00  0.00    -0.367 NA 
HETATM    8  C   UNL     1     -12.888   8.661  72.104  1.00  0.00    -0.391 C  
HETATM    9  C   UNL     1     -13.198   7.348  71.364  1.00  0.00    -0.395 C  
HETATM   10  C   UNL     1     -11.883   6.704  70.899  1.00  0.00    -0.434 C  
HETATM   11  C   UNL     1     -10.984   6.549  72.138  1.00  0.00    -0.283 C  
HETATM   12  C   UNL     1     -10.674   7.939  72.716  1.00  0.00    -0.371 C  
ENDBRANCH   4   5
ENDBRANCH   2   4
TORSDOF 2
ENDMDL
MODEL       78
REMARK 921   NORMALIZED FREE ENERGY PREDICTED BY IDOCK:   -3.09 KCAL/MOL
REMARK 922        TOTAL FREE ENERGY PREDICTED BY IDOCK:   -3.63 KCAL/MOL
REMARK 923 INTER-LIGAND FREE ENERGY PREDICTED BY IDOCK:   -3.49 KCAL/MOL
REMARK 924 INTRA-LIGAND FREE ENERGY PREDICTED BY IDOCK:   -0.14 KCAL/MOL
REMARK 927      BINDING AFFINITY PREDICTED BY RF-SCORE:    0.00 PKD
ROOT
HETATM    1  C   UNL     1     -10.613  11.501  66.012  1.00  0.00    -0.310 C  
HETATM    2  C   UNL     1     -11.049  11.855  67.402  1.00  0.00    -0.279 C  
HETATM    3  O   UNL     1     -12.033  11.381  67.951  1.00  0.00    -0.626 OA 
ENDROOT
BRANCH   2   4
HETATM    4  O   UNL     1     -10.228  12.797  67.937  1.00  0.00    -0.217 OA 
BRANCH   4   5
HETATM    5  C   UNL     1      -9.538  13.627  66.984  1.00  0.00    -0.251 C  
HETATM    6  C   UNL     1      -8.196  14.144  67.568  1.00  0.00    -0.186 C  
HETATM    7  N   UNL     1      -8.201  15.619  67.767  1.00  0.00    -0.141 NA 
HETATM    8  C   UNL     1      -8.376  16.274  66.453  1.00  0.00    -0.330 C  
HETATM    9  C   UNL     1      -9.641  15.777  65.731  1.00  0.00    -0.355 C  
HETATM   10  C   UNL     1     -10.429  14.848  66.667  1.00  0.00    -0.292 C  
HETATM   11  C   UNL     1     -10.693  15.625  67.970  1.00  0.00    -0.287 C  
HETATM   12  C   UNL     1      -9.350  15.970  68.634  1.00  0.00    -0.214 C  
ENDBRANCH   4   5
ENDBRANCH   2   4
TORSDOF 2
ENDMDL
MODEL       79
REMARK 921   NORMALIZED FREE ENERGY PREDICTED BY IDOCK:   -3.08 KCAL/MOL
REMARK 922        TOTAL FREE ENERGY PREDICTED BY IDOCK:   -3.61 KCAL/MOL
REMARK 923 INTER-LIGAND FREE ENERGY PREDICTED BY IDOCK:   -3.53 KCAL/MOL
REMARK 924 INTRA-LIGAND FREE ENERGY PREDICTED BY IDOCK:   -0.08 KCAL/MOL
REMARK 927      BINDING AFFINITY PREDICTED BY RF-SCORE:    0.00 PKD
ROOT
HETATM    1  C   UNL     1      -6.817  20.582  66.869  1.00  0.00    -0.332 C  
HETATM    2  C   UNL     1      -7.543  19.786  67.911  1.00  0.00    -0.296 C  
HETATM    3  O   UNL     1      -7.267  19.805  69.102  1.00  0.00    -0.342 OA 
ENDROOT
BRANCH   2   4
HETATM    4  O   UNL     1      -8.510  19.018  67.342  1.00  0.00    -0.273 OA 
BRANCH   4   5
HETATM    5  C   UNL     1      -9.058  17.989  68.187  1.00  0.00    -0.276 C  
HETATM    6  C   UNL     1      -8.129  16.747  68.225  1.00  0.00    -0.202 C  
HETATM    7  N   UNL     1      -8.755  15.556  67.589  1.00  0.00    -0.172 NA 
HETATM    8  C   UNL     1      -9.974  15.201  68.348  1.00  0.00    -0.222 C  
HETATM    9  C   UNL     1     -10.947  16.387  68.453  1.00  0.00    -0.353 C  
HETATM   10  C   UNL     1     -10.421  17.554  67.604  1.00  0.00    -0.370 C  
HETATM   11  C   UNL     1     -10.205  17.022  66.176  1.00  0.00    -0.346 C  
HETATM   12  C   UNL     1      -9.140  15.914  66.204  1.00  0.00    -0.350 C  
ENDBRANCH   4   5
ENDBRANCH   2   4
TORSDOF 2
ENDMDL
MODEL       80
REMARK 921   NORMALIZED FREE ENERGY PREDICTED BY IDOCK:   -3.08 KCAL/MOL
REMARK 922        TOTAL FREE ENERGY PREDICTED BY IDOCK:   -3.61 KCAL/MOL
REMARK 923 INTER-LIGAND FREE ENERGY PREDICTED BY IDOCK:   -3.63 KCAL/MOL
REMARK 924 INTRA-LIGAND FREE ENERGY PREDICTED BY IDOCK:    0.02 KCAL/MOL
REMARK 927      BINDING AFFINITY PREDICTED BY RF-SCORE:    0.00 PKD
ROOT
HETATM    1  C   UNL     1      -9.331   4.157  69.955  1.00  0.00    -0.237 C  
HETATM    2  C   UNL     1     -10.356   5.184  69.581  1.00  0.00    -0.246 C  
HETATM    3  O   UNL     1     -10.621   5.499  68.430  1.00  0.00    -0.197 OA 
ENDROOT
BRANCH   2   4
HETATM    4  O   UNL     1     -10.908   5.739  70.694  1.00  0.00    -0.275 OA 
BRANCH   4   5
HETATM    5  C   UNL     1     -11.528   7.024  70.499  1.00  0.00    -0.319 C  
HETATM    6  C   UNL     1     -10.470   8.104  70.151  1.00  0.00    -0.225 C  
HETATM    7  N   UNL     1     -10.342   9.131  71.221  1.00  0.00    -0.311 NA 
HETATM    8  C   UNL     1     -11.637   9.831  71.363  1.00  0.00    -0.378 C  
HETATM    9  C   UNL     1     -12.791   8.849  71.630  1.00  0.00    -0.401 C  
HETATM   10  C   UNL     1     -12.222   7.434  71.816  1.00  0.00    -0.359 C  
HETATM   11  C   UNL     1     -11.166   7.508  72.934  1.00  0.00    -0.396 C  
HETATM   12  C   UNL     1     -10.028   8.442  72.495  1.00  0.00    -0.285 C  
ENDBRANCH   4   5
ENDBRANCH   2   4
TORSDOF 2
ENDMDL
MODEL       81
REMARK 921   NORMALIZED FREE ENERGY PREDICTED BY IDOCK:   -3.07 KCAL/MOL
REMARK 922        TOTAL FREE ENERGY PREDICTED BY IDOCK:   -3.60 KCAL/MOL
REMARK 923 INTER-LIGAND FREE ENERGY PREDICTED BY IDOCK:   -3.37 KCAL/MOL
REMARK 924 INTRA-LIGAND FREE ENERGY PREDICTED BY IDOCK:   -0.23 KCAL/MOL
REMARK 927      BINDING AFFINITY PREDICTED BY RF-SCORE:    0.00 PKD
ROOT
HETATM    1  C   UNL     1      -6.695   7.541  71.648  1.00  0.00    -0.049 C  
HETATM    2  C   UNL     1      -7.777   7.993  72.582  1.00  0.00    -0.122 C  
HETATM    3  O   UNL     1      -7.583   8.692  73.566  1.00  0.00    -0.376 OA 
ENDROOT
BRANCH   2   4
HETATM    4  O   UNL     1      -8.980   7.483  72.205  1.00  0.00    -0.127 OA 
BRANCH   4   5
HETATM    5  C   UNL     1     -10.103   8.371  72.362  1.00  0.00    -0.316 C  
HETATM    6  C   UNL     1     -11.354   7.602  72.863  1.00  0.00    -0.341 C  
HETATM    7  N   UNL     1     -12.439   7.571  71.845  1.00  0.00    -0.311 NA 
HETATM    8  C   UNL     1     -12.872   8.958  71.571  1.00  0.00    -0.334 C  
HETATM    9  C   UNL     1     -11.693   9.849  71.142  1.00  0.00    -0.478 C  
HETATM   10  C   UNL     1     -10.433   8.985  70.984  1.00  0.00    -0.339 C  
HETATM   11  C   UNL     1     -10.775   7.851  70.001  1.00  0.00    -0.244 C  
HETATM   12  C   UNL     1     -11.894   6.984  70.599  1.00  0.00    -0.330 C  
ENDBRANCH   4   5
ENDBRANCH   2   4
TORSDOF 2
ENDMDL
MODEL       82
REMARK 921   NORMALIZED FREE ENERGY PREDICTED BY IDOCK:   -3.05 KCAL/MOL
REMARK 922        TOTAL FREE ENERGY PREDICTED BY IDOCK:   -3.57 KCAL/MOL
REMARK 923 INTER-LIGAND FREE ENERGY PREDICTED BY IDOCK:   -3.36 KCAL/MOL
REMARK 924 INTRA-LIGAND FREE ENERGY PREDICTED BY IDOCK:   -0.21 KCAL/MOL
REMARK 927      BINDING AFFINITY PREDICTED BY RF-SCORE:    0.00 PKD
ROOT
HETATM    1  C   UNL     1      -8.915  10.360  68.848  1.00  0.00    -0.170 C  
HETATM    2  C   UNL     1      -9.621  10.177  67.539  1.00  0.00    -0.156 C  
HETATM    3  O   UNL     1     -10.052   9.105  67.138  1.00  0.00    -0.199 OA 
ENDROOT
BRANCH   2   4
HETATM    4  O   UNL     1      -9.671  11.350  66.852  1.00  0.00    -0.189 OA 
BRANCH   4   5
HETATM    5  C   UNL     1     -10.946  12.020  66.867  1.00  0.00    -0.281 C  
HETATM    6  C   UNL     1     -11.555  12.088  65.442  1.00  0.00    -0.286 C  
HETATM    7  N   UNL     1     -11.636  13.483  64.931  1.00  0.00    -0.324 NA 
HETATM    8  C   UNL     1     -12.532  14.260  65.816  1.00  0.00    -0.403 C  
HETATM    9  C   UNL     1     -12.076  14.199  67.284  1.00  0.00    -0.407 C  
HETATM   10  C   UNL     1     -10.730  13.464  67.370  1.00  0.00    -0.269 C  
HETATM   11  C   UNL     1      -9.754  14.182  66.420  1.00  0.00    -0.313 C  
HETATM   12  C   UNL     1     -10.281  14.079  64.980  1.00  0.00    -0.368 C  
ENDBRANCH   4   5
ENDBRANCH   2   4
TORSDOF 2
ENDMDL
MODEL       83
REMARK 921   NORMALIZED FREE ENERGY PREDICTED BY IDOCK:   -3.04 KCAL/MOL
REMARK 922        TOTAL FREE ENERGY PREDICTED BY IDOCK:   -3.56 KCAL/MOL
REMARK 923 INTER-LIGAND FREE ENERGY PREDICTED BY IDOCK:   -3.34 KCAL/MOL
REMARK 924 INTRA-LIGAND FREE ENERGY PREDICTED BY IDOCK:   -0.22 KCAL/MOL
REMARK 927      BINDING AFFINITY PREDICTED BY RF-SCORE:    0.00 PKD
ROOT
HETATM    1  C   UNL     1     -10.655  15.089  66.209  1.00  0.00    -0.309 C  
HETATM    2  C   UNL     1     -10.070  16.330  65.605  1.00  0.00    -0.312 C  
HETATM    3  O   UNL     1     -10.712  17.142  64.956  1.00  0.00    -0.712 OA 
ENDROOT
BRANCH   2   4
HETATM    4  O   UNL     1      -8.733  16.396  65.845  1.00  0.00    -0.425 OA 
BRANCH   4   5
HETATM    5  C   UNL     1      -8.262  17.652  66.369  1.00  0.00    -0.263 C  
HETATM    6  C   UNL     1      -7.017  18.149  65.586  1.00  0.00    -0.177 C  
HETATM    7  N   UNL     1      -5.790  18.157  66.429  1.00  0.00    -0.154 NA 
HETATM    8  C   UNL     1      -5.993  19.099  67.551  1.00  0.00    -0.190 C  
HETATM    9  C   UNL     1      -7.256  18.759  68.361  1.00  0.00    -0.304 C  
HETATM   10  C   UNL     1      -7.853  17.441  67.843  1.00  0.00    -0.201 C  
HETATM   11  C   UNL     1      -6.741  16.378  67.905  1.00  0.00    -0.150 C  
HETATM   12  C   UNL     1      -5.589  16.796  66.977  1.00  0.00    -0.143 C  
ENDBRANCH   4   5
ENDBRANCH   2   4
TORSDOF 2
ENDMDL
MODEL       84
REMARK 921   NORMALIZED FREE ENERGY PREDICTED BY IDOCK:   -3.00 KCAL/MOL
REMARK 922        TOTAL FREE ENERGY PREDICTED BY IDOCK:   -3.53 KCAL/MOL
REMARK 923 INTER-LIGAND FREE ENERGY PREDICTED BY IDOCK:   -3.38 KCAL/MOL
REMARK 924 INTRA-LIGAND FREE ENERGY PREDICTED BY IDOCK:   -0.15 KCAL/MOL
REMARK 927      BINDING AFFINITY PREDICTED BY RF-SCORE:    0.00 PKD
ROOT
HETATM    1  C   UNL     1      -9.730   8.662  68.707  1.00  0.00    -0.171 C  
HETATM    2  C   UNL     1     -10.278   9.306  67.468  1.00  0.00    -0.242 C  
HETATM    3  O   UNL     1     -10.172   8.831  66.347  1.00  0.00    -0.289 OA 
ENDROOT
BRANCH   2   4
HETATM    4  O   UNL     1     -10.861  10.498  67.764  1.00  0.00    -0.249 OA 
BRANCH   4   5
HETATM    5  C   UNL     1     -10.887  11.456  66.689  1.00  0.00    -0.289 C  
HETATM    6  C   UNL     1      -9.529  12.196  66.572  1.00  0.00    -0.231 C  
HETATM    7  N   UNL     1      -9.646  13.642  66.904  1.00  0.00    -0.254 NA 
HETATM    8  C   UNL     1     -10.564  14.278  65.934  1.00  0.00    -0.302 C  
HETATM    9  C   UNL     1     -11.931  13.573  65.896  1.00  0.00    -0.444 C  
HETATM   10  C   UNL     1     -11.982  12.501  66.995  1.00  0.00    -0.295 C  
HETATM   11  C   UNL     1     -11.651  13.195  68.328  1.00  0.00    -0.370 C  
HETATM   12  C   UNL     1     -10.225  13.764  68.262  1.00  0.00    -0.245 C  
ENDBRANCH   4   5
ENDBRANCH   2   4
TORSDOF 2
ENDMDL
MODEL       85
REMARK 921   NORMALIZED FREE ENERGY PREDICTED BY IDOCK:   -2.99 KCAL/MOL
REMARK 922        TOTAL FREE ENERGY PREDICTED BY IDOCK:   -3.51 KCAL/MOL
REMARK 923 INTER-LIGAND FREE ENERGY PREDICTED BY IDOCK:   -3.28 KCAL/MOL
REMARK 924 INTRA-LIGAND FREE ENERGY PREDICTED BY IDOCK:   -0.23 KCAL/MOL
REMARK 927      BINDING AFFINITY PREDICTED BY RF-SCORE:    0.00 PKD
ROOT
HETATM    1  C   UNL     1      -8.491  15.473  69.151  1.00  0.00    -0.248 C  
HETATM    2  C   UNL     1      -9.233  16.726  68.796  1.00  0.00    -0.260 C  
HETATM    3  O   UNL     1     -10.293  17.062  69.306  1.00  0.00    -0.308 OA 
ENDROOT
BRANCH   2   4
HETATM    4  O   UNL     1      -8.589  17.402  67.807  1.00  0.00    -0.221 OA 
BRANCH   4   5
HETATM    5  C   UNL     1      -8.255  18.770  68.111  1.00  0.00    -0.304 C  
HETATM    6  C   UNL     1      -8.610  19.705  66.925  1.00  0.00    -0.315 C  
HETATM    7  N   UNL     1      -7.400  20.302  66.299  1.00  0.00    -0.269 NA 
HETATM    8  C   UNL     1      -6.707  21.135  67.306  1.00  0.00    -0.351 C  
HETATM    9  C   UNL     1      -6.373  20.334  68.576  1.00  0.00    -0.347 C  
HETATM   10  C   UNL     1      -6.732  18.856  68.355  1.00  0.00    -0.270 C  
HETATM   11  C   UNL     1      -5.996  18.390  67.087  1.00  0.00    -0.166 C  
HETATM   12  C   UNL     1      -6.497  19.204  65.883  1.00  0.00    -0.225 C  
ENDBRANCH   4   5
ENDBRANCH   2   4
TORSDOF 2
ENDMDL
MODEL       86
REMARK 921   NORMALIZED FREE ENERGY PREDICTED BY IDOCK:   -2.98 KCAL/MOL
REMARK 922        TOTAL FREE ENERGY PREDICTED BY IDOCK:   -3.50 KCAL/MOL
REMARK 923 INTER-LIGAND FREE ENERGY PREDICTED BY IDOCK:   -3.68 KCAL/MOL
REMARK 924 INTRA-LIGAND FREE ENERGY PREDICTED BY IDOCK:    0.17 KCAL/MOL
REMARK 927      BINDING AFFINITY PREDICTED BY RF-SCORE:    0.00 PKD
ROOT
HETATM    1  C   UNL     1     -10.734  17.144  68.139  1.00  0.00    -0.366 C  
HETATM    2  C   UNL     1     -10.315  18.344  67.344  1.00  0.00    -0.391 C  
HETATM    3  O   UNL     1     -10.848  19.441  67.427  1.00  0.00    -0.490 OA 
ENDROOT
BRANCH   2   4
HETATM    4  O   UNL     1      -9.299  18.028  66.497  1.00  0.00    -0.280 OA 
BRANCH   4   5
HETATM    5  C   UNL     1      -7.994  17.947  67.101  1.00  0.00    -0.210 C  
HETATM    6  C   UNL     1      -7.952  18.736  68.437  1.00  0.00    -0.334 C  
HETATM    7  N   UNL     1      -7.054  19.921  68.362  1.00  0.00    -0.296 NA 
HETATM    8  C   UNL     1      -5.676  19.454  68.098  1.00  0.00    -0.199 C  
HETATM    9  C   UNL     1      -5.601  18.583  66.832  1.00  0.00    -0.158 C  
HETATM   10  C   UNL     1      -6.970  18.580  66.134  1.00  0.00    -0.295 C  
HETATM   11  C   UNL     1      -7.360  20.048  65.884  1.00  0.00    -0.327 C  
HETATM   12  C   UNL     1      -7.496  20.772  67.233  1.00  0.00    -0.328 C  
ENDBRANCH   4   5
ENDBRANCH   2   4
TORSDOF 2
ENDMDL
MODEL       87
REMARK 921   NORMALIZED FREE ENERGY PREDICTED BY IDOCK:   -2.95 KCAL/MOL
REMARK 922        TOTAL FREE ENERGY PREDICTED BY IDOCK:   -3.47 KCAL/MOL
REMARK 923 INTER-LIGAND FREE ENERGY PREDICTED BY IDOCK:   -3.24 KCAL/MOL
REMARK 924 INTRA-LIGAND FREE ENERGY PREDICTED BY IDOCK:   -0.23 KCAL/MOL
REMARK 927      BINDING AFFINITY PREDICTED BY RF-SCORE:    0.00 PKD
ROOT
HETATM    1  C   UNL     1     -12.562  13.602  65.372  1.00  0.00    -0.533 C  
HETATM    2  C   UNL     1     -11.583  13.829  66.483  1.00  0.00    -0.365 C  
HETATM    3  O   UNL     1     -11.746  14.639  67.384  1.00  0.00    -0.379 OA 
ENDROOT
BRANCH   2   4
HETATM    4  O   UNL     1     -10.482  13.046  66.321  1.00  0.00    -0.268 OA 
BRANCH   4   5
HETATM    5  C   UNL     1     -10.329  11.990  67.289  1.00  0.00    -0.212 C  
HETATM    6  C   UNL     1      -8.853  11.871  67.751  1.00  0.00    -0.166 C  
HETATM    7  N   UNL     1      -8.231  10.590  67.320  1.00  0.00    -0.118 NA 
HETATM    8  C   UNL     1      -8.966   9.471  67.947  1.00  0.00    -0.123 C  
HETATM    9  C   UNL     1     -10.470   9.527  67.628  1.00  0.00    -0.321 C  
HETATM   10  C   UNL     1     -10.735  10.658  66.622  1.00  0.00    -0.246 C  
HETATM   11  C   UNL     1      -9.827  10.411  65.404  1.00  0.00    -0.347 C  
HETATM   12  C   UNL     1      -8.357  10.481  65.848  1.00  0.00    -0.161 C  
ENDBRANCH   4   5
ENDBRANCH   2   4
TORSDOF 2
ENDMDL
MODEL       88
REMARK 921   NORMALIZED FREE ENERGY PREDICTED BY IDOCK:   -2.92 KCAL/MOL
REMARK 922        TOTAL FREE ENERGY PREDICTED BY IDOCK:   -3.43 KCAL/MOL
REMARK 923 INTER-LIGAND FREE ENERGY PREDICTED BY IDOCK:   -3.22 KCAL/MOL
REMARK 924 INTRA-LIGAND FREE ENERGY PREDICTED BY IDOCK:   -0.21 KCAL/MOL
REMARK 927      BINDING AFFINITY PREDICTED BY RF-SCORE:    0.00 PKD
ROOT
HETATM    1  C   UNL     1     -10.688  15.289  67.052  1.00  0.00    -0.313 C  
HETATM    2  C   UNL     1     -11.745  14.540  67.807  1.00  0.00    -0.374 C  
HETATM    3  O   UNL     1     -12.204  13.464  67.455  1.00  0.00    -0.326 OA 
ENDROOT
BRANCH   2   4
HETATM    4  O   UNL     1     -12.142  15.243  68.901  1.00  0.00    -0.286 OA 
BRANCH   4   5
HETATM    5  C   UNL     1     -12.895  14.496  69.875  1.00  0.00     0.056 C  
HETATM    6  C   UNL     1     -13.939  15.399  70.583  1.00  0.00     0.258 C  
HETATM    7  N   UNL     1     -13.631  15.589  72.026  1.00  0.00    -0.478 NA 
HETATM    8  C   UNL     1     -13.680  14.273  72.699  1.00  0.00    -0.452 C  
HETATM    9  C   UNL     1     -12.740  13.255  72.029  1.00  0.00    -0.211 C  
HETATM   10  C   UNL     1     -11.915  13.962  70.943  1.00  0.00    -0.310 C  
HETATM   11  C   UNL     1     -11.205  15.154  71.609  1.00  0.00    -0.312 C  
HETATM   12  C   UNL     1     -12.259  16.136  72.144  1.00  0.00    -0.473 C  
ENDBRANCH   4   5
ENDBRANCH   2   4
TORSDOF 2
ENDMDL
MODEL       89
REMARK 921   NORMALIZED FREE ENERGY PREDICTED BY IDOCK:   -2.89 KCAL/MOL
REMARK 922        TOTAL FREE ENERGY PREDICTED BY IDOCK:   -3.40 KCAL/MOL
REMARK 923 INTER-LIGAND FREE ENERGY PREDICTED BY IDOCK:   -3.23 KCAL/MOL
REMARK 924 INTRA-LIGAND FREE ENERGY PREDICTED BY IDOCK:   -0.17 KCAL/MOL
REMARK 927      BINDING AFFINITY PREDICTED BY RF-SCORE:    0.00 PKD
ROOT
HETATM    1  C   UNL     1      -8.372  19.142  66.610  1.00  0.00    -0.309 C  
HETATM    2  C   UNL     1      -8.583  18.238  67.787  1.00  0.00    -0.256 C  
HETATM    3  O   UNL     1      -7.952  18.316  68.831  1.00  0.00    -0.274 OA 
ENDROOT
BRANCH   2   4
HETATM    4  O   UNL     1      -9.533  17.305  67.512  1.00  0.00    -0.241 OA 
BRANCH   4   5
HETATM    5  C   UNL     1      -9.045  15.961  67.337  1.00  0.00    -0.196 C  
HETATM    6  C   UNL     1      -9.257  15.479  65.878  1.00  0.00    -0.270 C  
HETATM    7  N   UNL     1     -10.242  14.367  65.791  1.00  0.00    -0.320 NA 
HETATM    8  C   UNL     1      -9.718  13.211  66.550  1.00  0.00    -0.268 C  
HETATM    9  C   UNL     1      -9.387  13.586  68.005  1.00  0.00    -0.213 C  
HETATM   10  C   UNL     1      -9.843  15.029  68.274  1.00  0.00    -0.219 C  
HETATM   11  C   UNL     1     -11.336  15.113  67.910  1.00  0.00    -0.346 C  
HETATM   12  C   UNL     1     -11.510  14.814  66.413  1.00  0.00    -0.319 C  
ENDBRANCH   4   5
ENDBRANCH   2   4
TORSDOF 2
ENDMDL
MODEL       90
REMARK 921   NORMALIZED FREE ENERGY PREDICTED BY IDOCK:   -2.88 KCAL/MOL
REMARK 922        TOTAL FREE ENERGY PREDICTED BY IDOCK:   -3.39 KCAL/MOL
REMARK 923 INTER-LIGAND FREE ENERGY PREDICTED BY IDOCK:   -3.12 KCAL/MOL
REMARK 924 INTRA-LIGAND FREE ENERGY PREDICTED BY IDOCK:   -0.26 KCAL/MOL
REMARK 927      BINDING AFFINITY PREDICTED BY RF-SCORE:    0.00 PKD
ROOT
HETATM    1  C   UNL     1      -8.984  14.647  67.439  1.00  0.00    -0.202 C  
HETATM    2  C   UNL     1      -8.838  15.607  68.582  1.00  0.00    -0.201 C  
HETATM    3  O   UNL     1      -9.523  15.575  69.594  1.00  0.00    -0.273 OA 
ENDROOT
BRANCH   2   4
HETATM    4  O   UNL     1      -7.877  16.531  68.313  1.00  0.00    -0.163 OA 
BRANCH   4   5
HETATM    5  C   UNL     1      -8.127  17.365  67.166  1.00  0.00    -0.208 C  
HETATM    6  C   UNL     1      -6.804  17.959  66.614  1.00  0.00    -0.203 C  
HETATM    7  N   UNL     1      -6.741  19.437  66.776  1.00  0.00    -0.195 NA 
HETATM    8  C   UNL     1      -7.842  20.047  65.998  1.00  0.00    -0.286 C  
HETATM    9  C   UNL     1      -9.211  19.472  66.400  1.00  0.00    -0.426 C  
HETATM   10  C   UNL     1      -9.036  18.534  67.604  1.00  0.00    -0.283 C  
HETATM   11  C   UNL     1      -8.323  19.334  68.709  1.00  0.00    -0.386 C  
HETATM   12  C   UNL     1      -6.933  19.759  68.210  1.00  0.00    -0.298 C  
ENDBRANCH   4   5
ENDBRANCH   2   4
TORSDOF 2
ENDMDL
MODEL       91
REMARK 921   NORMALIZED FREE ENERGY PREDICTED BY IDOCK:   -2.87 KCAL/MOL
REMARK 922        TOTAL FREE ENERGY PREDICTED BY IDOCK:   -3.37 KCAL/MOL
REMARK 923 INTER-LIGAND FREE ENERGY PREDICTED BY IDOCK:   -3.12 KCAL/MOL
REMARK 924 INTRA-LIGAND FREE ENERGY PREDICTED BY IDOCK:   -0.26 KCAL/MOL
REMARK 927      BINDING AFFINITY PREDICTED BY RF-SCORE:    0.00 PKD
ROOT
HETATM    1  C   UNL     1     -10.964   8.209  71.283  1.00  0.00    -0.281 C  
HETATM    2  C   UNL     1     -11.761   9.478  71.241  1.00  0.00    -0.370 C  
HETATM    3  O   UNL     1     -12.915   9.575  71.632  1.00  0.00    -0.342 OA 
ENDROOT
BRANCH   2   4
HETATM    4  O   UNL     1     -11.038  10.480  70.672  1.00  0.00    -0.292 OA 
BRANCH   4   5
HETATM    5  C   UNL     1     -10.379  10.141  69.437  1.00  0.00    -0.232 C  
HETATM    6  C   UNL     1      -9.054  10.932  69.280  1.00  0.00     0.023 C  
HETATM    7  N   UNL     1      -9.107  11.900  68.151  1.00  0.00    -0.185 NA 
HETATM    8  C   UNL     1      -9.308  11.149  66.893  1.00  0.00    -0.175 C  
HETATM    9  C   UNL     1     -10.558  10.254  66.956  1.00  0.00    -0.302 C  
HETATM   10  C   UNL     1     -11.311  10.524  68.267  1.00  0.00    -0.332 C  
HETATM   11  C   UNL     1     -11.597  12.035  68.330  1.00  0.00    -0.394 C  
HETATM   12  C   UNL     1     -10.264  12.800  68.361  1.00  0.00    -0.236 C  
ENDBRANCH   4   5
ENDBRANCH   2   4
TORSDOF 2
ENDMDL
MODEL       92
REMARK 921   NORMALIZED FREE ENERGY PREDICTED BY IDOCK:   -2.86 KCAL/MOL
REMARK 922        TOTAL FREE ENERGY PREDICTED BY IDOCK:   -3.37 KCAL/MOL
REMARK 923 INTER-LIGAND FREE ENERGY PREDICTED BY IDOCK:   -3.13 KCAL/MOL
REMARK 924 INTRA-LIGAND FREE ENERGY PREDICTED BY IDOCK:   -0.24 KCAL/MOL
REMARK 927      BINDING AFFINITY PREDICTED BY RF-SCORE:    0.00 PKD
ROOT
HETATM    1  C   UNL     1      -8.428  10.483  69.018  1.00  0.00    -0.159 C  
HETATM    2  C   UNL     1      -8.074   9.427  70.021  1.00  0.00    -0.152 C  
HETATM    3  O   UNL     1      -7.098   8.696  69.930  1.00  0.00    -0.048 OA 
ENDROOT
BRANCH   2   4
HETATM    4  O   UNL     1      -9.007   9.372  71.009  1.00  0.00    -0.231 OA 
BRANCH   4   5
HETATM    5  C   UNL     1     -10.291   8.852  70.617  1.00  0.00    -0.215 C  
HETATM    6  C   UNL     1     -11.395   9.288  71.616  1.00  0.00    -0.397 C  
HETATM    7  N   UNL     1     -11.961   8.134  72.368  1.00  0.00    -0.371 NA 
HETATM    8  C   UNL     1     -12.596   7.208  71.406  1.00  0.00    -0.394 C  
HETATM    9  C   UNL     1     -11.616   6.766  70.306  1.00  0.00    -0.417 C  
HETATM   10  C   UNL     1     -10.214   7.310  70.625  1.00  0.00    -0.202 C  
HETATM   11  C   UNL     1      -9.850   6.835  72.043  1.00  0.00    -0.166 C  
HETATM   12  C   UNL     1     -10.849   7.429  73.048  1.00  0.00    -0.375 C  
ENDBRANCH   4   5
ENDBRANCH   2   4
TORSDOF 2
ENDMDL
MODEL       93
REMARK 921   NORMALIZED FREE ENERGY PREDICTED BY IDOCK:   -2.83 KCAL/MOL
REMARK 922        TOTAL FREE ENERGY PREDICTED BY IDOCK:   -3.33 KCAL/MOL
REMARK 923 INTER-LIGAND FREE ENERGY PREDICTED BY IDOCK:   -3.12 KCAL/MOL
REMARK 924 INTRA-LIGAND FREE ENERGY PREDICTED BY IDOCK:   -0.21 KCAL/MOL
REMARK 927      BINDING AFFINITY PREDICTED BY RF-SCORE:    0.00 PKD
ROOT
HETATM    1  C   UNL     1      -7.027  11.240  68.716  1.00  0.00    -0.091 C  
HETATM    2  C   UNL     1      -7.065  11.895  67.368  1.00  0.00    -0.129 C  
HETATM    3  O   UNL     1      -6.111  12.460  66.855  1.00  0.00    -0.244 OA 
ENDROOT
BRANCH   2   4
HETATM    4  O   UNL     1      -8.310  11.807  66.827  1.00  0.00    -0.173 OA 
BRANCH   4   5
HETATM    5  C   UNL     1      -9.341  12.525  67.530  1.00  0.00    -0.187 C  
HETATM    6  C   UNL     1     -10.608  11.648  67.706  1.00  0.00    -0.194 C  
HETATM    7  N   UNL     1     -11.767  12.174  66.935  1.00  0.00    -0.552 NA 
HETATM    8  C   UNL     1     -12.105  13.520  67.447  1.00  0.00    -0.318 C  
HETATM    9  C   UNL     1     -10.894  14.468  67.403  1.00  0.00    -0.291 C  
HETATM   10  C   UNL     1      -9.724  13.767  66.695  1.00  0.00    -0.293 C  
HETATM   11  C   UNL     1     -10.232  13.304  65.318  1.00  0.00    -0.303 C  
HETATM   12  C   UNL     1     -11.370  12.289  65.513  1.00  0.00    -0.349 C  
ENDBRANCH   4   5
ENDBRANCH   2   4
TORSDOF 2
ENDMDL
MODEL       94
REMARK 921   NORMALIZED FREE ENERGY PREDICTED BY IDOCK:   -2.83 KCAL/MOL
REMARK 922        TOTAL FREE ENERGY PREDICTED BY IDOCK:   -3.33 KCAL/MOL
REMARK 923 INTER-LIGAND FREE ENERGY PREDICTED BY IDOCK:   -3.09 KCAL/MOL
REMARK 924 INTRA-LIGAND FREE ENERGY PREDICTED BY IDOCK:   -0.24 KCAL/MOL
REMARK 927      BINDING AFFINITY PREDICTED BY RF-SCORE:    0.00 PKD
ROOT
HETATM    1  C   UNL     1      -9.853  10.291  69.117  1.00  0.00    -0.228 C  
HETATM    2  C   UNL     1     -10.455  10.522  67.763  1.00  0.00    -0.224 C  
HETATM    3  O   UNL     1     -10.310   9.767  66.812  1.00  0.00    -0.234 OA 
ENDROOT
BRANCH   2   4
HETATM    4  O   UNL     1     -11.140  11.697  67.736  1.00  0.00    -0.217 OA 
BRANCH   4   5
HETATM    5  C   UNL     1     -10.350  12.876  67.979  1.00  0.00    -0.227 C  
HETATM    6  C   UNL     1     -11.257  14.111  68.221  1.00  0.00    -0.272 C  
HETATM    7  N   UNL     1     -11.130  15.123  67.138  1.00  0.00    -0.335 NA 
HETATM    8  C   UNL     1      -9.735  15.616  67.112  1.00  0.00    -0.223 C  
HETATM    9  C   UNL     1      -8.726  14.465  66.959  1.00  0.00    -0.244 C  
HETATM   10  C   UNL     1      -9.486  13.149  66.729  1.00  0.00    -0.252 C  
HETATM   11  C   UNL     1     -10.412  13.360  65.518  1.00  0.00    -0.297 C  
HETATM   12  C   UNL     1     -11.429  14.465  65.845  1.00  0.00    -0.341 C  
ENDBRANCH   4   5
ENDBRANCH   2   4
TORSDOF 2
ENDMDL
MODEL       95
REMARK 921   NORMALIZED FREE ENERGY PREDICTED BY IDOCK:   -2.83 KCAL/MOL
REMARK 922        TOTAL FREE ENERGY PREDICTED BY IDOCK:   -3.33 KCAL/MOL
REMARK 923 INTER-LIGAND FREE ENERGY PREDICTED BY IDOCK:   -3.14 KCAL/MOL
REMARK 924 INTRA-LIGAND FREE ENERGY PREDICTED BY IDOCK:   -0.19 KCAL/MOL
REMARK 927      BINDING AFFINITY PREDICTED BY RF-SCORE:    0.00 PKD
ROOT
HETATM    1  C   UNL     1     -11.234  11.145  69.439  1.00  0.00    -0.334 C  
HETATM    2  C   UNL     1     -11.808  12.476  69.818  1.00  0.00    -0.310 C  
HETATM    3  O   UNL     1     -12.402  12.692  70.865  1.00  0.00    -0.374 OA 
ENDROOT
BRANCH   2   4
HETATM    4  O   UNL     1     -11.615  13.384  68.824  1.00  0.00    -0.278 OA 
BRANCH   4   5
HETATM    5  C   UNL     1     -10.324  14.023  68.813  1.00  0.00    -0.222 C  
HETATM    6  C   UNL     1     -10.465  15.561  68.957  1.00  0.00    -0.231 C  
HETATM    7  N   UNL     1     -10.033  16.282  67.728  1.00  0.00    -0.242 NA 
HETATM    8  C   UNL     1      -8.599  16.004  67.496  1.00  0.00    -0.178 C  
HETATM    9  C   UNL     1      -8.316  14.494  67.418  1.00  0.00    -0.217 C  
HETATM   10  C   UNL     1      -9.645  13.724  67.459  1.00  0.00    -0.219 C  
HETATM   11  C   UNL     1     -10.529  14.274  66.325  1.00  0.00    -0.291 C  
HETATM   12  C   UNL     1     -10.813  15.762  66.582  1.00  0.00    -0.241 C  
ENDBRANCH   4   5
ENDBRANCH   2   4
TORSDOF 2
ENDMDL
MODEL       96
REMARK 921   NORMALIZED FREE ENERGY PREDICTED BY IDOCK:   -2.79 KCAL/MOL
REMARK 922        TOTAL FREE ENERGY PREDICTED BY IDOCK:   -3.29 KCAL/MOL
REMARK 923 INTER-LIGAND FREE ENERGY PREDICTED BY IDOCK:   -3.12 KCAL/MOL
REMARK 924 INTRA-LIGAND FREE ENERGY PREDICTED BY IDOCK:   -0.17 KCAL/MOL
REMARK 927      BINDING AFFINITY PREDICTED BY RF-SCORE:    0.00 PKD
ROOT
HETATM    1  C   UNL     1      -7.756  17.555  66.094  1.00  0.00    -0.304 C  
HETATM    2  C   UNL     1      -8.537  17.288  67.346  1.00  0.00    -0.205 C  
HETATM    3  O   UNL     1      -8.425  17.940  68.374  1.00  0.00    -0.282 OA 
ENDROOT
BRANCH   2   4
HETATM    4  O   UNL     1      -9.344  16.205  67.186  1.00  0.00    -0.210 OA 
BRANCH   4   5
HETATM    5  C   UNL     1      -9.822  15.607  68.406  1.00  0.00    -0.206 C  
HETATM    6  C   UNL     1      -9.393  14.119  68.500  1.00  0.00    -0.191 C  
HETATM    7  N   UNL     1     -10.557  13.194  68.436  1.00  0.00    -0.246 NA 
HETATM    8  C   UNL     1     -11.437  13.458  69.594  1.00  0.00    -0.207 C  
HETATM    9  C   UNL     1     -11.866  14.934  69.659  1.00  0.00    -0.356 C  
HETATM   10  C   UNL     1     -11.365  15.666  68.404  1.00  0.00    -0.365 C  
HETATM   11  C   UNL     1     -11.892  14.894  67.182  1.00  0.00    -0.229 C  
HETATM   12  C   UNL     1     -11.308  13.473  67.190  1.00  0.00    -0.321 C  
ENDBRANCH   4   5
ENDBRANCH   2   4
TORSDOF 2
ENDMDL
MODEL       97
REMARK 921   NORMALIZED FREE ENERGY PREDICTED BY IDOCK:   -2.79 KCAL/MOL
REMARK 922        TOTAL FREE ENERGY PREDICTED BY IDOCK:   -3.28 KCAL/MOL
REMARK 923 INTER-LIGAND FREE ENERGY PREDICTED BY IDOCK:   -3.06 KCAL/MOL
REMARK 924 INTRA-LIGAND FREE ENERGY PREDICTED BY IDOCK:   -0.22 KCAL/MOL
REMARK 927      BINDING AFFINITY PREDICTED BY RF-SCORE:    0.00 PKD
ROOT
HETATM    1  C   UNL     1     -11.482   8.005  72.692  1.00  0.00    -0.465 C  
HETATM    2  C   UNL     1     -12.217   7.577  71.458  1.00  0.00    -0.331 C  
HETATM    3  O   UNL     1     -13.346   7.108  71.463  1.00  0.00    -0.383 OA 
ENDROOT
BRANCH   2   4
HETATM    4  O   UNL     1     -11.441   7.745  70.354  1.00  0.00    -0.252 OA 
BRANCH   4   5
HETATM    5  C   UNL     1     -10.634   8.937  70.342  1.00  0.00    -0.217 C  
HETATM    6  C   UNL     1     -11.365  10.095  69.612  1.00  0.00    -0.235 C  
HETATM    7  N   UNL     1     -10.681  10.484  68.349  1.00  0.00    -0.207 NA 
HETATM    8  C   UNL     1      -9.325  10.974  68.676  1.00  0.00    -0.194 C  
HETATM    9  C   UNL     1      -8.522   9.938  69.481  1.00  0.00    -0.184 C  
HETATM   10  C   UNL     1      -9.328   8.633  69.577  1.00  0.00    -0.153 C  
HETATM   11  C   UNL     1      -9.678   8.204  68.141  1.00  0.00    -0.180 C  
HETATM   12  C   UNL     1     -10.561   9.281  67.492  1.00  0.00    -0.262 C  
ENDBRANCH   4   5
ENDBRANCH   2   4
TORSDOF 2
ENDMDL
MODEL       98
REMARK 921   NORMALIZED FREE ENERGY PREDICTED BY IDOCK:   -2.78 KCAL/MOL
REMARK 922        TOTAL FREE ENERGY PREDICTED BY IDOCK:   -3.28 KCAL/MOL
REMARK 923 INTER-LIGAND FREE ENERGY PREDICTED BY IDOCK:   -3.11 KCAL/MOL
REMARK 924 INTRA-LIGAND FREE ENERGY PREDICTED BY IDOCK:   -0.17 KCAL/MOL
REMARK 927      BINDING AFFINITY PREDICTED BY RF-SCORE:    0.00 PKD
ROOT
HETATM    1  C   UNL     1      -9.472   4.709  68.384  1.00  0.00    -0.201 C  
HETATM    2  C   UNL     1     -10.151   6.029  68.181  1.00  0.00    -0.160 C  
HETATM    3  O   UNL     1     -11.006   6.235  67.332  1.00  0.00    -0.325 OA 
ENDROOT
BRANCH   2   4
HETATM    4  O   UNL     1      -9.654   6.962  69.036  1.00  0.00    -0.138 OA 
BRANCH   4   5
HETATM    5  C   UNL     1     -10.043   6.806  70.414  1.00  0.00    -0.183 C  
HETATM    6  C   UNL     1     -11.576   6.977  70.580  1.00  0.00    -0.335 C  
HETATM    7  N   UNL     1     -11.924   8.191  71.368  1.00  0.00    -0.293 NA 
HETATM    8  C   UNL     1     -11.359   8.051  72.728  1.00  0.00    -0.374 C  
HETATM    9  C   UNL     1      -9.843   7.791  72.693  1.00  0.00    -0.284 C  
HETATM   10  C   UNL     1      -9.341   7.903  71.245  1.00  0.00    -0.172 C  
HETATM   11  C   UNL     1      -9.772   9.282  70.715  1.00  0.00    -0.348 C  
HETATM   12  C   UNL     1     -11.306   9.367  70.712  1.00  0.00    -0.300 C  
ENDBRANCH   4   5
ENDBRANCH   2   4
TORSDOF 2
ENDMDL
MODEL       99
REMARK 921   NORMALIZED FREE ENERGY PREDICTED BY IDOCK:   -2.76 KCAL/MOL
REMARK 922        TOTAL FREE ENERGY PREDICTED BY IDOCK:   -3.26 KCAL/MOL
REMARK 923 INTER-LIGAND FREE ENERGY PREDICTED BY IDOCK:   -3.05 KCAL/MOL
REMARK 924 INTRA-LIGAND FREE ENERGY PREDICTED BY IDOCK:   -0.21 KCAL/MOL
REMARK 927      BINDING AFFINITY PREDICTED BY RF-SCORE:    0.00 PKD
ROOT
HETATM    1  C   UNL     1      -9.473  10.117  69.532  1.00  0.00    -0.235 C  
HETATM    2  C   UNL     1      -8.599   9.248  70.385  1.00  0.00    -0.219 C  
HETATM    3  O   UNL     1      -7.611   9.648  70.984  1.00  0.00    -0.326 OA 
ENDROOT
BRANCH   2   4
HETATM    4  O   UNL     1      -9.033   7.959  70.360  1.00  0.00    -0.144 OA 
BRANCH   4   5
HETATM    5  C   UNL     1      -9.983   7.608  71.383  1.00  0.00    -0.181 C  
HETATM    6  C   UNL     1      -9.454   6.438  72.254  1.00  0.00    -0.148 C  
HETATM    7  N   UNL     1     -10.263   5.200  72.085  1.00  0.00    -0.196 NA 
HETATM    8  C   UNL     1     -11.646   5.474  72.533  1.00  0.00    -0.211 C  
HETATM    9  C   UNL     1     -12.257   6.678  71.794  1.00  0.00    -0.400 C  
HETATM   10  C   UNL     1     -11.288   7.147  70.698  1.00  0.00    -0.327 C  
HETATM   11  C   UNL     1     -10.981   5.931  69.805  1.00  0.00    -0.452 C  
HETATM   12  C   UNL     1     -10.286   4.849  70.646  1.00  0.00    -0.211 C  
ENDBRANCH   4   5
ENDBRANCH   2   4
TORSDOF 2
ENDMDL
MODEL      100
REMARK 921   NORMALIZED FREE ENERGY PREDICTED BY IDOCK:   -2.76 KCAL/MOL
REMARK 922        TOTAL FREE ENERGY PREDICTED BY IDOCK:   -3.25 KCAL/MOL
REMARK 923 INTER-LIGAND FREE ENERGY PREDICTED BY IDOCK:   -3.09 KCAL/MOL
REMARK 924 INTRA-LIGAND FREE ENERGY PREDICTED BY IDOCK:   -0.16 KCAL/MOL
REMARK 927      BINDING AFFINITY PREDICTED BY RF-SCORE:    0.00 PKD
ROOT
HETATM    1  C   UNL     1      -8.526  15.090  66.944  1.00  0.00    -0.269 C  
HETATM    2  C   UNL     1      -7.376  16.048  66.866  1.00  0.00    -0.201 C  
HETATM    3  O   UNL     1      -6.206  15.726  67.010  1.00  0.00    -0.312 OA 
ENDROOT
BRANCH   2   4
HETATM    4  O   UNL     1      -7.821  17.316  66.658  1.00  0.00    -0.212 OA 
BRANCH   4   5
HETATM    5  C   UNL     1      -6.858  18.357  66.910  1.00  0.00    -0.189 C  
HETATM    6  C   UNL     1      -7.073  18.983  68.313  1.00  0.00    -0.268 C  
HETATM    7  N   UNL     1      -7.515  20.402  68.234  1.00  0.00    -0.143 NA 
HETATM    8  C   UNL     1      -6.454  21.192  67.571  1.00  0.00    -0.362 C  
HETATM    9  C   UNL     1      -6.090  20.615  66.193  1.00  0.00    -0.260 C  
HETATM   10  C   UNL     1      -7.051  19.465  65.852  1.00  0.00    -0.307 C  
HETATM   11  C   UNL     1      -8.483  20.017  65.962  1.00  0.00    -0.244 C  
HETATM   12  C   UNL     1      -8.744  20.464  67.409  1.00  0.00    -0.320 C  
ENDBRANCH   4   5
ENDBRANCH   2   4
TORSDOF 2
ENDMDL
MODEL      101
REMARK 921   NORMALIZED FREE ENERGY PREDICTED BY IDOCK:   -2.76 KCAL/MOL
REMARK 922        TOTAL FREE ENERGY PREDICTED BY IDOCK:   -3.25 KCAL/MOL
REMARK 923 INTER-LIGAND FREE ENERGY PREDICTED BY IDOCK:   -2.99 KCAL/MOL
REMARK 924 INTRA-LIGAND FREE ENERGY PREDICTED BY IDOCK:   -0.26 KCAL/MOL
REMARK 927      BINDING AFFINITY PREDICTED BY RF-SCORE:    0.00 PKD
ROOT
HETATM    1  C   UNL     1      -9.253   8.351  68.715  1.00  0.00    -0.143 C  
HETATM    2  C   UNL     1      -8.716   9.571  68.028  1.00  0.00    -0.120 C  
HETATM    3  O   UNL     1      -7.915   9.539  67.105  1.00  0.00    -0.102 OA 
ENDROOT
BRANCH   2   4
HETATM    4  O   UNL     1      -9.209  10.701  68.601  1.00  0.00    -0.164 OA 
BRANCH   4   5
HETATM    5  C   UNL     1      -9.653  11.716  67.680  1.00  0.00    -0.181 C  
HETATM    6  C   UNL     1      -9.563  13.126  68.322  1.00  0.00    -0.218 C  
HETATM    7  N   UNL     1     -10.904  13.738  68.524  1.00  0.00    -0.256 NA 
HETATM    8  C   UNL     1     -11.550  13.910  67.205  1.00  0.00    -0.364 C  
HETATM    9  C   UNL     1     -11.623  12.584  66.428  1.00  0.00    -0.449 C  
HETATM   10  C   UNL     1     -11.131  11.440  67.327  1.00  0.00    -0.363 C  
HETATM   11  C   UNL     1     -11.968  11.478  68.618  1.00  0.00    -0.312 C  
HETATM   12  C   UNL     1     -11.723  12.812  69.341  1.00  0.00    -0.319 C  
ENDBRANCH   4   5
ENDBRANCH   2   4
TORSDOF 2
ENDMDL
MODEL      102
REMARK 921   NORMALIZED FREE ENERGY PREDICTED BY IDOCK:   -2.75 KCAL/MOL
REMARK 922        TOTAL FREE ENERGY PREDICTED BY IDOCK:   -3.25 KCAL/MOL
REMARK 923 INTER-LIGAND FREE ENERGY PREDICTED BY IDOCK:   -3.08 KCAL/MOL
REMARK 924 INTRA-LIGAND FREE ENERGY PREDICTED BY IDOCK:   -0.17 KCAL/MOL
REMARK 927      BINDING AFFINITY PREDICTED BY RF-SCORE:    0.00 PKD
ROOT
HETATM    1  C   UNL     1     -11.482   8.005  72.692  1.00  0.00    -0.465 C  
HETATM    2  C   UNL     1     -12.217   7.577  71.458  1.00  0.00    -0.331 C  
HETATM    3  O   UNL     1     -13.346   7.108  71.463  1.00  0.00    -0.383 OA 
ENDROOT
BRANCH   2   4
HETATM    4  O   UNL     1     -11.441   7.745  70.354  1.00  0.00    -0.252 OA 
BRANCH   4   5
HETATM    5  C   UNL     1     -11.146   6.542  69.619  1.00  0.00    -0.376 C  
HETATM    6  C   UNL     1      -9.800   5.925  70.081  1.00  0.00    -0.176 C  
HETATM    7  N   UNL     1      -8.764   5.974  69.014  1.00  0.00    -0.122 NA 
HETATM    8  C   UNL     1      -9.230   5.169  67.864  1.00  0.00    -0.115 C  
HETATM    9  C   UNL     1     -10.608   5.634  67.363  1.00  0.00    -0.312 C  
HETATM   10  C   UNL     1     -11.024   6.903  68.123  1.00  0.00    -0.220 C  
HETATM   11  C   UNL     1      -9.893   7.933  67.949  1.00  0.00    -0.201 C  
HETATM   12  C   UNL     1      -8.605   7.382  68.580  1.00  0.00    -0.128 C  
ENDBRANCH   4   5
ENDBRANCH   2   4
TORSDOF 2
ENDMDL
MODEL      103
REMARK 921   NORMALIZED FREE ENERGY PREDICTED BY IDOCK:   -2.75 KCAL/MOL
REMARK 922        TOTAL FREE ENERGY PREDICTED BY IDOCK:   -3.25 KCAL/MOL
REMARK 923 INTER-LIGAND FREE ENERGY PREDICTED BY IDOCK:   -3.18 KCAL/MOL
REMARK 924 INTRA-LIGAND FREE ENERGY PREDICTED BY IDOCK:   -0.07 KCAL/MOL
REMARK 927      BINDING AFFINITY PREDICTED BY RF-SCORE:    0.00 PKD
ROOT
HETATM    1  C   UNL     1      -9.735  10.742  65.323  1.00  0.00    -0.308 C  
HETATM    2  C   UNL     1      -9.045  11.330  66.517  1.00  0.00    -0.184 C  
HETATM    3  O   UNL     1      -8.569  10.668  67.427  1.00  0.00    -0.122 OA 
ENDROOT
BRANCH   2   4
HETATM    4  O   UNL     1      -9.066  12.689  66.463  1.00  0.00    -0.223 OA 
BRANCH   4   5
HETATM    5  C   UNL     1      -9.585  13.345  67.635  1.00  0.00    -0.219 C  
HETATM    6  C   UNL     1     -10.925  12.704  68.083  1.00  0.00    -0.236 C  
HETATM    7  N   UNL     1     -12.074  13.638  67.931  1.00  0.00    -0.337 NA 
HETATM    8  C   UNL     1     -11.849  14.811  68.803  1.00  0.00    -0.296 C  
HETATM    9  C   UNL     1     -10.500  15.490  68.510  1.00  0.00    -0.238 C  
HETATM   10  C   UNL     1      -9.851  14.826  67.286  1.00  0.00    -0.230 C  
HETATM   11  C   UNL     1     -10.870  14.892  66.134  1.00  0.00    -0.327 C  
HETATM   12  C   UNL     1     -12.124  14.092  66.522  1.00  0.00    -0.459 C  
ENDBRANCH   4   5
ENDBRANCH   2   4
TORSDOF 2
ENDMDL
MODEL      104
REMARK 921   NORMALIZED FREE ENERGY PREDICTED BY IDOCK:   -2.73 KCAL/MOL
REMARK 922        TOTAL FREE ENERGY PREDICTED BY IDOCK:   -3.22 KCAL/MOL
REMARK 923 INTER-LIGAND FREE ENERGY PREDICTED BY IDOCK:   -3.01 KCAL/MOL
REMARK 924 INTRA-LIGAND FREE ENERGY PREDICTED BY IDOCK:   -0.22 KCAL/MOL
REMARK 927      BINDING AFFINITY PREDICTED BY RF-SCORE:    0.00 PKD
ROOT
HETATM    1  C   UNL     1     -10.227  11.749  65.765  1.00  0.00    -0.276 C  
HETATM    2  C   UNL     1     -11.055  11.721  67.014  1.00  0.00    -0.304 C  
HETATM    3  O   UNL     1     -12.204  12.132  67.082  1.00  0.00    -0.507 OA 
ENDROOT
BRANCH   2   4
HETATM    4  O   UNL     1     -10.337  11.221  68.055  1.00  0.00    -0.174 OA 
BRANCH   4   5
HETATM    5  C   UNL     1     -10.947  10.118  68.751  1.00  0.00    -0.223 C  
HETATM    6  C   UNL     1     -10.997  10.385  70.279  1.00  0.00    -0.284 C  
HETATM    7  N   UNL     1     -10.125   9.450  71.041  1.00  0.00    -0.297 NA 
HETATM    8  C   UNL     1     -10.614   8.070  70.833  1.00  0.00    -0.213 C  
HETATM    9  C   UNL     1     -10.690   7.711  69.339  1.00  0.00    -0.188 C  
HETATM   10  C   UNL     1     -10.089   8.856  68.509  1.00  0.00    -0.209 C  
HETATM   11  C   UNL     1      -8.667   9.110  69.040  1.00  0.00    -0.135 C  
HETATM   12  C   UNL     1      -8.747   9.555  70.509  1.00  0.00    -0.197 C  
ENDBRANCH   4   5
ENDBRANCH   2   4
TORSDOF 2
ENDMDL
MODEL      105
REMARK 921   NORMALIZED FREE ENERGY PREDICTED BY IDOCK:   -2.73 KCAL/MOL
REMARK 922        TOTAL FREE ENERGY PREDICTED BY IDOCK:   -3.22 KCAL/MOL
REMARK 923 INTER-LIGAND FREE ENERGY PREDICTED BY IDOCK:   -2.97 KCAL/MOL
REMARK 924 INTRA-LIGAND FREE ENERGY PREDICTED BY IDOCK:   -0.25 KCAL/MOL
REMARK 927      BINDING AFFINITY PREDICTED BY RF-SCORE:    0.00 PKD
ROOT
HETATM    1  C   UNL     1     -10.400  17.670  68.787  1.00  0.00    -0.348 C  
HETATM    2  C   UNL     1      -9.757  18.999  69.041  1.00  0.00    -0.332 C  
HETATM    3  O   UNL     1     -10.370  20.055  69.106  1.00  0.00    -0.350 OA 
ENDROOT
BRANCH   2   4
HETATM    4  O   UNL     1      -8.407  18.867  69.145  1.00  0.00    -0.185 OA 
BRANCH   4   5
HETATM    5  C   UNL     1      -7.741  18.391  67.960  1.00  0.00    -0.261 C  
HETATM    6  C   UNL     1      -6.466  17.586  68.326  1.00  0.00    -0.182 C  
HETATM    7  N   UNL     1      -5.222  18.270  67.879  1.00  0.00    -0.155 NA 
HETATM    8  C   UNL     1      -5.248  18.384  66.404  1.00  0.00    -0.143 C  
HETATM    9  C   UNL     1      -6.518  19.096  65.909  1.00  0.00    -0.254 C  
HETATM   10  C   UNL     1      -7.316  19.612  67.116  1.00  0.00    -0.245 C  
HETATM   11  C   UNL     1      -6.368  20.491  67.951  1.00  0.00    -0.327 C  
HETATM   12  C   UNL     1      -5.201  19.631  68.463  1.00  0.00    -0.191 C  
ENDBRANCH   4   5
ENDBRANCH   2   4
TORSDOF 2
ENDMDL
MODEL      106
REMARK 921   NORMALIZED FREE ENERGY PREDICTED BY IDOCK:   -2.71 KCAL/MOL
REMARK 922        TOTAL FREE ENERGY PREDICTED BY IDOCK:   -3.19 KCAL/MOL
REMARK 923 INTER-LIGAND FREE ENERGY PREDICTED BY IDOCK:   -2.95 KCAL/MOL
REMARK 924 INTRA-LIGAND FREE ENERGY PREDICTED BY IDOCK:   -0.24 KCAL/MOL
REMARK 927      BINDING AFFINITY PREDICTED BY RF-SCORE:    0.00 PKD
ROOT
HETATM    1  C   UNL     1     -11.214  15.538  71.271  1.00  0.00    -0.414 C  
HETATM    2  C   UNL     1     -11.385  15.839  69.813  1.00  0.00    -0.339 C  
HETATM    3  O   UNL     1     -12.411  15.621  69.185  1.00  0.00    -0.223 OA 
ENDROOT
BRANCH   2   4
HETATM    4  O   UNL     1     -10.235  16.342  69.288  1.00  0.00    -0.250 OA 
BRANCH   4   5
HETATM    5  C   UNL     1      -9.118  15.434  69.267  1.00  0.00    -0.260 C  
HETATM    6  C   UNL     1      -7.790  16.193  69.007  1.00  0.00    -0.227 C  
HETATM    7  N   UNL     1      -7.185  15.834  67.696  1.00  0.00    -0.149 NA 
HETATM    8  C   UNL     1      -6.857  14.391  67.705  1.00  0.00    -0.182 C  
HETATM    9  C   UNL     1      -8.087  13.529  68.037  1.00  0.00    -0.156 C  
HETATM   10  C   UNL     1      -9.332  14.427  68.116  1.00  0.00    -0.203 C  
HETATM   11  C   UNL     1      -9.425  15.199  66.788  1.00  0.00    -0.260 C  
HETATM   12  C   UNL     1      -8.184  16.091  66.633  1.00  0.00    -0.289 C  
ENDBRANCH   4   5
ENDBRANCH   2   4
TORSDOF 2
ENDMDL
MODEL      107
REMARK 921   NORMALIZED FREE ENERGY PREDICTED BY IDOCK:   -2.67 KCAL/MOL
REMARK 922        TOTAL FREE ENERGY PREDICTED BY IDOCK:   -3.16 KCAL/MOL
REMARK 923 INTER-LIGAND FREE ENERGY PREDICTED BY IDOCK:   -3.01 KCAL/MOL
REMARK 924 INTRA-LIGAND FREE ENERGY PREDICTED BY IDOCK:   -0.15 KCAL/MOL
REMARK 927      BINDING AFFINITY PREDICTED BY RF-SCORE:    0.00 PKD
ROOT
HETATM    1  C   UNL     1     -12.271  12.896  70.474  1.00  0.00    -0.395 C  
HETATM    2  C   UNL     1     -12.283  11.419  70.224  1.00  0.00    -0.349 C  
HETATM    3  O   UNL     1     -12.632  10.588  71.050  1.00  0.00    -0.333 OA 
ENDROOT
BRANCH   2   4
HETATM    4  O   UNL     1     -11.814  11.138  68.979  1.00  0.00    -0.311 OA 
BRANCH   4   5
HETATM    5  C   UNL     1     -10.457  11.548  68.724  1.00  0.00    -0.204 C  
HETATM    6  C   UNL     1     -10.377  12.447  67.462  1.00  0.00    -0.215 C  
HETATM    7  N   UNL     1      -9.628  11.794  66.353  1.00  0.00    -0.212 NA 
HETATM    8  C   UNL     1      -8.238  11.556  66.797  1.00  0.00    -0.164 C  
HETATM    9  C   UNL     1      -8.187  10.738  68.099  1.00  0.00    -0.119 C  
HETATM   10  C   UNL     1      -9.607  10.284  68.471  1.00  0.00    -0.165 C  
HETATM   11  C   UNL     1     -10.180   9.531  67.258  1.00  0.00    -0.295 C  
HETATM   12  C   UNL     1     -10.268  10.491  66.061  1.00  0.00    -0.245 C  
ENDBRANCH   4   5
ENDBRANCH   2   4
TORSDOF 2
ENDMDL
MODEL      108
REMARK 921   NORMALIZED FREE ENERGY PREDICTED BY IDOCK:   -2.67 KCAL/MOL
REMARK 922        TOTAL FREE ENERGY PREDICTED BY IDOCK:   -3.16 KCAL/MOL
REMARK 923 INTER-LIGAND FREE ENERGY PREDICTED BY IDOCK:   -2.90 KCAL/MOL
REMARK 924 INTRA-LIGAND FREE ENERGY PREDICTED BY IDOCK:   -0.26 KCAL/MOL
REMARK 927      BINDING AFFINITY PREDICTED BY RF-SCORE:    0.00 PKD
ROOT
HETATM    1  C   UNL     1     -11.013  15.802  68.451  1.00  0.00    -0.323 C  
HETATM    2  C   UNL     1     -10.302  15.274  67.242  1.00  0.00    -0.264 C  
HETATM    3  O   UNL     1      -9.432  15.886  66.638  1.00  0.00    -0.215 OA 
ENDROOT
BRANCH   2   4
HETATM    4  O   UNL     1     -10.789  14.053  66.893  1.00  0.00    -0.286 OA 
BRANCH   4   5
HETATM    5  C   UNL     1      -9.817  13.128  66.370  1.00  0.00    -0.279 C  
HETATM    6  C   UNL     1     -10.499  12.040  65.499  1.00  0.00    -0.269 C  
HETATM    7  N   UNL     1     -10.399  10.686  66.110  1.00  0.00    -0.244 NA 
HETATM    8  C   UNL     1      -8.970  10.318  66.212  1.00  0.00    -0.153 C  
HETATM    9  C   UNL     1      -8.163  11.372  66.990  1.00  0.00    -0.160 C  
HETATM   10  C   UNL     1      -9.123  12.429  67.559  1.00  0.00    -0.185 C  
HETATM   11  C   UNL     1     -10.183  11.686  68.390  1.00  0.00    -0.211 C  
HETATM   12  C   UNL     1     -10.977  10.744  67.472  1.00  0.00    -0.312 C  
ENDBRANCH   4   5
ENDBRANCH   2   4
TORSDOF 2
ENDMDL
MODEL      109
REMARK 921   NORMALIZED FREE ENERGY PREDICTED BY IDOCK:   -2.67 KCAL/MOL
REMARK 922        TOTAL FREE ENERGY PREDICTED BY IDOCK:   -3.15 KCAL/MOL
REMARK 923 INTER-LIGAND FREE ENERGY PREDICTED BY IDOCK:   -2.93 KCAL/MOL
REMARK 924 INTRA-LIGAND FREE ENERGY PREDICTED BY IDOCK:   -0.22 KCAL/MOL
REMARK 927      BINDING AFFINITY PREDICTED BY RF-SCORE:    0.00 PKD
ROOT
HETATM    1  C   UNL     1      -6.505  17.789  66.000  1.00  0.00    -0.294 C  
HETATM    2  C   UNL     1      -7.297  18.136  67.225  1.00  0.00    -0.206 C  
HETATM    3  O   UNL     1      -7.240  19.217  67.792  1.00  0.00    -0.238 OA 
ENDROOT
BRANCH   2   4
HETATM    4  O   UNL     1      -8.043  17.074  67.631  1.00  0.00    -0.177 OA 
BRANCH   4   5
HETATM    5  C   UNL     1      -8.648  16.305  66.574  1.00  0.00    -0.297 C  
HETATM    6  C   UNL     1     -10.078  16.819  66.261  1.00  0.00    -0.326 C  
HETATM    7  N   UNL     1     -11.124  15.820  66.612  1.00  0.00    -0.178 NA 
HETATM    8  C   UNL     1     -10.916  14.608  65.789  1.00  0.00    -0.330 C  
HETATM    9  C   UNL     1      -9.493  14.047  65.950  1.00  0.00    -0.106 C  
HETATM   10  C   UNL     1      -8.754  14.836  67.041  1.00  0.00    -0.258 C  
HETATM   11  C   UNL     1      -9.618  14.778  68.314  1.00  0.00    -0.215 C  
HETATM   12  C   UNL     1     -10.968  15.460  68.040  1.00  0.00    -0.307 C  
ENDBRANCH   4   5
ENDBRANCH   2   4
TORSDOF 2
ENDMDL
MODEL      110
REMARK 921   NORMALIZED FREE ENERGY PREDICTED BY IDOCK:   -2.65 KCAL/MOL
REMARK 922        TOTAL FREE ENERGY PREDICTED BY IDOCK:   -3.13 KCAL/MOL
REMARK 923 INTER-LIGAND FREE ENERGY PREDICTED BY IDOCK:   -2.91 KCAL/MOL
REMARK 924 INTRA-LIGAND FREE ENERGY PREDICTED BY IDOCK:   -0.22 KCAL/MOL
REMARK 927      BINDING AFFINITY PREDICTED BY RF-SCORE:    0.00 PKD
ROOT
HETATM    1  C   UNL     1      -6.461  13.048  68.379  1.00  0.00    -0.084 C  
HETATM    2  C   UNL     1      -6.739  14.487  68.063  1.00  0.00    -0.145 C  
HETATM    3  O   UNL     1      -6.200  15.428  68.626  1.00  0.00    -0.092 OA 
ENDROOT
BRANCH   2   4
HETATM    4  O   UNL     1      -7.696  14.591  67.102  1.00  0.00    -0.184 OA 
BRANCH   4   5
HETATM    5  C   UNL     1      -9.029  14.241  67.519  1.00  0.00    -0.196 C  
HETATM    6  C   UNL     1      -9.795  13.515  66.381  1.00  0.00    -0.295 C  
HETATM    7  N   UNL     1     -10.938  14.319  65.871  1.00  0.00    -0.299 NA 
HETATM    8  C   UNL     1     -11.903  14.523  66.973  1.00  0.00    -0.385 C  
HETATM    9  C   UNL     1     -11.239  15.165  68.203  1.00  0.00    -0.326 C  
HETATM   10  C   UNL     1      -9.789  15.542  67.859  1.00  0.00    -0.216 C  
HETATM   11  C   UNL     1      -9.832  16.437  66.607  1.00  0.00    -0.272 C  
HETATM   12  C   UNL     1     -10.425  15.639  65.435  1.00  0.00    -0.411 C  
ENDBRANCH   4   5
ENDBRANCH   2   4
TORSDOF 2
ENDMDL
MODEL      111
REMARK 921   NORMALIZED FREE ENERGY PREDICTED BY IDOCK:   -2.65 KCAL/MOL
REMARK 922        TOTAL FREE ENERGY PREDICTED BY IDOCK:   -3.13 KCAL/MOL
REMARK 923 INTER-LIGAND FREE ENERGY PREDICTED BY IDOCK:   -2.88 KCAL/MOL
REMARK 924 INTRA-LIGAND FREE ENERGY PREDICTED BY IDOCK:   -0.25 KCAL/MOL
REMARK 927      BINDING AFFINITY PREDICTED BY RF-SCORE:    0.00 PKD
ROOT
HETATM    1  C   UNL     1      -9.389   8.053  73.165  1.00  0.00    -0.346 C  
HETATM    2  C   UNL     1     -10.616   8.235  72.324  1.00  0.00    -0.323 C  
HETATM    3  O   UNL     1     -11.737   8.413  72.778  1.00  0.00    -0.367 OA 
ENDROOT
BRANCH   2   4
HETATM    4  O   UNL     1     -10.312   8.130  71.002  1.00  0.00    -0.193 OA 
BRANCH   4   5
HETATM    5  C   UNL     1      -9.466   7.019  70.650  1.00  0.00    -0.165 C  
HETATM    6  C   UNL     1      -8.519   7.392  69.479  1.00  0.00    -0.133 C  
HETATM    7  N   UNL     1      -8.825   6.623  68.242  1.00  0.00    -0.124 NA 
HETATM    8  C   UNL     1      -8.619   5.185  68.516  1.00  0.00    -0.094 C  
HETATM    9  C   UNL     1      -9.449   4.709  69.721  1.00  0.00    -0.238 C  
HETATM   10  C   UNL     1     -10.364   5.850  70.191  1.00  0.00    -0.305 C  
HETATM   11  C   UNL     1     -11.193   6.304  68.976  1.00  0.00    -0.415 C  
HETATM   12  C   UNL     1     -10.247   6.846  67.893  1.00  0.00    -0.174 C  
ENDBRANCH   4   5
ENDBRANCH   2   4
TORSDOF 2
ENDMDL
MODEL      112
REMARK 921   NORMALIZED FREE ENERGY PREDICTED BY IDOCK:   -2.64 KCAL/MOL
REMARK 922        TOTAL FREE ENERGY PREDICTED BY IDOCK:   -3.13 KCAL/MOL
REMARK 923 INTER-LIGAND FREE ENERGY PREDICTED BY IDOCK:   -2.94 KCAL/MOL
REMARK 924 INTRA-LIGAND FREE ENERGY PREDICTED BY IDOCK:   -0.19 KCAL/MOL
REMARK 927      BINDING AFFINITY PREDICTED BY RF-SCORE:    0.00 PKD
ROOT
HETATM    1  C   UNL     1      -8.258  14.214  67.948  1.00  0.00    -0.155 C  
HETATM    2  C   UNL     1      -8.945  12.956  67.510  1.00  0.00    -0.193 C  
HETATM    3  O   UNL     1      -8.424  11.850  67.528  1.00  0.00    -0.147 OA 
ENDROOT
BRANCH   2   4
HETATM    4  O   UNL     1     -10.198  13.227  67.056  1.00  0.00    -0.240 OA 
BRANCH   4   5
HETATM    5  C   UNL     1     -10.582  12.531  65.854  1.00  0.00    -0.265 C  
HETATM    6  C   UNL     1      -9.954  13.199  64.602  1.00  0.00    -0.120 C  
HETATM    7  N   UNL     1     -10.982  13.812  63.717  1.00  0.00     0.230 NA 
HETATM    8  C   UNL     1     -11.882  12.745  63.227  1.00  0.00    -0.419 C  
HETATM    9  C   UNL     1     -12.507  11.948  64.385  1.00  0.00    -0.211 C  
HETATM   10  C   UNL     1     -12.119  12.602  65.721  1.00  0.00    -0.484 C  
HETATM   11  C   UNL     1     -12.546  14.079  65.649  1.00  0.00    -0.542 C  
HETATM   12  C   UNL     1     -11.774  14.775  64.517  1.00  0.00    -0.391 C  
ENDBRANCH   4   5
ENDBRANCH   2   4
TORSDOF 2
ENDMDL
MODEL      113
REMARK 921   NORMALIZED FREE ENERGY PREDICTED BY IDOCK:   -2.63 KCAL/MOL
REMARK 922        TOTAL FREE ENERGY PREDICTED BY IDOCK:   -3.10 KCAL/MOL
REMARK 923 INTER-LIGAND FREE ENERGY PREDICTED BY IDOCK:   -2.87 KCAL/MOL
REMARK 924 INTRA-LIGAND FREE ENERGY PREDICTED BY IDOCK:   -0.23 KCAL/MOL
REMARK 927      BINDING AFFINITY PREDICTED BY RF-SCORE:    0.00 PKD
ROOT
HETATM    1  C   UNL     1      -9.510  10.394  69.219  1.00  0.00    -0.214 C  
HETATM    2  C   UNL     1      -9.913   9.118  68.544  1.00  0.00    -0.174 C  
HETATM    3  O   UNL     1     -10.551   9.067  67.503  1.00  0.00    -0.265 OA 
ENDROOT
BRANCH   2   4
HETATM    4  O   UNL     1      -9.509   8.041  69.271  1.00  0.00    -0.155 OA 
BRANCH   4   5
HETATM    5  C   UNL     1     -10.251   7.801  70.481  1.00  0.00    -0.201 C  
HETATM    6  C   UNL     1      -9.356   7.133  71.558  1.00  0.00    -0.153 C  
HETATM    7  N   UNL     1      -9.791   5.744  71.867  1.00  0.00    -0.162 NA 
HETATM    8  C   UNL     1     -11.162   5.788  72.420  1.00  0.00    -0.290 C  
HETATM    9  C   UNL     1     -12.136   6.509  71.472  1.00  0.00    -0.363 C  
HETATM   10  C   UNL     1     -11.415   6.839  70.156  1.00  0.00    -0.404 C  
HETATM   11  C   UNL     1     -10.835   5.523  69.607  1.00  0.00    -0.279 C  
HETATM   12  C   UNL     1      -9.808   4.967  70.606  1.00  0.00    -0.212 C  
ENDBRANCH   4   5
ENDBRANCH   2   4
TORSDOF 2
ENDMDL
MODEL      114
REMARK 921   NORMALIZED FREE ENERGY PREDICTED BY IDOCK:   -2.61 KCAL/MOL
REMARK 922        TOTAL FREE ENERGY PREDICTED BY IDOCK:   -3.09 KCAL/MOL
REMARK 923 INTER-LIGAND FREE ENERGY PREDICTED BY IDOCK:   -2.85 KCAL/MOL
REMARK 924 INTRA-LIGAND FREE ENERGY PREDICTED BY IDOCK:   -0.24 KCAL/MOL
REMARK 927      BINDING AFFINITY PREDICTED BY RF-SCORE:    0.00 PKD
ROOT
HETATM    1  C   UNL     1      -8.132  11.366  68.275  1.00  0.00    -0.143 C  
HETATM    2  C   UNL     1      -9.251  11.739  67.350  1.00  0.00    -0.174 C  
HETATM    3  O   UNL     1     -10.217  11.026  67.122  1.00  0.00    -0.193 OA 
ENDROOT
BRANCH   2   4
HETATM    4  O   UNL     1      -9.016  12.950  66.776  1.00  0.00    -0.218 OA 
BRANCH   4   5
HETATM    5  C   UNL     1      -9.999  13.965  67.053  1.00  0.00    -0.258 C  
HETATM    6  C   UNL     1     -10.305  14.802  65.783  1.00  0.00    -0.340 C  
HETATM    7  N   UNL     1      -9.856  16.215  65.919  1.00  0.00    -0.340 NA 
HETATM    8  C   UNL     1     -10.598  16.842  67.034  1.00  0.00    -0.230 C  
HETATM    9  C   UNL     1     -10.439  16.050  68.343  1.00  0.00    -0.263 C  
HETATM   10  C   UNL     1      -9.427  14.913  68.130  1.00  0.00    -0.202 C  
HETATM   11  C   UNL     1      -8.130  15.548  67.599  1.00  0.00    -0.162 C  
HETATM   12  C   UNL     1      -8.411  16.217  66.244  1.00  0.00    -0.322 C  
ENDBRANCH   4   5
ENDBRANCH   2   4
TORSDOF 2
ENDMDL
MODEL      115
REMARK 921   NORMALIZED FREE ENERGY PREDICTED BY IDOCK:   -2.58 KCAL/MOL
REMARK 922        TOTAL FREE ENERGY PREDICTED BY IDOCK:   -3.06 KCAL/MOL
REMARK 923 INTER-LIGAND FREE ENERGY PREDICTED BY IDOCK:   -2.87 KCAL/MOL
REMARK 924 INTRA-LIGAND FREE ENERGY PREDICTED BY IDOCK:   -0.19 KCAL/MOL
REMARK 927      BINDING AFFINITY PREDICTED BY RF-SCORE:    0.00 PKD
ROOT
HETATM    1  C   UNL     1      -7.666   8.331  65.209  1.00  0.00    -0.106 C  
HETATM    2  C   UNL     1      -8.579   8.643  66.357  1.00  0.00    -0.119 C  
HETATM    3  O   UNL     1      -8.641   7.980  67.382  1.00  0.00    -0.124 OA 
ENDROOT
BRANCH   2   4
HETATM    4  O   UNL     1      -9.348   9.730  66.077  1.00  0.00    -0.168 OA 
BRANCH   4   5
HETATM    5  C   UNL     1      -9.627  10.593  67.196  1.00  0.00    -0.164 C  
HETATM    6  C   UNL     1     -11.145  10.618  67.513  1.00  0.00    -0.300 C  
HETATM    7  N   UNL     1     -11.752  11.952  67.254  1.00  0.00    -0.577 NA 
HETATM    8  C   UNL     1     -11.113  12.944  68.145  1.00  0.00    -0.253 C  
HETATM    9  C   UNL     1      -9.583  12.955  67.983  1.00  0.00    -0.221 C  
HETATM   10  C   UNL     1      -9.187  12.026  66.825  1.00  0.00    -0.201 C  
HETATM   11  C   UNL     1      -9.971  12.483  65.582  1.00  0.00    -0.259 C  
HETATM   12  C   UNL     1     -11.477  12.326  65.847  1.00  0.00    -0.376 C  
ENDBRANCH   4   5
ENDBRANCH   2   4
TORSDOF 2
ENDMDL
MODEL      116
REMARK 921   NORMALIZED FREE ENERGY PREDICTED BY IDOCK:   -2.58 KCAL/MOL
REMARK 922        TOTAL FREE ENERGY PREDICTED BY IDOCK:   -3.05 KCAL/MOL
REMARK 923 INTER-LIGAND FREE ENERGY PREDICTED BY IDOCK:   -2.83 KCAL/MOL
REMARK 924 INTRA-LIGAND FREE ENERGY PREDICTED BY IDOCK:   -0.22 KCAL/MOL
REMARK 927      BINDING AFFINITY PREDICTED BY RF-SCORE:    0.00 PKD
ROOT
HETATM    1  C   UNL     1      -6.984  15.119  69.547  1.00  0.00    -0.189 C  
HETATM    2  C   UNL     1      -7.880  16.118  68.879  1.00  0.00    -0.213 C  
HETATM    3  O   UNL     1      -7.548  17.264  68.613  1.00  0.00    -0.240 OA 
ENDROOT
BRANCH   2   4
HETATM    4  O   UNL     1      -9.111  15.585  68.654  1.00  0.00    -0.183 OA 
BRANCH   4   5
HETATM    5  C   UNL     1      -9.116  14.236  68.150  1.00  0.00    -0.193 C  
HETATM    6  C   UNL     1      -9.361  14.217  66.618  1.00  0.00    -0.282 C  
HETATM    7  N   UNL     1     -10.664  13.590  66.265  1.00  0.00    -0.286 NA 
HETATM    8  C   UNL     1     -10.648  12.180  66.713  1.00  0.00    -0.226 C  
HETATM    9  C   UNL     1     -10.329  12.061  68.213  1.00  0.00    -0.211 C  
HETATM   10  C   UNL     1     -10.267  13.466  68.833  1.00  0.00    -0.050 C  
HETATM   11  C   UNL     1     -11.598  14.169  68.510  1.00  0.00    -0.351 C  
HETATM   12  C   UNL     1     -11.740  14.308  66.986  1.00  0.00    -0.403 C  
ENDBRANCH   4   5
ENDBRANCH   2   4
TORSDOF 2
ENDMDL
MODEL      117
REMARK 921   NORMALIZED FREE ENERGY PREDICTED BY IDOCK:   -2.58 KCAL/MOL
REMARK 922        TOTAL FREE ENERGY PREDICTED BY IDOCK:   -3.05 KCAL/MOL
REMARK 923 INTER-LIGAND FREE ENERGY PREDICTED BY IDOCK:   -2.85 KCAL/MOL
REMARK 924 INTRA-LIGAND FREE ENERGY PREDICTED BY IDOCK:   -0.20 KCAL/MOL
REMARK 927      BINDING AFFINITY PREDICTED BY RF-SCORE:    0.00 PKD
ROOT
HETATM    1  C   UNL     1     -11.874  12.944  65.255  1.00  0.00    -0.429 C  
HETATM    2  C   UNL     1     -11.761  13.121  66.740  1.00  0.00    -0.385 C  
HETATM    3  O   UNL     1     -11.800  14.204  67.305  1.00  0.00    -0.379 OA 
ENDROOT
BRANCH   2   4
HETATM    4  O   UNL     1     -11.569  11.922  67.353  1.00  0.00    -0.408 OA 
BRANCH   4   5
HETATM    5  C   UNL     1     -10.473  11.138  66.845  1.00  0.00    -0.246 C  
HETATM    6  C   UNL     1     -10.908   9.671  66.594  1.00  0.00     0.071 C  
HETATM    7  N   UNL     1     -10.226   8.717  67.511  1.00  0.00    -0.228 NA 
HETATM    8  C   UNL     1      -8.770   8.779  67.260  1.00  0.00    -0.129 C  
HETATM    9  C   UNL     1      -8.227  10.212  67.397  1.00  0.00    -0.114 C  
HETATM   10  C   UNL     1      -9.348  11.134  67.904  1.00  0.00    -0.161 C  
HETATM   11  C   UNL     1      -9.891  10.522  69.207  1.00  0.00    -0.225 C  
HETATM   12  C   UNL     1     -10.490   9.139  68.906  1.00  0.00    -0.218 C  
ENDBRANCH   4   5
ENDBRANCH   2   4
TORSDOF 2
ENDMDL
MODEL      118
REMARK 921   NORMALIZED FREE ENERGY PREDICTED BY IDOCK:   -2.56 KCAL/MOL
REMARK 922        TOTAL FREE ENERGY PREDICTED BY IDOCK:   -3.03 KCAL/MOL
REMARK 923 INTER-LIGAND FREE ENERGY PREDICTED BY IDOCK:   -2.77 KCAL/MOL
REMARK 924 INTRA-LIGAND FREE ENERGY PREDICTED BY IDOCK:   -0.25 KCAL/MOL
REMARK 927      BINDING AFFINITY PREDICTED BY RF-SCORE:    0.00 PKD
ROOT
HETATM    1  C   UNL     1     -10.480   6.889  69.574  1.00  0.00    -0.244 C  
HETATM    2  C   UNL     1     -10.476   6.968  68.077  1.00  0.00    -0.208 C  
HETATM    3  O   UNL     1     -11.115   6.221  67.351  1.00  0.00    -0.350 OA 
ENDROOT
BRANCH   2   4
HETATM    4  O   UNL     1      -9.637   7.949  67.650  1.00  0.00    -0.144 OA 
BRANCH   4   5
HETATM    5  C   UNL     1     -10.244   8.966  66.829  1.00  0.00    -0.278 C  
HETATM    6  C   UNL     1      -9.225   9.535  65.807  1.00  0.00    -0.211 C  
HETATM    7  N   UNL     1      -8.896  10.961  66.075  1.00  0.00    -0.183 NA 
HETATM    8  C   UNL     1     -10.131  11.765  65.940  1.00  0.00    -0.234 C  
HETATM    9  C   UNL     1     -11.254  11.242  66.852  1.00  0.00    -0.300 C  
HETATM   10  C   UNL     1     -10.703  10.120  67.746  1.00  0.00    -0.328 C  
HETATM   11  C   UNL     1      -9.480  10.685  68.490  1.00  0.00    -0.176 C  
HETATM   12  C   UNL     1      -8.401  11.074  67.466  1.00  0.00    -0.118 C  
ENDBRANCH   4   5
ENDBRANCH   2   4
TORSDOF 2
ENDMDL
MODEL      119
REMARK 921   NORMALIZED FREE ENERGY PREDICTED BY IDOCK:   -2.54 KCAL/MOL
REMARK 922        TOTAL FREE ENERGY PREDICTED BY IDOCK:   -3.01 KCAL/MOL
REMARK 923 INTER-LIGAND FREE ENERGY PREDICTED BY IDOCK:   -2.81 KCAL/MOL
REMARK 924 INTRA-LIGAND FREE ENERGY PREDICTED BY IDOCK:   -0.20 KCAL/MOL
REMARK 927      BINDING AFFINITY PREDICTED BY RF-SCORE:    0.00 PKD
ROOT
HETATM    1  C   UNL     1     -10.831   9.190  71.692  1.00  0.00    -0.442 C  
HETATM    2  C   UNL     1     -11.632   9.958  70.684  1.00  0.00    -0.335 C  
HETATM    3  O   UNL     1     -12.499  10.770  70.973  1.00  0.00    -0.349 OA 
ENDROOT
BRANCH   2   4
HETATM    4  O   UNL     1     -11.289   9.593  69.419  1.00  0.00    -0.137 OA 
BRANCH   4   5
HETATM    5  C   UNL     1      -9.902   9.255  69.230  1.00  0.00    -0.172 C  
HETATM    6  C   UNL     1      -9.176  10.339  68.391  1.00  0.00    -0.136 C  
HETATM    7  N   UNL     1      -8.739   9.825  67.065  1.00  0.00    -0.134 NA 
HETATM    8  C   UNL     1      -7.769   8.729  67.277  1.00  0.00    -0.096 C  
HETATM    9  C   UNL     1      -8.348   7.620  68.173  1.00  0.00    -0.124 C  
HETATM   10  C   UNL     1      -9.828   7.919  68.459  1.00  0.00    -0.186 C  
HETATM   11  C   UNL     1     -10.534   8.086  67.102  1.00  0.00    -0.408 C  
HETATM   12  C   UNL     1      -9.924   9.285  66.359  1.00  0.00    -0.286 C  
ENDBRANCH   4   5
ENDBRANCH   2   4
TORSDOF 2
ENDMDL
MODEL      120
REMARK 921   NORMALIZED FREE ENERGY PREDICTED BY IDOCK:   -2.53 KCAL/MOL
REMARK 922        TOTAL FREE ENERGY PREDICTED BY IDOCK:   -2.99 KCAL/MOL
REMARK 923 INTER-LIGAND FREE ENERGY PREDICTED BY IDOCK:   -2.79 KCAL/MOL
REMARK 924 INTRA-LIGAND FREE ENERGY PREDICTED BY IDOCK:   -0.21 KCAL/MOL
REMARK 927      BINDING AFFINITY PREDICTED BY RF-SCORE:    0.00 PKD
ROOT
HETATM    1  C   UNL     1     -12.481  10.640  70.636  1.00  0.00    -0.462 C  
HETATM    2  C   UNL     1     -11.406   9.621  70.403  1.00  0.00    -0.277 C  
HETATM    3  O   UNL     1     -11.408   8.500  70.890  1.00  0.00    -0.261 OA 
ENDROOT
BRANCH   2   4
HETATM    4  O   UNL     1     -10.421  10.134  69.617  1.00  0.00    -0.220 OA 
BRANCH   4   5
HETATM    5  C   UNL     1     -10.681  10.098  68.201  1.00  0.00    -0.244 C  
HETATM    6  C   UNL     1      -9.936   8.913  67.530  1.00  0.00    -0.203 C  
HETATM    7  N   UNL     1      -8.873   9.374  66.596  1.00  0.00    -0.133 NA 
HETATM    8  C   UNL     1      -9.503  10.152  65.508  1.00  0.00    -0.230 C  
HETATM    9  C   UNL     1     -10.347  11.317  66.055  1.00  0.00    -0.302 C  
HETATM   10  C   UNL     1     -10.159  11.411  67.577  1.00  0.00    -0.205 C  
HETATM   11  C   UNL     1      -8.648  11.526  67.847  1.00  0.00    -0.143 C  
HETATM   12  C   UNL     1      -7.945  10.256  67.341  1.00  0.00    -0.107 C  
ENDBRANCH   4   5
ENDBRANCH   2   4
TORSDOF 2
ENDMDL
MODEL      121
REMARK 921   NORMALIZED FREE ENERGY PREDICTED BY IDOCK:   -2.52 KCAL/MOL
REMARK 922        TOTAL FREE ENERGY PREDICTED BY IDOCK:   -2.99 KCAL/MOL
REMARK 923 INTER-LIGAND FREE ENERGY PREDICTED BY IDOCK:   -2.78 KCAL/MOL
REMARK 924 INTRA-LIGAND FREE ENERGY PREDICTED BY IDOCK:   -0.21 KCAL/MOL
REMARK 927      BINDING AFFINITY PREDICTED BY RF-SCORE:    0.00 PKD
ROOT
HETATM    1  C   UNL     1      -8.668   4.789  68.416  1.00  0.00    -0.112 C  
HETATM    2  C   UNL     1      -8.111   5.989  69.121  1.00  0.00    -0.111 C  
HETATM    3  O   UNL     1      -7.211   6.687  68.676  1.00  0.00    -0.080 OA 
ENDROOT
BRANCH   2   4
HETATM    4  O   UNL     1      -8.711   6.158  70.330  1.00  0.00    -0.140 OA 
BRANCH   4   5
HETATM    5  C   UNL     1      -9.878   7.002  70.326  1.00  0.00    -0.175 C  
HETATM    6  C   UNL     1      -9.662   8.253  71.218  1.00  0.00    -0.176 C  
HETATM    7  N   UNL     1     -10.549   8.252  72.412  1.00  0.00    -0.317 NA 
HETATM    8  C   UNL     1     -11.956   8.290  71.957  1.00  0.00    -0.348 C  
HETATM    9  C   UNL     1     -12.275   7.137  70.991  1.00  0.00    -0.384 C  
HETATM   10  C   UNL     1     -11.063   6.196  70.903  1.00  0.00    -0.371 C  
HETATM   11  C   UNL     1     -10.717   5.759  72.338  1.00  0.00    -0.280 C  
HETATM   12  C   UNL     1     -10.323   6.995  73.163  1.00  0.00    -0.281 C  
ENDBRANCH   4   5
ENDBRANCH   2   4
TORSDOF 2
ENDMDL
MODEL      122
REMARK 921   NORMALIZED FREE ENERGY PREDICTED BY IDOCK:   -2.49 KCAL/MOL
REMARK 922        TOTAL FREE ENERGY PREDICTED BY IDOCK:   -2.96 KCAL/MOL
REMARK 923 INTER-LIGAND FREE ENERGY PREDICTED BY IDOCK:   -2.75 KCAL/MOL
REMARK 924 INTRA-LIGAND FREE ENERGY PREDICTED BY IDOCK:   -0.20 KCAL/MOL
REMARK 927      BINDING AFFINITY PREDICTED BY RF-SCORE:    0.00 PKD
ROOT
HETATM    1  C   UNL     1      -8.748   9.149  63.554  1.00  0.00    -0.148 C  
HETATM    2  C   UNL     1      -9.194   9.261  64.980  1.00  0.00    -0.178 C  
HETATM    3  O   UNL     1      -9.279   8.312  65.747  1.00  0.00    -0.167 OA 
ENDROOT
BRANCH   2   4
HETATM    4  O   UNL     1      -9.527  10.545  65.280  1.00  0.00    -0.195 OA 
BRANCH   4   5
HETATM    5  C   UNL     1     -10.343  11.215  64.301  1.00  0.00    -0.351 C  
HETATM    6  C   UNL     1      -9.784  12.628  63.988  1.00  0.00     0.164 C  
HETATM    7  N   UNL     1     -10.703  13.709  64.440  1.00  0.00    -0.402 NA 
HETATM    8  C   UNL     1     -11.980  13.582  63.706  1.00  0.00    -0.422 C  
HETATM    9  C   UNL     1     -12.597  12.182  63.871  1.00  0.00    -0.545 C  
HETATM   10  C   UNL     1     -11.765  11.375  64.880  1.00  0.00     0.153 C  
HETATM   11  C   UNL     1     -11.687  12.203  66.175  1.00  0.00    -0.384 C  
HETATM   12  C   UNL     1     -10.962  13.527  65.887  1.00  0.00    -0.278 C  
ENDBRANCH   4   5
ENDBRANCH   2   4
TORSDOF 2
ENDMDL
MODEL      123
REMARK 921   NORMALIZED FREE ENERGY PREDICTED BY IDOCK:   -2.49 KCAL/MOL
REMARK 922        TOTAL FREE ENERGY PREDICTED BY IDOCK:   -2.96 KCAL/MOL
REMARK 923 INTER-LIGAND FREE ENERGY PREDICTED BY IDOCK:   -2.75 KCAL/MOL
REMARK 924 INTRA-LIGAND FREE ENERGY PREDICTED BY IDOCK:   -0.21 KCAL/MOL
REMARK 927      BINDING AFFINITY PREDICTED BY RF-SCORE:    0.00 PKD
ROOT
HETATM    1  C   UNL     1      -7.488  10.939  68.575  1.00  0.00    -0.103 C  
HETATM    2  C   UNL     1      -7.508  10.239  69.900  1.00  0.00    -0.158 C  
HETATM    3  O   UNL     1      -6.759  10.509  70.828  1.00  0.00    -0.343 OA 
ENDROOT
BRANCH   2   4
HETATM    4  O   UNL     1      -8.437   9.246  69.904  1.00  0.00    -0.132 OA 
BRANCH   4   5
HETATM    5  C   UNL     1      -9.309   9.222  71.050  1.00  0.00    -0.227 C  
HETATM    6  C   UNL     1      -9.237   7.851  71.773  1.00  0.00    -0.150 C  
HETATM    7  N   UNL     1     -10.519   7.100  71.681  1.00  0.00    -0.199 NA 
HETATM    8  C   UNL     1     -11.576   7.883  72.356  1.00  0.00    -0.380 C  
HETATM    9  C   UNL     1     -11.689   9.305  71.779  1.00  0.00    -0.456 C  
HETATM   10  C   UNL     1     -10.758   9.436  70.563  1.00  0.00    -0.335 C  
HETATM   11  C   UNL     1     -11.126   8.310  69.580  1.00  0.00    -0.009 C  
HETATM   12  C   UNL     1     -10.873   6.950  70.251  1.00  0.00    -0.257 C  
ENDBRANCH   4   5
ENDBRANCH   2   4
TORSDOF 2
ENDMDL
MODEL      124
REMARK 921   NORMALIZED FREE ENERGY PREDICTED BY IDOCK:   -2.48 KCAL/MOL
REMARK 922        TOTAL FREE ENERGY PREDICTED BY IDOCK:   -2.94 KCAL/MOL
REMARK 923 INTER-LIGAND FREE ENERGY PREDICTED BY IDOCK:   -2.72 KCAL/MOL
REMARK 924 INTRA-LIGAND FREE ENERGY PREDICTED BY IDOCK:   -0.22 KCAL/MOL
REMARK 927      BINDING AFFINITY PREDICTED BY RF-SCORE:    0.00 PKD
ROOT
HETATM    1  C   UNL     1     -12.022  11.911  70.212  1.00  0.00    -0.416 C  
HETATM    2  C   UNL     1     -12.163  10.628  70.974  1.00  0.00    -0.393 C  
HETATM    3  O   UNL     1     -13.142  10.336  71.646  1.00  0.00    -0.395 OA 
ENDROOT
BRANCH   2   4
HETATM    4  O   UNL     1     -11.043   9.868  70.847  1.00  0.00    -0.319 OA 
BRANCH   4   5
HETATM    5  C   UNL     1     -10.381   9.953  69.571  1.00  0.00    -0.229 C  
HETATM    6  C   UNL     1     -10.726   8.728  68.684  1.00  0.00    -0.068 C  
HETATM    7  N   UNL     1      -9.540   7.863  68.434  1.00  0.00    -0.148 NA 
HETATM    8  C   UNL     1      -8.527   8.651  67.699  1.00  0.00    -0.125 C  
HETATM    9  C   UNL     1      -8.160   9.946  68.444  1.00  0.00    -0.101 C  
HETATM   10  C   UNL     1      -8.856   9.959  69.814  1.00  0.00    -0.229 C  
HETATM   11  C   UNL     1      -8.460   8.662  70.542  1.00  0.00    -0.160 C  
HETATM   12  C   UNL     1      -8.974   7.456  69.741  1.00  0.00    -0.141 C  
ENDBRANCH   4   5
ENDBRANCH   2   4
TORSDOF 2
ENDMDL
MODEL      125
REMARK 921   NORMALIZED FREE ENERGY PREDICTED BY IDOCK:   -2.46 KCAL/MOL
REMARK 922        TOTAL FREE ENERGY PREDICTED BY IDOCK:   -2.92 KCAL/MOL
REMARK 923 INTER-LIGAND FREE ENERGY PREDICTED BY IDOCK:   -2.72 KCAL/MOL
REMARK 924 INTRA-LIGAND FREE ENERGY PREDICTED BY IDOCK:   -0.20 KCAL/MOL
REMARK 927      BINDING AFFINITY PREDICTED BY RF-SCORE:    0.00 PKD
ROOT
HETATM    1  C   UNL     1     -12.487   6.744  71.712  1.00  0.00    -0.394 C  
HETATM    2  C   UNL     1     -11.646   7.370  70.641  1.00  0.00    -0.268 C  
HETATM    3  O   UNL     1     -11.193   8.504  70.701  1.00  0.00    -0.252 OA 
ENDROOT
BRANCH   2   4
HETATM    4  O   UNL     1     -11.501   6.522  69.587  1.00  0.00    -0.382 OA 
BRANCH   4   5
HETATM    5  C   UNL     1     -10.560   6.943  68.582  1.00  0.00    -0.223 C  
HETATM    6  C   UNL     1     -11.062   6.571  67.162  1.00  0.00    -0.360 C  
HETATM    7  N   UNL     1     -10.201   5.545  66.512  1.00  0.00    -0.214 NA 
HETATM    8  C   UNL     1      -8.840   6.101  66.352  1.00  0.00    -0.141 C  
HETATM    9  C   UNL     1      -8.261   6.588  67.692  1.00  0.00    -0.122 C  
HETATM   10  C   UNL     1      -9.224   6.211  68.829  1.00  0.00    -0.124 C  
HETATM   11  C   UNL     1      -9.463   4.693  68.743  1.00  0.00    -0.214 C  
HETATM   12  C   UNL     1     -10.133   4.361  67.401  1.00  0.00    -0.026 C  
ENDBRANCH   4   5
ENDBRANCH   2   4
TORSDOF 2
ENDMDL
MODEL      126
REMARK 921   NORMALIZED FREE ENERGY PREDICTED BY IDOCK:   -2.44 KCAL/MOL
REMARK 922        TOTAL FREE ENERGY PREDICTED BY IDOCK:   -2.90 KCAL/MOL
REMARK 923 INTER-LIGAND FREE ENERGY PREDICTED BY IDOCK:   -2.90 KCAL/MOL
REMARK 924 INTRA-LIGAND FREE ENERGY PREDICTED BY IDOCK:    0.00 KCAL/MOL
REMARK 927      BINDING AFFINITY PREDICTED BY RF-SCORE:    0.00 PKD
ROOT
HETATM    1  C   UNL     1      -8.955  16.079  67.456  1.00  0.00    -0.201 C  
HETATM    2  C   UNL     1      -9.165  14.886  68.339  1.00  0.00    -0.189 C  
HETATM    3  O   UNL     1      -8.602  14.720  69.411  1.00  0.00    -0.100 OA 
ENDROOT
BRANCH   2   4
HETATM    4  O   UNL     1     -10.027  14.007  67.761  1.00  0.00    -0.228 OA 
BRANCH   4   5
HETATM    5  C   UNL     1     -10.375  12.865  68.565  1.00  0.00    -0.229 C  
HETATM    6  C   UNL     1      -9.293  11.758  68.454  1.00  0.00    -0.185 C  
HETATM    7  N   UNL     1      -9.807  10.536  67.778  1.00  0.00    -0.163 NA 
HETATM    8  C   UNL     1     -10.911   9.975  68.587  1.00  0.00    -0.229 C  
HETATM    9  C   UNL     1     -12.018  11.013  68.840  1.00  0.00    -0.332 C  
HETATM   10  C   UNL     1     -11.710  12.290  68.042  1.00  0.00    -0.417 C  
HETATM   11  C   UNL     1     -11.534  11.880  66.569  1.00  0.00    -0.381 C  
HETATM   12  C   UNL     1     -10.337  10.923  66.450  1.00  0.00    -0.251 C  
ENDBRANCH   4   5
ENDBRANCH   2   4
TORSDOF 2
ENDMDL
MODEL      127
REMARK 921   NORMALIZED FREE ENERGY PREDICTED BY IDOCK:   -2.43 KCAL/MOL
REMARK 922        TOTAL FREE ENERGY PREDICTED BY IDOCK:   -2.89 KCAL/MOL
REMARK 923 INTER-LIGAND FREE ENERGY PREDICTED BY IDOCK:   -2.72 KCAL/MOL
REMARK 924 INTRA-LIGAND FREE ENERGY PREDICTED BY IDOCK:   -0.16 KCAL/MOL
REMARK 927      BINDING AFFINITY PREDICTED BY RF-SCORE:    0.00 PKD
ROOT
HETATM    1  C   UNL     1      -9.311  10.517  68.483  1.00  0.00    -0.168 C  
HETATM    2  C   UNL     1     -10.470   9.997  67.687  1.00  0.00    -0.246 C  
HETATM    3  O   UNL     1     -11.528  10.593  67.550  1.00  0.00    -0.460 OA 
ENDROOT
BRANCH   2   4
HETATM    4  O   UNL     1     -10.192   8.764  67.185  1.00  0.00    -0.227 OA 
BRANCH   4   5
HETATM    5  C   UNL     1      -9.706   7.803  68.141  1.00  0.00    -0.155 C  
HETATM    6  C   UNL     1      -8.386   7.151  67.651  1.00  0.00    -0.117 C  
HETATM    7  N   UNL     1      -8.551   5.702  67.356  1.00  0.00    -0.110 NA 
HETATM    8  C   UNL     1      -8.934   5.005  68.604  1.00  0.00    -0.106 C  
HETATM    9  C   UNL     1     -10.193   5.620  69.237  1.00  0.00    -0.309 C  
HETATM   10  C   UNL     1     -10.766   6.691  68.295  1.00  0.00    -0.317 C  
HETATM   11  C   UNL     1     -10.992   6.024  66.927  1.00  0.00    -0.350 C  
HETATM   12  C   UNL     1      -9.643   5.546  66.367  1.00  0.00    -0.158 C  
ENDBRANCH   4   5
ENDBRANCH   2   4
TORSDOF 2
ENDMDL
MODEL      128
REMARK 921   NORMALIZED FREE ENERGY PREDICTED BY IDOCK:   -2.39 KCAL/MOL
REMARK 922        TOTAL FREE ENERGY PREDICTED BY IDOCK:   -2.84 KCAL/MOL
REMARK 923 INTER-LIGAND FREE ENERGY PREDICTED BY IDOCK:   -2.90 KCAL/MOL
REMARK 924 INTRA-LIGAND FREE ENERGY PREDICTED BY IDOCK:    0.06 KCAL/MOL
REMARK 927      BINDING AFFINITY PREDICTED BY RF-SCORE:    0.00 PKD
ROOT
HETATM    1  C   UNL     1      -7.513  20.645  67.195  1.00  0.00    -0.381 C  
HETATM    2  C   UNL     1      -6.822  19.879  68.283  1.00  0.00    -0.295 C  
HETATM    3  O   UNL     1      -5.646  20.027  68.583  1.00  0.00    -0.210 OA 
ENDROOT
BRANCH   2   4
HETATM    4  O   UNL     1      -7.669  18.977  68.848  1.00  0.00    -0.335 OA 
BRANCH   4   5
HETATM    5  C   UNL     1      -7.226  17.608  68.812  1.00  0.00    -0.268 C  
HETATM    6  C   UNL     1      -6.388  17.329  67.536  1.00  0.00    -0.149 C  
HETATM    7  N   UNL     1      -7.068  16.380  66.613  1.00  0.00    -0.194 NA 
HETATM    8  C   UNL     1      -7.236  15.084  67.305  1.00  0.00    -0.140 C  
HETATM    9  C   UNL     1      -7.987  15.243  68.639  1.00  0.00    -0.149 C  
HETATM   10  C   UNL     1      -8.470  16.694  68.781  1.00  0.00    -0.255 C  
HETATM   11  C   UNL     1      -9.302  17.026  67.529  1.00  0.00    -0.233 C  
HETATM   12  C   UNL     1      -8.406  16.925  66.285  1.00  0.00    -0.296 C  
ENDBRANCH   4   5
ENDBRANCH   2   4
TORSDOF 2
ENDMDL
MODEL      129
REMARK 921   NORMALIZED FREE ENERGY PREDICTED BY IDOCK:   -2.37 KCAL/MOL
REMARK 922        TOTAL FREE ENERGY PREDICTED BY IDOCK:   -2.82 KCAL/MOL
REMARK 923 INTER-LIGAND FREE ENERGY PREDICTED BY IDOCK:   -2.65 KCAL/MOL
REMARK 924 INTRA-LIGAND FREE ENERGY PREDICTED BY IDOCK:   -0.17 KCAL/MOL
REMARK 927      BINDING AFFINITY PREDICTED BY RF-SCORE:    0.00 PKD
ROOT
HETATM    1  C   UNL     1      -6.423   8.524  73.222  1.00  0.00    -0.098 C  
HETATM    2  C   UNL     1      -7.838   8.047  73.088  1.00  0.00    -0.156 C  
HETATM    3  O   UNL     1      -8.254   6.998  73.560  1.00  0.00    -0.109 OA 
ENDROOT
BRANCH   2   4
HETATM    4  O   UNL     1      -8.569   8.915  72.338  1.00  0.00    -0.399 OA 
BRANCH   4   5
HETATM    5  C   UNL     1      -8.802   8.509  70.976  1.00  0.00    -0.175 C  
HETATM    6  C   UNL     1      -8.697   9.718  70.011  1.00  0.00    -0.209 C  
HETATM    7  N   UNL     1     -10.004  10.048  69.379  1.00  0.00    -0.210 NA 
HETATM    8  C   UNL     1     -10.444   8.892  68.569  1.00  0.00    -0.182 C  
HETATM    9  C   UNL     1     -10.507   7.601  69.404  1.00  0.00    -0.220 C  
HETATM   10  C   UNL     1     -10.233   7.935  70.878  1.00  0.00    -0.213 C  
HETATM   11  C   UNL     1     -11.237   9.023  71.297  1.00  0.00    -0.385 C  
HETATM   12  C   UNL     1     -10.996  10.285  70.453  1.00  0.00    -0.296 C  
ENDBRANCH   4   5
ENDBRANCH   2   4
TORSDOF 2
ENDMDL
MODEL      130
REMARK 921   NORMALIZED FREE ENERGY PREDICTED BY IDOCK:   -2.36 KCAL/MOL
REMARK 922        TOTAL FREE ENERGY PREDICTED BY IDOCK:   -2.80 KCAL/MOL
REMARK 923 INTER-LIGAND FREE ENERGY PREDICTED BY IDOCK:   -2.54 KCAL/MOL
REMARK 924 INTRA-LIGAND FREE ENERGY PREDICTED BY IDOCK:   -0.26 KCAL/MOL
REMARK 927      BINDING AFFINITY PREDICTED BY RF-SCORE:    0.00 PKD
ROOT
HETATM    1  C   UNL     1     -10.528   7.697  68.210  1.00  0.00    -0.219 C  
HETATM    2  C   UNL     1      -9.331   7.602  69.107  1.00  0.00    -0.147 C  
HETATM    3  O   UNL     1      -8.351   8.329  69.020  1.00  0.00    -0.118 OA 
ENDROOT
BRANCH   2   4
HETATM    4  O   UNL     1      -9.472   6.577  69.989  1.00  0.00    -0.156 OA 
BRANCH   4   5
HETATM    5  C   UNL     1      -9.254   6.918  71.371  1.00  0.00    -0.156 C  
HETATM    6  C   UNL     1      -8.952   5.652  72.215  1.00  0.00    -0.139 C  
HETATM    7  N   UNL     1     -10.028   5.363  73.201  1.00  0.00    -0.165 NA 
HETATM    8  C   UNL     1     -10.118   6.496  74.148  1.00  0.00    -0.351 C  
HETATM    9  C   UNL     1     -10.335   7.833  73.420  1.00  0.00    -0.292 C  
HETATM   10  C   UNL     1     -10.543   7.568  71.921  1.00  0.00    -0.245 C  
HETATM   11  C   UNL     1     -11.703   6.566  71.788  1.00  0.00    -0.373 C  
HETATM   12  C   UNL     1     -11.312   5.246  72.472  1.00  0.00    -0.179 C  
ENDBRANCH   4   5
ENDBRANCH   2   4
TORSDOF 2
ENDMDL
MODEL      131
REMARK 921   NORMALIZED FREE ENERGY PREDICTED BY IDOCK:   -2.35 KCAL/MOL
REMARK 922        TOTAL FREE ENERGY PREDICTED BY IDOCK:   -2.79 KCAL/MOL
REMARK 923 INTER-LIGAND FREE ENERGY PREDICTED BY IDOCK:   -2.61 KCAL/MOL
REMARK 924 INTRA-LIGAND FREE ENERGY PREDICTED BY IDOCK:   -0.18 KCAL/MOL
REMARK 927      BINDING AFFINITY PREDICTED BY RF-SCORE:    0.00 PKD
ROOT
HETATM    1  C   UNL     1      -9.860   5.576  71.598  1.00  0.00    -0.221 C  
HETATM    2  C   UNL     1     -10.021   5.911  70.146  1.00  0.00    -0.191 C  
HETATM    3  O   UNL     1     -10.480   5.143  69.313  1.00  0.00    -0.219 OA 
ENDROOT
BRANCH   2   4
HETATM    4  O   UNL     1      -9.547   7.159  69.886  1.00  0.00    -0.163 OA 
BRANCH   4   5
HETATM    5  C   UNL     1     -10.538   8.123  69.480  1.00  0.00    -0.213 C  
HETATM    6  C   UNL     1     -10.440   8.412  67.959  1.00  0.00    -0.184 C  
HETATM    7  N   UNL     1     -10.008   9.808  67.679  1.00  0.00    -0.165 NA 
HETATM    8  C   UNL     1     -11.021  10.736  68.226  1.00  0.00    -0.255 C  
HETATM    9  C   UNL     1     -11.271  10.490  69.724  1.00  0.00    -0.361 C  
HETATM   10  C   UNL     1     -10.274   9.441  70.240  1.00  0.00    -0.295 C  
HETATM   11  C   UNL     1      -8.861   9.942  69.895  1.00  0.00    -0.222 C  
HETATM   12  C   UNL     1      -8.719  10.046  68.369  1.00  0.00    -0.117 C  
ENDBRANCH   4   5
ENDBRANCH   2   4
TORSDOF 2
ENDMDL
MODEL      132
REMARK 921   NORMALIZED FREE ENERGY PREDICTED BY IDOCK:   -2.33 KCAL/MOL
REMARK 922        TOTAL FREE ENERGY PREDICTED BY IDOCK:   -2.78 KCAL/MOL
REMARK 923 INTER-LIGAND FREE ENERGY PREDICTED BY IDOCK:   -2.58 KCAL/MOL
REMARK 924 INTRA-LIGAND FREE ENERGY PREDICTED BY IDOCK:   -0.19 KCAL/MOL
REMARK 927      BINDING AFFINITY PREDICTED BY RF-SCORE:    0.00 PKD
ROOT
HETATM    1  C   UNL     1      -8.492   7.865  66.029  1.00  0.00    -0.145 C  
HETATM    2  C   UNL     1      -9.408   8.539  67.005  1.00  0.00    -0.161 C  
HETATM    3  O   UNL     1     -10.380   9.207  66.682  1.00  0.00    -0.259 OA 
ENDROOT
BRANCH   2   4
HETATM    4  O   UNL     1      -8.983   8.338  68.281  1.00  0.00    -0.136 OA 
BRANCH   4   5
HETATM    5  C   UNL     1      -9.916   8.719  69.309  1.00  0.00    -0.194 C  
HETATM    6  C   UNL     1      -9.228   9.599  70.385  1.00  0.00    -0.202 C  
HETATM    7  N   UNL     1      -9.154   8.917  71.706  1.00  0.00    -0.349 NA 
HETATM    8  C   UNL     1     -10.530   8.658  72.183  1.00  0.00    -0.340 C  
HETATM    9  C   UNL     1     -11.348   7.856  71.156  1.00  0.00    -0.289 C  
HETATM   10  C   UNL     1     -10.434   7.435  69.994  1.00  0.00    -0.233 C  
HETATM   11  C   UNL     1      -9.240   6.677  70.602  1.00  0.00    -0.159 C  
HETATM   12  C   UNL     1      -8.458   7.622  71.526  1.00  0.00    -0.115 C  
ENDBRANCH   4   5
ENDBRANCH   2   4
TORSDOF 2
ENDMDL
MODEL      133
REMARK 921   NORMALIZED FREE ENERGY PREDICTED BY IDOCK:   -2.33 KCAL/MOL
REMARK 922        TOTAL FREE ENERGY PREDICTED BY IDOCK:   -2.77 KCAL/MOL
REMARK 923 INTER-LIGAND FREE ENERGY PREDICTED BY IDOCK:   -2.58 KCAL/MOL
REMARK 924 INTRA-LIGAND FREE ENERGY PREDICTED BY IDOCK:   -0.19 KCAL/MOL
REMARK 927      BINDING AFFINITY PREDICTED BY RF-SCORE:    0.00 PKD
ROOT
HETATM    1  C   UNL     1     -10.592   6.722  68.990  1.00  0.00    -0.258 C  
HETATM    2  C   UNL     1     -10.786   6.993  67.528  1.00  0.00    -0.281 C  
HETATM    3  O   UNL     1     -11.151   6.153  66.719  1.00  0.00    -0.322 OA 
ENDROOT
BRANCH   2   4
HETATM    4  O   UNL     1     -10.457   8.279  67.230  1.00  0.00    -0.274 OA 
BRANCH   4   5
HETATM    5  C   UNL     1      -9.064   8.511  66.948  1.00  0.00    -0.146 C  
HETATM    6  C   UNL     1      -8.539   9.747  67.725  1.00  0.00    -0.125 C  
HETATM    7  N   UNL     1      -8.169  10.866  66.816  1.00  0.00    -0.135 NA 
HETATM    8  C   UNL     1      -7.070  10.417  65.934  1.00  0.00    -0.135 C  
HETATM    9  C   UNL     1      -7.442   9.137  65.166  1.00  0.00    -0.097 C  
HETATM   10  C   UNL     1      -8.914   8.790  65.437  1.00  0.00    -0.211 C  
HETATM   11  C   UNL     1      -9.752  10.029  65.072  1.00  0.00    -0.386 C  
HETATM   12  C   UNL     1      -9.347  11.200  65.981  1.00  0.00    -0.206 C  
ENDBRANCH   4   5
ENDBRANCH   2   4
TORSDOF 2
ENDMDL
MODEL      134
REMARK 921   NORMALIZED FREE ENERGY PREDICTED BY IDOCK:   -2.30 KCAL/MOL
REMARK 922        TOTAL FREE ENERGY PREDICTED BY IDOCK:   -2.74 KCAL/MOL
REMARK 923 INTER-LIGAND FREE ENERGY PREDICTED BY IDOCK:   -2.76 KCAL/MOL
REMARK 924 INTRA-LIGAND FREE ENERGY PREDICTED BY IDOCK:    0.01 KCAL/MOL
REMARK 927      BINDING AFFINITY PREDICTED BY RF-SCORE:    0.00 PKD
ROOT
HETATM    1  C   UNL     1     -10.656   7.862  72.957  1.00  0.00    -0.406 C  
HETATM    2  C   UNL     1     -11.559   7.393  71.857  1.00  0.00    -0.272 C  
HETATM    3  O   UNL     1     -12.140   6.317  71.860  1.00  0.00    -0.334 OA 
ENDROOT
BRANCH   2   4
HETATM    4  O   UNL     1     -11.602   8.305  70.849  1.00  0.00    -0.278 OA 
BRANCH   4   5
HETATM    5  C   UNL     1     -10.893   7.934  69.651  1.00  0.00    -0.176 C  
HETATM    6  C   UNL     1      -9.525   7.287  69.993  1.00  0.00    -0.161 C  
HETATM    7  N   UNL     1      -8.380   8.128  69.550  1.00  0.00    -0.121 NA 
HETATM    8  C   UNL     1      -8.432   8.262  68.078  1.00  0.00    -0.132 C  
HETATM    9  C   UNL     1      -9.785   8.820  67.604  1.00  0.00    -0.210 C  
HETATM   10  C   UNL     1     -10.630   9.213  68.826  1.00  0.00    -0.208 C  
HETATM   11  C   UNL     1      -9.790  10.188  69.670  1.00  0.00    -0.254 C  
HETATM   12  C   UNL     1      -8.522   9.471  70.158  1.00  0.00    -0.205 C  
ENDBRANCH   4   5
ENDBRANCH   2   4
TORSDOF 2
ENDMDL
MODEL      135
REMARK 921   NORMALIZED FREE ENERGY PREDICTED BY IDOCK:   -2.29 KCAL/MOL
REMARK 922        TOTAL FREE ENERGY PREDICTED BY IDOCK:   -2.73 KCAL/MOL
REMARK 923 INTER-LIGAND FREE ENERGY PREDICTED BY IDOCK:   -2.62 KCAL/MOL
REMARK 924 INTRA-LIGAND FREE ENERGY PREDICTED BY IDOCK:   -0.12 KCAL/MOL
REMARK 927      BINDING AFFINITY PREDICTED BY RF-SCORE:    0.00 PKD
ROOT
HETATM    1  C   UNL     1     -12.024  12.791  66.582  1.00  0.00    -0.411 C  
HETATM    2  C   UNL     1     -11.367  14.014  67.147  1.00  0.00    -0.331 C  
HETATM    3  O   UNL     1     -11.943  14.844  67.835  1.00  0.00    -0.317 OA 
ENDROOT
BRANCH   2   4
HETATM    4  O   UNL     1     -10.067  14.087  66.753  1.00  0.00    -0.254 OA 
BRANCH   4   5
HETATM    5  C   UNL     1      -9.290  15.125  67.379  1.00  0.00    -0.196 C  
HETATM    6  C   UNL     1      -8.042  15.475  66.526  1.00  0.00    -0.064 C  
HETATM    7  N   UNL     1      -6.773  15.105  67.209  1.00  0.00    -0.288 NA 
HETATM    8  C   UNL     1      -6.666  15.884  68.462  1.00  0.00    -0.123 C  
HETATM    9  C   UNL     1      -7.895  15.685  69.365  1.00  0.00    -0.222 C  
HETATM   10  C   UNL     1      -8.808  14.610  68.752  1.00  0.00    -0.166 C  
HETATM   11  C   UNL     1      -7.952  13.349  68.540  1.00  0.00    -0.107 C  
HETATM   12  C   UNL     1      -6.824  13.663  67.545  1.00  0.00    -0.137 C  
ENDBRANCH   4   5
ENDBRANCH   2   4
TORSDOF 2
ENDMDL
MODEL      136
REMARK 921   NORMALIZED FREE ENERGY PREDICTED BY IDOCK:   -2.26 KCAL/MOL
REMARK 922        TOTAL FREE ENERGY PREDICTED BY IDOCK:   -2.70 KCAL/MOL
REMARK 923 INTER-LIGAND FREE ENERGY PREDICTED BY IDOCK:   -2.55 KCAL/MOL
REMARK 924 INTRA-LIGAND FREE ENERGY PREDICTED BY IDOCK:   -0.15 KCAL/MOL
REMARK 927      BINDING AFFINITY PREDICTED BY RF-SCORE:    0.00 PKD
ROOT
HETATM    1  C   UNL     1     -11.105  10.832  69.242  1.00  0.00    -0.312 C  
HETATM    2  C   UNL     1     -10.709   9.464  68.771  1.00  0.00    -0.171 C  
HETATM    3  O   UNL     1     -10.454   9.188  67.608  1.00  0.00    -0.240 OA 
ENDROOT
BRANCH   2   4
HETATM    4  O   UNL     1     -10.719   8.580  69.804  1.00  0.00    -0.229 OA 
BRANCH   4   5
HETATM    5  C   UNL     1     -10.544   7.199  69.434  1.00  0.00    -0.233 C  
HETATM    6  C   UNL     1     -11.390   6.269  70.345  1.00  0.00    -0.372 C  
HETATM    7  N   UNL     1     -10.540   5.401  71.205  1.00  0.00    -0.230 NA 
HETATM    8  C   UNL     1      -9.728   4.522  70.334  1.00  0.00    -0.217 C  
HETATM    9  C   UNL     1      -8.901   5.331  69.321  1.00  0.00    -0.115 C  
HETATM   10  C   UNL     1      -9.056   6.831  69.618  1.00  0.00    -0.143 C  
HETATM   11  C   UNL     1      -8.665   7.049  71.090  1.00  0.00    -0.137 C  
HETATM   12  C   UNL     1      -9.632   6.266  71.992  1.00  0.00    -0.151 C  
ENDBRANCH   4   5
ENDBRANCH   2   4
TORSDOF 2
ENDMDL
MODEL      137
REMARK 921   NORMALIZED FREE ENERGY PREDICTED BY IDOCK:   -2.23 KCAL/MOL
REMARK 922        TOTAL FREE ENERGY PREDICTED BY IDOCK:   -2.67 KCAL/MOL
REMARK 923 INTER-LIGAND FREE ENERGY PREDICTED BY IDOCK:   -2.46 KCAL/MOL
REMARK 924 INTRA-LIGAND FREE ENERGY PREDICTED BY IDOCK:   -0.21 KCAL/MOL
REMARK 927      BINDING AFFINITY PREDICTED BY RF-SCORE:    0.00 PKD
ROOT
HETATM    1  C   UNL     1      -7.514  13.488  68.649  1.00  0.00    -0.108 C  
HETATM    2  C   UNL     1      -6.492  13.782  67.592  1.00  0.00    -0.150 C  
HETATM    3  O   UNL     1      -5.632  12.991  67.232  1.00  0.00    -0.338 OA 
ENDROOT
BRANCH   2   4
HETATM    4  O   UNL     1      -6.632  15.054  67.130  1.00  0.00    -0.281 OA 
BRANCH   4   5
HETATM    5  C   UNL     1      -7.024  16.028  68.115  1.00  0.00    -0.122 C  
HETATM    6  C   UNL     1      -8.184  16.914  67.589  1.00  0.00    -0.186 C  
HETATM    7  N   UNL     1      -7.769  18.330  67.399  1.00  0.00    -0.217 NA 
HETATM    8  C   UNL     1      -7.367  18.886  68.710  1.00  0.00    -0.322 C  
HETATM    9  C   UNL     1      -6.270  18.039  69.376  1.00  0.00    -0.250 C  
HETATM   10  C   UNL     1      -5.812  16.942  68.403  1.00  0.00    -0.134 C  
HETATM   11  C   UNL     1      -5.387  17.635  67.097  1.00  0.00    -0.156 C  
HETATM   12  C   UNL     1      -6.600  18.357  66.489  1.00  0.00    -0.195 C  
ENDBRANCH   4   5
ENDBRANCH   2   4
TORSDOF 2
ENDMDL
MODEL      138
REMARK 921   NORMALIZED FREE ENERGY PREDICTED BY IDOCK:   -2.15 KCAL/MOL
REMARK 922        TOTAL FREE ENERGY PREDICTED BY IDOCK:   -2.57 KCAL/MOL
REMARK 923 INTER-LIGAND FREE ENERGY PREDICTED BY IDOCK:   -2.47 KCAL/MOL
REMARK 924 INTRA-LIGAND FREE ENERGY PREDICTED BY IDOCK:   -0.11 KCAL/MOL
REMARK 927      BINDING AFFINITY PREDICTED BY RF-SCORE:    0.00 PKD
ROOT
HETATM    1  C   UNL     1     -11.192  13.266  67.869  1.00  0.00    -0.302 C  
HETATM    2  C   UNL     1      -9.836  12.727  67.526  1.00  0.00    -0.211 C  
HETATM    3  O   UNL     1      -8.785  13.239  67.884  1.00  0.00    -0.170 OA 
ENDROOT
BRANCH   2   4
HETATM    4  O   UNL     1      -9.942  11.626  66.734  1.00  0.00    -0.200 OA 
BRANCH   4   5
HETATM    5  C   UNL     1     -10.185  10.388  67.428  1.00  0.00    -0.214 C  
HETATM    6  C   UNL     1      -8.963   9.991  68.298  1.00  0.00    -0.119 C  
HETATM    7  N   UNL     1      -8.300   8.753  67.806  1.00  0.00    -0.117 NA 
HETATM    8  C   UNL     1      -9.264   7.635  67.888  1.00  0.00    -0.136 C  
HETATM    9  C   UNL     1     -10.564   7.945  67.126  1.00  0.00    -0.383 C  
HETATM   10  C   UNL     1     -10.410   9.278  66.378  1.00  0.00    -0.238 C  
HETATM   11  C   UNL     1      -9.156   9.165  65.493  1.00  0.00    -0.275 C  
HETATM   12  C   UNL     1      -7.923   8.957  66.387  1.00  0.00    -0.103 C  
ENDBRANCH   4   5
ENDBRANCH   2   4
TORSDOF 2
ENDMDL
MODEL      139
REMARK 921   NORMALIZED FREE ENERGY PREDICTED BY IDOCK:   -2.13 KCAL/MOL
REMARK 922        TOTAL FREE ENERGY PREDICTED BY IDOCK:   -2.55 KCAL/MOL
REMARK 923 INTER-LIGAND FREE ENERGY PREDICTED BY IDOCK:   -2.42 KCAL/MOL
REMARK 924 INTRA-LIGAND FREE ENERGY PREDICTED BY IDOCK:   -0.14 KCAL/MOL
REMARK 927      BINDING AFFINITY PREDICTED BY RF-SCORE:    0.00 PKD
ROOT
HETATM    1  C   UNL     1      -9.274  10.466  69.240  1.00  0.00    -0.198 C  
HETATM    2  C   UNL     1      -9.831   9.097  69.493  1.00  0.00    -0.178 C  
HETATM    3  O   UNL     1     -10.726   8.590  68.832  1.00  0.00    -0.182 OA 
ENDROOT
BRANCH   2   4
HETATM    4  O   UNL     1      -9.235   8.528  70.575  1.00  0.00    -0.145 OA 
BRANCH   4   5
HETATM    5  C   UNL     1      -9.888   7.353  71.092  1.00  0.00    -0.174 C  
HETATM    6  C   UNL     1     -10.956   7.734  72.152  1.00  0.00    -0.266 C  
HETATM    7  N   UNL     1     -10.592   7.254  73.513  1.00  0.00    -0.383 NA 
HETATM    8  C   UNL     1     -10.520   5.777  73.491  1.00  0.00    -0.256 C  
HETATM    9  C   UNL     1      -9.547   5.270  72.413  1.00  0.00    -0.175 C  
HETATM   10  C   UNL     1      -8.824   6.467  71.775  1.00  0.00    -0.139 C  
HETATM   11  C   UNL     1      -8.165   7.265  72.915  1.00  0.00    -0.126 C  
HETATM   12  C   UNL     1      -9.257   7.794  73.859  1.00  0.00    -0.195 C  
ENDBRANCH   4   5
ENDBRANCH   2   4
TORSDOF 2
ENDMDL
MODEL      140
REMARK 921   NORMALIZED FREE ENERGY PREDICTED BY IDOCK:   -2.12 KCAL/MOL
REMARK 922        TOTAL FREE ENERGY PREDICTED BY IDOCK:   -2.54 KCAL/MOL
REMARK 923 INTER-LIGAND FREE ENERGY PREDICTED BY IDOCK:   -2.35 KCAL/MOL
REMARK 924 INTRA-LIGAND FREE ENERGY PREDICTED BY IDOCK:   -0.19 KCAL/MOL
REMARK 927      BINDING AFFINITY PREDICTED BY RF-SCORE:    0.00 PKD
ROOT
HETATM    1  C   UNL     1      -6.047   6.052  69.649  1.00  0.00    -0.026 C  
HETATM    2  C   UNL     1      -6.990   7.170  69.321  1.00  0.00    -0.070 C  
HETATM    3  O   UNL     1      -6.638   8.257  68.887  1.00  0.00    -0.050 OA 
ENDROOT
BRANCH   2   4
HETATM    4  O   UNL     1      -8.271   6.818  69.612  1.00  0.00    -0.127 OA 
BRANCH   4   5
HETATM    5  C   UNL     1      -8.725   7.178  70.931  1.00  0.00    -0.146 C  
HETATM    6  C   UNL     1      -9.458   5.991  71.609  1.00  0.00    -0.148 C  
HETATM    7  N   UNL     1     -10.905   6.270  71.817  1.00  0.00    -0.239 NA 
HETATM    8  C   UNL     1     -11.039   7.429  72.725  1.00  0.00    -0.346 C  
HETATM    9  C   UNL     1     -10.276   8.657  72.199  1.00  0.00    -0.394 C  
HETATM   10  C   UNL     1      -9.722   8.350  70.799  1.00  0.00    -0.207 C  
HETATM   11  C   UNL     1     -10.906   7.902  69.924  1.00  0.00    -0.221 C  
HETATM   12  C   UNL     1     -11.508   6.615  70.508  1.00  0.00    -0.376 C  
ENDBRANCH   4   5
ENDBRANCH   2   4
TORSDOF 2
ENDMDL
MODEL      141
REMARK 921   NORMALIZED FREE ENERGY PREDICTED BY IDOCK:   -2.11 KCAL/MOL
REMARK 922        TOTAL FREE ENERGY PREDICTED BY IDOCK:   -2.53 KCAL/MOL
REMARK 923 INTER-LIGAND FREE ENERGY PREDICTED BY IDOCK:   -2.30 KCAL/MOL
REMARK 924 INTRA-LIGAND FREE ENERGY PREDICTED BY IDOCK:   -0.22 KCAL/MOL
REMARK 927      BINDING AFFINITY PREDICTED BY RF-SCORE:    0.00 PKD
ROOT
HETATM    1  C   UNL     1     -10.083   4.142  65.278  1.00  0.00    -0.213 C  
HETATM    2  C   UNL     1      -8.847   4.863  65.726  1.00  0.00    -0.135 C  
HETATM    3  O   UNL     1      -7.858   5.026  65.027  1.00  0.00    -0.085 OA 
ENDROOT
BRANCH   2   4
HETATM    4  O   UNL     1      -8.968   5.265  67.020  1.00  0.00    -0.113 OA 
BRANCH   4   5
HETATM    5  C   UNL     1      -9.039   6.690  67.219  1.00  0.00    -0.118 C  
HETATM    6  C   UNL     1      -8.300   7.106  68.518  1.00  0.00    -0.125 C  
HETATM    7  N   UNL     1      -9.232   7.639  69.548  1.00  0.00    -0.150 NA 
HETATM    8  C   UNL     1      -9.879   8.858  69.016  1.00  0.00    -0.180 C  
HETATM    9  C   UNL     1     -10.581   8.592  67.674  1.00  0.00    -0.268 C  
HETATM   10  C   UNL     1     -10.524   7.089  67.359  1.00  0.00    -0.343 C  
HETATM   11  C   UNL     1     -11.129   6.345  68.562  1.00  0.00    -0.385 C  
HETATM   12  C   UNL     1     -10.274   6.620  69.810  1.00  0.00    -0.187 C  
ENDBRANCH   4   5
ENDBRANCH   2   4
TORSDOF 2
ENDMDL
MODEL      142
REMARK 921   NORMALIZED FREE ENERGY PREDICTED BY IDOCK:   -2.11 KCAL/MOL
REMARK 922        TOTAL FREE ENERGY PREDICTED BY IDOCK:   -2.52 KCAL/MOL
REMARK 923 INTER-LIGAND FREE ENERGY PREDICTED BY IDOCK:   -2.34 KCAL/MOL
REMARK 924 INTRA-LIGAND FREE ENERGY PREDICTED BY IDOCK:   -0.19 KCAL/MOL
REMARK 927      BINDING AFFINITY PREDICTED BY RF-SCORE:    0.00 PKD
ROOT
HETATM    1  C   UNL     1      -9.492  10.680  68.807  1.00  0.00    -0.186 C  
HETATM    2  C   UNL     1      -8.882   9.614  69.665  1.00  0.00    -0.201 C  
HETATM    3  O   UNL     1      -7.802   9.722  70.228  1.00  0.00    -0.166 OA 
ENDROOT
BRANCH   2   4
HETATM    4  O   UNL     1      -9.672   8.507  69.690  1.00  0.00    -0.175 OA 
BRANCH   4   5
HETATM    5  C   UNL     1      -9.001   7.263  69.411  1.00  0.00    -0.139 C  
HETATM    6  C   UNL     1      -8.554   7.194  67.927  1.00  0.00    -0.123 C  
HETATM    7  N   UNL     1      -9.283   6.141  67.169  1.00  0.00    -0.117 NA 
HETATM    8  C   UNL     1      -8.975   4.825  67.770  1.00  0.00    -0.111 C  
HETATM    9  C   UNL     1      -9.300   4.795  69.274  1.00  0.00    -0.196 C  
HETATM   10  C   UNL     1      -9.992   6.107  69.672  1.00  0.00    -0.210 C  
HETATM   11  C   UNL     1     -11.213   6.280  68.751  1.00  0.00    -0.357 C  
HETATM   12  C   UNL     1     -10.737   6.396  67.295  1.00  0.00    -0.353 C  
ENDBRANCH   4   5
ENDBRANCH   2   4
TORSDOF 2
ENDMDL
MODEL      143
REMARK 921   NORMALIZED FREE ENERGY PREDICTED BY IDOCK:   -2.08 KCAL/MOL
REMARK 922        TOTAL FREE ENERGY PREDICTED BY IDOCK:   -2.50 KCAL/MOL
REMARK 923 INTER-LIGAND FREE ENERGY PREDICTED BY IDOCK:   -2.30 KCAL/MOL
REMARK 924 INTRA-LIGAND FREE ENERGY PREDICTED BY IDOCK:   -0.19 KCAL/MOL
REMARK 927      BINDING AFFINITY PREDICTED BY RF-SCORE:    0.00 PKD
ROOT
HETATM    1  C   UNL     1     -10.947   6.186  71.893  1.00  0.00    -0.311 C  
HETATM    2  C   UNL     1     -10.099   5.014  71.500  1.00  0.00    -0.196 C  
HETATM    3  O   UNL     1     -10.005   3.987  72.156  1.00  0.00    -0.160 OA 
ENDROOT
BRANCH   2   4
HETATM    4  O   UNL     1      -9.426   5.273  70.346  1.00  0.00    -0.151 OA 
BRANCH   4   5
HETATM    5  C   UNL     1     -10.187   5.101  69.136  1.00  0.00    -0.189 C  
HETATM    6  C   UNL     1      -9.559   4.005  68.236  1.00  0.00    -0.125 C  
HETATM    7  N   UNL     1      -9.019   4.561  66.966  1.00  0.00    -0.112 NA 
HETATM    8  C   UNL     1     -10.134   5.157  66.198  1.00  0.00    -0.207 C  
HETATM    9  C   UNL     1     -10.895   6.210  67.021  1.00  0.00    -0.435 C  
HETATM   10  C   UNL     1     -10.169   6.434  68.357  1.00  0.00    -0.198 C  
HETATM   11  C   UNL     1      -8.711   6.802  68.030  1.00  0.00    -0.118 C  
HETATM   12  C   UNL     1      -8.044   5.626  67.299  1.00  0.00    -0.102 C  
ENDBRANCH   4   5
ENDBRANCH   2   4
TORSDOF 2
ENDMDL
MODEL      144
REMARK 921   NORMALIZED FREE ENERGY PREDICTED BY IDOCK:   -2.07 KCAL/MOL
REMARK 922        TOTAL FREE ENERGY PREDICTED BY IDOCK:   -2.48 KCAL/MOL
REMARK 923 INTER-LIGAND FREE ENERGY PREDICTED BY IDOCK:   -2.35 KCAL/MOL
REMARK 924 INTRA-LIGAND FREE ENERGY PREDICTED BY IDOCK:   -0.14 KCAL/MOL
REMARK 927      BINDING AFFINITY PREDICTED BY RF-SCORE:    0.00 PKD
ROOT
HETATM    1  C   UNL     1     -10.161   4.363  65.875  1.00  0.00    -0.262 C  
HETATM    2  C   UNL     1      -8.935   5.217  65.750  1.00  0.00    -0.154 C  
HETATM    3  O   UNL     1      -8.105   5.097  64.861  1.00  0.00    -0.106 OA 
ENDROOT
BRANCH   2   4
HETATM    4  O   UNL     1      -8.860   6.102  66.780  1.00  0.00    -0.117 OA 
BRANCH   4   5
HETATM    5  C   UNL     1     -10.040   6.196  67.600  1.00  0.00    -0.155 C  
HETATM    6  C   UNL     1     -10.529   7.665  67.703  1.00  0.00    -0.244 C  
HETATM    7  N   UNL     1     -10.400   8.206  69.083  1.00  0.00    -0.219 NA 
HETATM    8  C   UNL     1     -11.256   7.406  69.987  1.00  0.00    -0.180 C  
HETATM    9  C   UNL     1     -10.921   5.907  69.912  1.00  0.00    -0.444 C  
HETATM   10  C   UNL     1      -9.686   5.705  69.021  1.00  0.00    -0.187 C  
HETATM   11  C   UNL     1      -8.561   6.590  69.589  1.00  0.00    -0.132 C  
HETATM   12  C   UNL     1      -8.989   8.064  69.511  1.00  0.00    -0.148 C  
ENDBRANCH   4   5
ENDBRANCH   2   4
TORSDOF 2
ENDMDL
MODEL      145
REMARK 921   NORMALIZED FREE ENERGY PREDICTED BY IDOCK:   -2.05 KCAL/MOL
REMARK 922        TOTAL FREE ENERGY PREDICTED BY IDOCK:   -2.46 KCAL/MOL
REMARK 923 INTER-LIGAND FREE ENERGY PREDICTED BY IDOCK:   -2.30 KCAL/MOL
REMARK 924 INTRA-LIGAND FREE ENERGY PREDICTED BY IDOCK:   -0.17 KCAL/MOL
REMARK 927      BINDING AFFINITY PREDICTED BY RF-SCORE:    0.00 PKD
ROOT
HETATM    1  C   UNL     1      -7.086  10.002  68.198  1.00  0.00    -0.080 C  
HETATM    2  C   UNL     1      -8.550   9.698  68.303  1.00  0.00    -0.119 C  
HETATM    3  O   UNL     1      -9.399  10.522  68.611  1.00  0.00    -0.156 OA 
ENDROOT
BRANCH   2   4
HETATM    4  O   UNL     1      -8.787   8.382  68.055  1.00  0.00    -0.140 OA 
BRANCH   4   5
HETATM    5  C   UNL     1      -9.186   7.601  69.196  1.00  0.00    -0.141 C  
HETATM    6  C   UNL     1      -8.443   6.239  69.224  1.00  0.00    -0.124 C  
HETATM    7  N   UNL     1      -9.367   5.090  69.018  1.00  0.00    -0.118 NA 
HETATM    8  C   UNL     1     -10.346   5.065  70.126  1.00  0.00    -0.236 C  
HETATM    9  C   UNL     1     -11.095   6.403  70.256  1.00  0.00    -0.416 C  
HETATM   10  C   UNL     1     -10.701   7.322  69.090  1.00  0.00    -0.201 C  
HETATM   11  C   UNL     1     -10.977   6.553  67.785  1.00  0.00    -0.407 C  
HETATM   12  C   UNL     1     -10.092   5.297  67.743  1.00  0.00    -0.157 C  
ENDBRANCH   4   5
ENDBRANCH   2   4
TORSDOF 2
ENDMDL
MODEL      146
REMARK 921   NORMALIZED FREE ENERGY PREDICTED BY IDOCK:   -2.04 KCAL/MOL
REMARK 922        TOTAL FREE ENERGY PREDICTED BY IDOCK:   -2.45 KCAL/MOL
REMARK 923 INTER-LIGAND FREE ENERGY PREDICTED BY IDOCK:   -2.25 KCAL/MOL
REMARK 924 INTRA-LIGAND FREE ENERGY PREDICTED BY IDOCK:   -0.20 KCAL/MOL
REMARK 927      BINDING AFFINITY PREDICTED BY RF-SCORE:    0.00 PKD
ROOT
HETATM    1  C   UNL     1     -10.941  11.628  65.541  1.00  0.00    -0.327 C  
HETATM    2  C   UNL     1     -10.313  11.094  64.289  1.00  0.00    -0.351 C  
HETATM    3  O   UNL     1     -10.453  11.599  63.185  1.00  0.00    -0.366 OA 
ENDROOT
BRANCH   2   4
HETATM    4  O   UNL     1      -9.612   9.958  64.551  1.00  0.00    -0.299 OA 
BRANCH   4   5
HETATM    5  C   UNL     1      -8.629  10.067  65.597  1.00  0.00    -0.155 C  
HETATM    6  C   UNL     1      -7.191  10.023  65.015  1.00  0.00    -0.139 C  
HETATM    7  N   UNL     1      -6.453   8.801  65.434  1.00  0.00    -0.066 NA 
HETATM    8  C   UNL     1      -6.317   8.810  66.906  1.00  0.00    -0.060 C  
HETATM    9  C   UNL     1      -7.682   8.936  67.604  1.00  0.00    -0.101 C  
HETATM   10  C   UNL     1      -8.800   8.865  66.552  1.00  0.00    -0.160 C  
HETATM   11  C   UNL     1      -8.600   7.563  65.757  1.00  0.00    -0.158 C  
HETATM   12  C   UNL     1      -7.245   7.615  65.033  1.00  0.00    -0.066 C  
ENDBRANCH   4   5
ENDBRANCH   2   4
TORSDOF 2
ENDMDL
MODEL      147
REMARK 921   NORMALIZED FREE ENERGY PREDICTED BY IDOCK:   -2.02 KCAL/MOL
REMARK 922        TOTAL FREE ENERGY PREDICTED BY IDOCK:   -2.43 KCAL/MOL
REMARK 923 INTER-LIGAND FREE ENERGY PREDICTED BY IDOCK:   -2.22 KCAL/MOL
REMARK 924 INTRA-LIGAND FREE ENERGY PREDICTED BY IDOCK:   -0.21 KCAL/MOL
REMARK 927      BINDING AFFINITY PREDICTED BY RF-SCORE:    0.00 PKD
ROOT
HETATM    1  C   UNL     1      -6.687   8.568  64.240  1.00  0.00    -0.071 C  
HETATM    2  C   UNL     1      -6.633  10.032  64.558  1.00  0.00    -0.129 C  
HETATM    3  O   UNL     1      -5.616  10.623  64.893  1.00  0.00    -0.141 OA 
ENDROOT
BRANCH   2   4
HETATM    4  O   UNL     1      -7.870  10.590  64.464  1.00  0.00    -0.108 OA 
BRANCH   4   5
HETATM    5  C   UNL     1      -8.861  10.046  65.358  1.00  0.00    -0.173 C  
HETATM    6  C   UNL     1     -10.272  10.597  65.023  1.00  0.00    -0.310 C  
HETATM    7  N   UNL     1     -10.809  11.463  66.108  1.00  0.00    -0.273 NA 
HETATM    8  C   UNL     1     -10.948  10.652  67.336  1.00  0.00    -0.298 C  
HETATM    9  C   UNL     1      -9.621   9.978  67.728  1.00  0.00    -0.168 C  
HETATM   10  C   UNL     1      -8.504  10.475  66.798  1.00  0.00    -0.127 C  
HETATM   11  C   UNL     1      -8.494  12.012  66.873  1.00  0.00    -0.172 C  
HETATM   12  C   UNL     1      -9.838  12.553  66.361  1.00  0.00    -0.253 C  
ENDBRANCH   4   5
ENDBRANCH   2   4
TORSDOF 2
ENDMDL
MODEL      148
REMARK 921   NORMALIZED FREE ENERGY PREDICTED BY IDOCK:   -2.02 KCAL/MOL
REMARK 922        TOTAL FREE ENERGY PREDICTED BY IDOCK:   -2.43 KCAL/MOL
REMARK 923 INTER-LIGAND FREE ENERGY PREDICTED BY IDOCK:   -2.19 KCAL/MOL
REMARK 924 INTRA-LIGAND FREE ENERGY PREDICTED BY IDOCK:   -0.24 KCAL/MOL
REMARK 927      BINDING AFFINITY PREDICTED BY RF-SCORE:    0.00 PKD
ROOT
HETATM    1  C   UNL     1     -12.404   6.851  71.734  1.00  0.00    -0.401 C  
HETATM    2  C   UNL     1     -11.817   8.155  71.285  1.00  0.00    -0.287 C  
HETATM    3  O   UNL     1     -12.166   9.246  71.712  1.00  0.00    -0.341 OA 
ENDROOT
BRANCH   2   4
HETATM    4  O   UNL     1     -10.884   7.953  70.316  1.00  0.00    -0.238 OA 
BRANCH   4   5
HETATM    5  C   UNL     1      -9.541   8.341  70.662  1.00  0.00    -0.171 C  
HETATM    6  C   UNL     1      -8.820   8.988  69.449  1.00  0.00    -0.144 C  
HETATM    7  N   UNL     1      -7.687   8.157  68.961  1.00  0.00    -0.098 NA 
HETATM    8  C   UNL     1      -6.684   8.041  70.041  1.00  0.00    -0.040 C  
HETATM    9  C   UNL     1      -7.302   7.485  71.336  1.00  0.00    -0.078 C  
HETATM   10  C   UNL     1      -8.758   7.074  71.069  1.00  0.00    -0.139 C  
HETATM   11  C   UNL     1      -8.748   6.091  69.885  1.00  0.00    -0.131 C  
HETATM   12  C   UNL     1      -8.202   6.806  68.639  1.00  0.00    -0.120 C  
ENDBRANCH   4   5
ENDBRANCH   2   4
TORSDOF 2
ENDMDL
MODEL      149
REMARK 921   NORMALIZED FREE ENERGY PREDICTED BY IDOCK:   -2.00 KCAL/MOL
REMARK 922        TOTAL FREE ENERGY PREDICTED BY IDOCK:   -2.41 KCAL/MOL
REMARK 923 INTER-LIGAND FREE ENERGY PREDICTED BY IDOCK:   -2.19 KCAL/MOL
REMARK 924 INTRA-LIGAND FREE ENERGY PREDICTED BY IDOCK:   -0.22 KCAL/MOL
REMARK 927      BINDING AFFINITY PREDICTED BY RF-SCORE:    0.00 PKD
ROOT
HETATM    1  C   UNL     1      -7.401   6.805  64.903  1.00  0.00    -0.087 C  
HETATM    2  C   UNL     1      -6.743   8.016  65.493  1.00  0.00    -0.048 C  
HETATM    3  O   UNL     1      -5.559   8.288  65.355  1.00  0.00    -0.042 OA 
ENDROOT
BRANCH   2   4
HETATM    4  O   UNL     1      -7.633   8.735  66.228  1.00  0.00    -0.089 OA 
BRANCH   4   5
HETATM    5  C   UNL     1      -8.133   9.929  65.597  1.00  0.00    -0.128 C  
HETATM    6  C   UNL     1      -7.918  11.169  66.505  1.00  0.00    -0.158 C  
HETATM    7  N   UNL     1      -9.204  11.746  66.983  1.00  0.00    -0.182 NA 
HETATM    8  C   UNL     1      -9.981  12.205  65.811  1.00  0.00    -0.249 C  
HETATM    9  C   UNL     1     -10.191  11.075  64.788  1.00  0.00    -0.381 C  
HETATM   10  C   UNL     1      -9.650   9.758  65.365  1.00  0.00    -0.359 C  
HETATM   11  C   UNL     1     -10.341   9.535  66.723  1.00  0.00    -0.298 C  
HETATM   12  C   UNL     1      -9.966  10.681  67.676  1.00  0.00    -0.169 C  
ENDBRANCH   4   5
ENDBRANCH   2   4
TORSDOF 2
ENDMDL
MODEL      150
REMARK 921   NORMALIZED FREE ENERGY PREDICTED BY IDOCK:   -2.00 KCAL/MOL
REMARK 922        TOTAL FREE ENERGY PREDICTED BY IDOCK:   -2.41 KCAL/MOL
REMARK 923 INTER-LIGAND FREE ENERGY PREDICTED BY IDOCK:   -2.46 KCAL/MOL
REMARK 924 INTRA-LIGAND FREE ENERGY PREDICTED BY IDOCK:    0.05 KCAL/MOL
REMARK 927      BINDING AFFINITY PREDICTED BY RF-SCORE:    0.00 PKD
ROOT
HETATM    1  C   UNL     1      -9.932  17.769  66.376  1.00  0.00    -0.345 C  
HETATM    2  C   UNL     1      -8.492  17.354  66.366  1.00  0.00    -0.257 C  
HETATM    3  O   UNL     1      -7.639  17.859  65.650  1.00  0.00    -0.546 OA 
ENDROOT
BRANCH   2   4
HETATM    4  O   UNL     1      -8.284  16.319  67.223  1.00  0.00    -0.156 OA 
BRANCH   4   5
HETATM    5  C   UNL     1      -8.163  15.023  66.608  1.00  0.00     0.015 C  
HETATM    6  C   UNL     1      -9.535  14.528  66.080  1.00  0.00    -0.259 C  
HETATM    7  N   UNL     1     -10.026  13.335  66.822  1.00  0.00    -0.256 NA 
HETATM    8  C   UNL     1      -9.067  12.226  66.623  1.00  0.00    -0.203 C  
HETATM    9  C   UNL     1      -7.640  12.625  67.036  1.00  0.00     0.006 C  
HETATM   10  C   UNL     1      -7.667  14.022  67.675  1.00  0.00    -0.188 C  
HETATM   11  C   UNL     1      -8.684  13.979  68.830  1.00  0.00    -0.028 C  
HETATM   12  C   UNL     1     -10.079  13.669  68.264  1.00  0.00    -0.240 C  
ENDBRANCH   4   5
ENDBRANCH   2   4
TORSDOF 2
ENDMDL
MODEL      151
REMARK 921   NORMALIZED FREE ENERGY PREDICTED BY IDOCK:   -2.00 KCAL/MOL
REMARK 922        TOTAL FREE ENERGY PREDICTED BY IDOCK:   -2.40 KCAL/MOL
REMARK 923 INTER-LIGAND FREE ENERGY PREDICTED BY IDOCK:   -2.18 KCAL/MOL
REMARK 924 INTRA-LIGAND FREE ENERGY PREDICTED BY IDOCK:   -0.22 KCAL/MOL
REMARK 927      BINDING AFFINITY PREDICTED BY RF-SCORE:    0.00 PKD
ROOT
HETATM    1  C   UNL     1      -9.353   4.204  68.713  1.00  0.00    -0.222 C  
HETATM    2  C   UNL     1     -10.026   5.316  67.966  1.00  0.00    -0.152 C  
HETATM    3  O   UNL     1     -10.284   5.280  66.772  1.00  0.00    -0.195 OA 
ENDROOT
BRANCH   2   4
HETATM    4  O   UNL     1     -10.263   6.372  68.790  1.00  0.00    -0.155 OA 
BRANCH   4   5
HETATM    5  C   UNL     1      -9.118   7.193  69.087  1.00  0.00    -0.137 C  
HETATM    6  C   UNL     1      -9.226   7.804  70.509  1.00  0.00    -0.162 C  
HETATM    7  N   UNL     1      -9.378   9.284  70.475  1.00  0.00    -0.246 NA 
HETATM    8  C   UNL     1      -8.173   9.869  69.849  1.00  0.00    -0.184 C  
HETATM    9  C   UNL     1      -7.908   9.276  68.454  1.00  0.00    -0.094 C  
HETATM   10  C   UNL     1      -9.072   8.350  68.066  1.00  0.00    -0.140 C  
HETATM   11  C   UNL     1     -10.369   9.171  68.182  1.00  0.00    -0.263 C  
HETATM   12  C   UNL     1     -10.558   9.614  69.642  1.00  0.00    -0.233 C  
ENDBRANCH   4   5
ENDBRANCH   2   4
TORSDOF 2
ENDMDL
MODEL      152
REMARK 921   NORMALIZED FREE ENERGY PREDICTED BY IDOCK:   -1.98 KCAL/MOL
REMARK 922        TOTAL FREE ENERGY PREDICTED BY IDOCK:   -2.38 KCAL/MOL
REMARK 923 INTER-LIGAND FREE ENERGY PREDICTED BY IDOCK:   -2.13 KCAL/MOL
REMARK 924 INTRA-LIGAND FREE ENERGY PREDICTED BY IDOCK:   -0.26 KCAL/MOL
REMARK 927      BINDING AFFINITY PREDICTED BY RF-SCORE:    0.00 PKD
ROOT
HETATM    1  C   UNL     1      -9.149  13.043  67.018  1.00  0.00    -0.230 C  
HETATM    2  C   UNL     1      -8.128  12.220  67.744  1.00  0.00    -0.155 C  
HETATM    3  O   UNL     1      -7.219  12.691  68.413  1.00  0.00    -0.097 OA 
ENDROOT
BRANCH   2   4
HETATM    4  O   UNL     1      -8.330  10.894  67.518  1.00  0.00    -0.116 OA 
BRANCH   4   5
HETATM    5  C   UNL     1      -8.500  10.086  68.698  1.00  0.00    -0.118 C  
HETATM    6  C   UNL     1      -8.105   8.611  68.421  1.00  0.00    -0.118 C  
HETATM    7  N   UNL     1      -9.274   7.693  68.498  1.00  0.00    -0.144 NA 
HETATM    8  C   UNL     1      -9.823   7.738  69.870  1.00  0.00    -0.177 C  
HETATM    9  C   UNL     1     -10.178   9.173  70.296  1.00  0.00    -0.253 C  
HETATM   10  C   UNL     1      -9.990  10.120  69.100  1.00  0.00    -0.221 C  
HETATM   11  C   UNL     1     -10.834   9.564  67.939  1.00  0.00    -0.240 C  
HETATM   12  C   UNL     1     -10.309   8.173  67.552  1.00  0.00    -0.261 C  
ENDBRANCH   4   5
ENDBRANCH   2   4
TORSDOF 2
ENDMDL
MODEL      153
REMARK 921   NORMALIZED FREE ENERGY PREDICTED BY IDOCK:   -1.98 KCAL/MOL
REMARK 922        TOTAL FREE ENERGY PREDICTED BY IDOCK:   -2.38 KCAL/MOL
REMARK 923 INTER-LIGAND FREE ENERGY PREDICTED BY IDOCK:   -2.37 KCAL/MOL
REMARK 924 INTRA-LIGAND FREE ENERGY PREDICTED BY IDOCK:   -0.01 KCAL/MOL
REMARK 927      BINDING AFFINITY PREDICTED BY RF-SCORE:    0.00 PKD
ROOT
HETATM    1  C   UNL     1      -7.364  14.648  70.134  1.00  0.00     0.267 C  
HETATM    2  C   UNL     1      -7.252  14.459  68.651  1.00  0.00    -0.123 C  
HETATM    3  O   UNL     1      -6.191  14.402  68.047  1.00  0.00    -0.128 OA 
ENDROOT
BRANCH   2   4
HETATM    4  O   UNL     1      -8.485  14.407  68.080  1.00  0.00    -0.148 OA 
BRANCH   4   5
HETATM    5  C   UNL     1      -8.706  15.337  67.003  1.00  0.00    -0.234 C  
HETATM    6  C   UNL     1      -8.100  16.726  67.337  1.00  0.00    -0.170 C  
HETATM    7  N   UNL     1      -9.146  17.772  67.498  1.00  0.00    -0.243 NA 
HETATM    8  C   UNL     1      -9.870  17.919  66.218  1.00  0.00    -0.301 C  
HETATM    9  C   UNL     1     -10.452  16.580  65.734  1.00  0.00    -0.343 C  
HETATM   10  C   UNL     1     -10.229  15.509  66.813  1.00  0.00    -0.282 C  
HETATM   11  C   UNL     1     -10.839  16.042  68.122  1.00  0.00    -0.322 C  
HETATM   12  C   UNL     1     -10.100  17.323  68.539  1.00  0.00    -0.341 C  
ENDBRANCH   4   5
ENDBRANCH   2   4
TORSDOF 2
ENDMDL
MODEL      154
REMARK 921   NORMALIZED FREE ENERGY PREDICTED BY IDOCK:   -1.96 KCAL/MOL
REMARK 922        TOTAL FREE ENERGY PREDICTED BY IDOCK:   -2.36 KCAL/MOL
REMARK 923 INTER-LIGAND FREE ENERGY PREDICTED BY IDOCK:   -2.20 KCAL/MOL
REMARK 924 INTRA-LIGAND FREE ENERGY PREDICTED BY IDOCK:   -0.16 KCAL/MOL
REMARK 927      BINDING AFFINITY PREDICTED BY RF-SCORE:    0.00 PKD
ROOT
HETATM    1  C   UNL     1      -8.731   6.699  68.041  1.00  0.00    -0.117 C  
HETATM    2  C   UNL     1      -9.777   6.078  68.917  1.00  0.00    -0.132 C  
HETATM    3  O   UNL     1     -10.925   5.855  68.559  1.00  0.00    -0.281 OA 
ENDROOT
BRANCH   2   4
HETATM    4  O   UNL     1      -9.283   5.843  70.162  1.00  0.00    -0.149 OA 
BRANCH   4   5
HETATM    5  C   UNL     1     -10.215   6.038  71.242  1.00  0.00    -0.205 C  
HETATM    6  C   UNL     1      -9.700   7.116  72.231  1.00  0.00    -0.153 C  
HETATM    7  N   UNL     1      -9.377   6.545  73.567  1.00  0.00    -0.133 NA 
HETATM    8  C   UNL     1     -10.613   5.983  74.154  1.00  0.00    -0.134 C  
HETATM    9  C   UNL     1     -11.269   4.952  73.220  1.00  0.00    -0.423 C  
HETATM   10  C   UNL     1     -10.355   4.705  72.010  1.00  0.00    -0.234 C  
HETATM   11  C   UNL     1      -8.974   4.296  72.555  1.00  0.00    -0.126 C  
HETATM   12  C   UNL     1      -8.394   5.453  73.384  1.00  0.00    -0.114 C  
ENDBRANCH   4   5
ENDBRANCH   2   4
TORSDOF 2
ENDMDL
MODEL      155
REMARK 921   NORMALIZED FREE ENERGY PREDICTED BY IDOCK:   -1.95 KCAL/MOL
REMARK 922        TOTAL FREE ENERGY PREDICTED BY IDOCK:   -2.35 KCAL/MOL
REMARK 923 INTER-LIGAND FREE ENERGY PREDICTED BY IDOCK:   -2.14 KCAL/MOL
REMARK 924 INTRA-LIGAND FREE ENERGY PREDICTED BY IDOCK:   -0.22 KCAL/MOL
REMARK 927      BINDING AFFINITY PREDICTED BY RF-SCORE:    0.00 PKD
ROOT
HETATM    1  C   UNL     1      -9.246   9.807  65.404  1.00  0.00    -0.282 C  
HETATM    2  C   UNL     1      -7.996   9.429  66.140  1.00  0.00    -0.110 C  
HETATM    3  O   UNL     1      -6.990  10.123  66.182  1.00  0.00    -0.100 OA 
ENDROOT
BRANCH   2   4
HETATM    4  O   UNL     1      -8.126   8.200  66.708  1.00  0.00    -0.101 OA 
BRANCH   4   5
HETATM    5  C   UNL     1      -9.422   7.913  67.268  1.00  0.00    -0.149 C  
HETATM    6  C   UNL     1      -9.386   7.992  68.817  1.00  0.00    -0.147 C  
HETATM    7  N   UNL     1      -9.614   6.666  69.453  1.00  0.00    -0.145 NA 
HETATM    8  C   UNL     1     -10.963   6.187  69.080  1.00  0.00    -0.367 C  
HETATM    9  C   UNL     1     -11.152   6.145  67.554  1.00  0.00    -0.318 C  
HETATM   10  C   UNL     1      -9.818   6.476  66.866  1.00  0.00    -0.211 C  
HETATM   11  C   UNL     1      -8.764   5.496  67.413  1.00  0.00    -0.107 C  
HETATM   12  C   UNL     1      -8.607   5.716  68.926  1.00  0.00    -0.101 C  
ENDBRANCH   4   5
ENDBRANCH   2   4
TORSDOF 2
ENDMDL
MODEL      156
REMARK 921   NORMALIZED FREE ENERGY PREDICTED BY IDOCK:   -1.95 KCAL/MOL
REMARK 922        TOTAL FREE ENERGY PREDICTED BY IDOCK:   -2.35 KCAL/MOL
REMARK 923 INTER-LIGAND FREE ENERGY PREDICTED BY IDOCK:   -2.24 KCAL/MOL
REMARK 924 INTRA-LIGAND FREE ENERGY PREDICTED BY IDOCK:   -0.12 KCAL/MOL
REMARK 927      BINDING AFFINITY PREDICTED BY RF-SCORE:    0.00 PKD
ROOT
HETATM    1  C   UNL     1      -5.517  12.990  68.836  1.00  0.00    -0.071 C  
HETATM    2  C   UNL     1      -6.421  14.181  68.727  1.00  0.00    -0.091 C  
HETATM    3  O   UNL     1      -6.086  15.322  69.008  1.00  0.00    -0.096 OA 
ENDROOT
BRANCH   2   4
HETATM    4  O   UNL     1      -7.662  13.805  68.317  1.00  0.00    -0.119 OA 
BRANCH   4   5
HETATM    5  C   UNL     1      -8.368  14.774  67.518  1.00  0.00    -0.183 C  
HETATM    6  C   UNL     1      -9.398  15.555  68.376  1.00  0.00    -0.192 C  
HETATM    7  N   UNL     1     -10.801  15.265  67.971  1.00  0.00    -0.278 NA 
HETATM    8  C   UNL     1     -10.990  15.703  66.572  1.00  0.00    -0.206 C  
HETATM    9  C   UNL     1      -9.963  15.056  65.627  1.00  0.00    -0.387 C  
HETATM   10  C   UNL     1      -9.134  14.024  66.407  1.00  0.00    -0.120 C  
HETATM   11  C   UNL     1     -10.121  13.039  67.059  1.00  0.00    -0.243 C  
HETATM   12  C   UNL     1     -11.017  13.801  68.048  1.00  0.00    -0.250 C  
ENDBRANCH   4   5
ENDBRANCH   2   4
TORSDOF 2
ENDMDL
MODEL      157
REMARK 921   NORMALIZED FREE ENERGY PREDICTED BY IDOCK:   -1.94 KCAL/MOL
REMARK 922        TOTAL FREE ENERGY PREDICTED BY IDOCK:   -2.34 KCAL/MOL
REMARK 923 INTER-LIGAND FREE ENERGY PREDICTED BY IDOCK:   -2.14 KCAL/MOL
REMARK 924 INTRA-LIGAND FREE ENERGY PREDICTED BY IDOCK:   -0.21 KCAL/MOL
REMARK 927      BINDING AFFINITY PREDICTED BY RF-SCORE:    0.00 PKD
ROOT
HETATM    1  C   UNL     1      -7.651   6.721  67.804  1.00  0.00    -0.107 C  
HETATM    2  C   UNL     1      -8.962   7.305  68.236  1.00  0.00    -0.125 C  
HETATM    3  O   UNL     1      -9.530   7.014  69.278  1.00  0.00    -0.148 OA 
ENDROOT
BRANCH   2   4
HETATM    4  O   UNL     1      -9.442   8.159  67.293  1.00  0.00    -0.144 OA 
BRANCH   4   5
HETATM    5  C   UNL     1      -9.327   9.559  67.613  1.00  0.00    -0.123 C  
HETATM    6  C   UNL     1     -10.616  10.326  67.217  1.00  0.00    -0.267 C  
HETATM    7  N   UNL     1     -10.377  11.295  66.113  1.00  0.00    -0.244 NA 
HETATM    8  C   UNL     1      -9.402  12.308  66.575  1.00  0.00    -0.230 C  
HETATM    9  C   UNL     1      -8.101  11.659  67.077  1.00  0.00    -0.164 C  
HETATM   10  C   UNL     1      -8.148  10.147  66.807  1.00  0.00    -0.119 C  
HETATM   11  C   UNL     1      -8.426   9.958  65.305  1.00  0.00    -0.158 C  
HETATM   12  C   UNL     1      -9.797  10.562  64.964  1.00  0.00    -0.306 C  
ENDBRANCH   4   5
ENDBRANCH   2   4
TORSDOF 2
ENDMDL
MODEL      158
REMARK 921   NORMALIZED FREE ENERGY PREDICTED BY IDOCK:   -1.94 KCAL/MOL
REMARK 922        TOTAL FREE ENERGY PREDICTED BY IDOCK:   -2.34 KCAL/MOL
REMARK 923 INTER-LIGAND FREE ENERGY PREDICTED BY IDOCK:   -2.13 KCAL/MOL
REMARK 924 INTRA-LIGAND FREE ENERGY PREDICTED BY IDOCK:   -0.21 KCAL/MOL
REMARK 927      BINDING AFFINITY PREDICTED BY RF-SCORE:    0.00 PKD
ROOT
HETATM    1  C   UNL     1      -7.962   9.150  66.407  1.00  0.00    -0.100 C  
HETATM    2  C   UNL     1      -7.468   8.255  67.503  1.00  0.00    -0.094 C  
HETATM    3  O   UNL     1      -6.308   8.223  67.890  1.00  0.00    -0.050 OA 
ENDROOT
BRANCH   2   4
HETATM    4  O   UNL     1      -8.472   7.464  67.967  1.00  0.00    -0.122 OA 
BRANCH   4   5
HETATM    5  C   UNL     1      -9.056   7.878  69.217  1.00  0.00    -0.148 C  
HETATM    6  C   UNL     1      -8.744   6.855  70.341  1.00  0.00    -0.147 C  
HETATM    7  N   UNL     1      -9.969   6.161  70.824  1.00  0.00    -0.185 NA 
HETATM    8  C   UNL     1     -10.886   7.166  71.404  1.00  0.00    -0.231 C  
HETATM    9  C   UNL     1     -11.207   8.290  70.403  1.00  0.00    -0.222 C  
HETATM   10  C   UNL     1     -10.588   7.949  69.039  1.00  0.00    -0.177 C  
HETATM   11  C   UNL     1     -11.108   6.557  68.634  1.00  0.00    -0.348 C  
HETATM   12  C   UNL     1     -10.632   5.520  69.664  1.00  0.00    -0.305 C  
ENDBRANCH   4   5
ENDBRANCH   2   4
TORSDOF 2
ENDMDL
MODEL      159
REMARK 921   NORMALIZED FREE ENERGY PREDICTED BY IDOCK:   -1.91 KCAL/MOL
REMARK 922        TOTAL FREE ENERGY PREDICTED BY IDOCK:   -2.31 KCAL/MOL
REMARK 923 INTER-LIGAND FREE ENERGY PREDICTED BY IDOCK:   -2.04 KCAL/MOL
REMARK 924 INTRA-LIGAND FREE ENERGY PREDICTED BY IDOCK:   -0.26 KCAL/MOL
REMARK 927      BINDING AFFINITY PREDICTED BY RF-SCORE:    0.00 PKD
ROOT
HETATM    1  C   UNL     1      -5.758   8.008  67.454  1.00  0.00    -0.038 C  
HETATM    2  C   UNL     1      -6.798   8.052  66.375  1.00  0.00    -0.062 C  
HETATM    3  O   UNL     1      -6.755   8.805  65.413  1.00  0.00    -0.066 OA 
ENDROOT
BRANCH   2   4
HETATM    4  O   UNL     1      -7.805   7.177  66.642  1.00  0.00    -0.105 OA 
BRANCH   4   5
HETATM    5  C   UNL     1      -8.335   7.237  67.980  1.00  0.00    -0.123 C  
HETATM    6  C   UNL     1      -9.019   5.899  68.366  1.00  0.00    -0.112 C  
HETATM    7  N   UNL     1     -10.489   6.050  68.547  1.00  0.00    -0.207 NA 
HETATM    8  C   UNL     1     -10.734   6.992  69.660  1.00  0.00    -0.241 C  
HETATM    9  C   UNL     1     -10.031   8.341  69.432  1.00  0.00    -0.188 C  
HETATM   10  C   UNL     1      -9.399   8.355  68.031  1.00  0.00    -0.146 C  
HETATM   11  C   UNL     1     -10.514   8.030  67.022  1.00  0.00    -0.410 C  
HETATM   12  C   UNL     1     -11.057   6.620  67.303  1.00  0.00    -0.345 C  
ENDBRANCH   4   5
ENDBRANCH   2   4
TORSDOF 2
ENDMDL
MODEL      160
REMARK 921   NORMALIZED FREE ENERGY PREDICTED BY IDOCK:   -1.91 KCAL/MOL
REMARK 922        TOTAL FREE ENERGY PREDICTED BY IDOCK:   -2.30 KCAL/MOL
REMARK 923 INTER-LIGAND FREE ENERGY PREDICTED BY IDOCK:   -2.06 KCAL/MOL
REMARK 924 INTRA-LIGAND FREE ENERGY PREDICTED BY IDOCK:   -0.24 KCAL/MOL
REMARK 927      BINDING AFFINITY PREDICTED BY RF-SCORE:    0.00 PKD
ROOT
HETATM    1  C   UNL     1      -8.884   5.920  69.606  1.00  0.00    -0.131 C  
HETATM    2  C   UNL     1      -8.058   6.893  68.820  1.00  0.00    -0.121 C  
HETATM    3  O   UNL     1      -7.108   6.574  68.119  1.00  0.00    -0.077 OA 
ENDROOT
BRANCH   2   4
HETATM    4  O   UNL     1      -8.487   8.166  69.030  1.00  0.00    -0.127 OA 
BRANCH   4   5
HETATM    5  C   UNL     1      -8.488   9.016  67.867  1.00  0.00    -0.121 C  
HETATM    6  C   UNL     1      -8.083  10.467  68.240  1.00  0.00    -0.115 C  
HETATM    7  N   UNL     1      -9.205  11.428  68.057  1.00  0.00    -0.165 NA 
HETATM    8  C   UNL     1      -9.586  11.445  66.629  1.00  0.00    -0.191 C  
HETATM    9  C   UNL     1      -9.932  10.037  66.114  1.00  0.00    -0.322 C  
HETATM   10  C   UNL     1      -9.920   9.048  67.289  1.00  0.00    -0.275 C  
HETATM   11  C   UNL     1     -10.879   9.596  68.361  1.00  0.00    -0.212 C  
HETATM   12  C   UNL     1     -10.360  10.956  68.855  1.00  0.00    -0.204 C  
ENDBRANCH   4   5
ENDBRANCH   2   4
TORSDOF 2
ENDMDL
MODEL      161
REMARK 921   NORMALIZED FREE ENERGY PREDICTED BY IDOCK:   -1.88 KCAL/MOL
REMARK 922        TOTAL FREE ENERGY PREDICTED BY IDOCK:   -2.27 KCAL/MOL
REMARK 923 INTER-LIGAND FREE ENERGY PREDICTED BY IDOCK:   -2.07 KCAL/MOL
REMARK 924 INTRA-LIGAND FREE ENERGY PREDICTED BY IDOCK:   -0.20 KCAL/MOL
REMARK 927      BINDING AFFINITY PREDICTED BY RF-SCORE:    0.00 PKD
ROOT
HETATM    1  C   UNL     1     -10.660   7.796  67.826  1.00  0.00    -0.254 C  
HETATM    2  C   UNL     1     -10.930   6.496  68.523  1.00  0.00    -0.286 C  
HETATM    3  O   UNL     1     -11.508   6.402  69.596  1.00  0.00    -0.416 OA 
ENDROOT
BRANCH   2   4
HETATM    4  O   UNL     1     -10.406   5.457  67.819  1.00  0.00    -0.189 OA 
BRANCH   4   5
HETATM    5  C   UNL     1      -8.978   5.300  67.921  1.00  0.00    -0.109 C  
HETATM    6  C   UNL     1      -8.341   5.088  66.522  1.00  0.00    -0.107 C  
HETATM    7  N   UNL     1      -7.758   3.728  66.371  1.00  0.00    -0.088 NA 
HETATM    8  C   UNL     1      -6.673   3.564  67.363  1.00  0.00    -0.042 C  
HETATM    9  C   UNL     1      -7.164   3.834  68.795  1.00  0.00    -0.051 C  
HETATM   10  C   UNL     1      -8.686   4.050  68.779  1.00  0.00    -0.131 C  
HETATM   11  C   UNL     1      -9.317   2.821  68.102  1.00  0.00    -0.258 C  
HETATM   12  C   UNL     1      -8.817   2.730  66.651  1.00  0.00    -0.144 C  
ENDBRANCH   4   5
ENDBRANCH   2   4
TORSDOF 2
ENDMDL
MODEL      162
REMARK 921   NORMALIZED FREE ENERGY PREDICTED BY IDOCK:   -1.85 KCAL/MOL
REMARK 922        TOTAL FREE ENERGY PREDICTED BY IDOCK:   -2.24 KCAL/MOL
REMARK 923 INTER-LIGAND FREE ENERGY PREDICTED BY IDOCK:   -2.07 KCAL/MOL
REMARK 924 INTRA-LIGAND FREE ENERGY PREDICTED BY IDOCK:   -0.17 KCAL/MOL
REMARK 927      BINDING AFFINITY PREDICTED BY RF-SCORE:    0.00 PKD
ROOT
HETATM    1  C   UNL     1     -10.117  12.090  68.223  1.00  0.00    -0.201 C  
HETATM    2  C   UNL     1      -9.983  11.181  67.039  1.00  0.00    -0.192 C  
HETATM    3  O   UNL     1     -10.476  11.407  65.943  1.00  0.00    -0.245 OA 
ENDROOT
BRANCH   2   4
HETATM    4  O   UNL     1      -9.282  10.063  67.368  1.00  0.00    -0.137 OA 
BRANCH   4   5
HETATM    5  C   UNL     1      -9.519   8.917  66.530  1.00  0.00    -0.211 C  
HETATM    6  C   UNL     1     -10.601   7.992  67.147  1.00  0.00    -0.297 C  
HETATM    7  N   UNL     1     -10.045   6.675  67.561  1.00  0.00    -0.146 NA 
HETATM    8  C   UNL     1      -9.524   5.982  66.362  1.00  0.00    -0.150 C  
HETATM    9  C   UNL     1      -8.494   6.842  65.610  1.00  0.00    -0.142 C  
HETATM   10  C   UNL     1      -8.204   8.115  66.420  1.00  0.00    -0.108 C  
HETATM   11  C   UNL     1      -7.769   7.673  67.828  1.00  0.00    -0.122 C  
HETATM   12  C   UNL     1      -8.925   6.915  68.500  1.00  0.00    -0.122 C  
ENDBRANCH   4   5
ENDBRANCH   2   4
TORSDOF 2
ENDMDL
MODEL      163
REMARK 921   NORMALIZED FREE ENERGY PREDICTED BY IDOCK:   -1.85 KCAL/MOL
REMARK 922        TOTAL FREE ENERGY PREDICTED BY IDOCK:   -2.24 KCAL/MOL
REMARK 923 INTER-LIGAND FREE ENERGY PREDICTED BY IDOCK:   -2.04 KCAL/MOL
REMARK 924 INTRA-LIGAND FREE ENERGY PREDICTED BY IDOCK:   -0.20 KCAL/MOL
REMARK 927      BINDING AFFINITY PREDICTED BY RF-SCORE:    0.00 PKD
ROOT
HETATM    1  C   UNL     1     -10.809   6.704  66.947  1.00  0.00    -0.415 C  
HETATM    2  C   UNL     1     -10.215   8.065  67.156  1.00  0.00    -0.292 C  
HETATM    3  O   UNL     1     -10.840   9.026  67.581  1.00  0.00    -0.219 OA 
ENDROOT
BRANCH   2   4
HETATM    4  O   UNL     1      -8.912   8.085  66.769  1.00  0.00    -0.131 OA 
BRANCH   4   5
HETATM    5  C   UNL     1      -8.691   8.159  65.348  1.00  0.00    -0.094 C  
HETATM    6  C   UNL     1      -7.262   7.680  64.982  1.00  0.00    -0.066 C  
HETATM    7  N   UNL     1      -6.420   8.784  64.445  1.00  0.00    -0.071 NA 
HETATM    8  C   UNL     1      -7.035   9.284  63.197  1.00  0.00    -0.089 C  
HETATM    9  C   UNL     1      -8.496   9.715  63.413  1.00  0.00    -0.188 C  
HETATM   10  C   UNL     1      -8.834   9.633  64.910  1.00  0.00    -0.234 C  
HETATM   11  C   UNL     1      -7.794  10.480  65.663  1.00  0.00    -0.150 C  
HETATM   12  C   UNL     1      -6.396   9.881  65.440  1.00  0.00    -0.089 C  
ENDBRANCH   4   5
ENDBRANCH   2   4
TORSDOF 2
ENDMDL
MODEL      164
REMARK 921   NORMALIZED FREE ENERGY PREDICTED BY IDOCK:   -1.83 KCAL/MOL
REMARK 922        TOTAL FREE ENERGY PREDICTED BY IDOCK:   -2.21 KCAL/MOL
REMARK 923 INTER-LIGAND FREE ENERGY PREDICTED BY IDOCK:   -1.96 KCAL/MOL
REMARK 924 INTRA-LIGAND FREE ENERGY PREDICTED BY IDOCK:   -0.25 KCAL/MOL
REMARK 927      BINDING AFFINITY PREDICTED BY RF-SCORE:    0.00 PKD
ROOT
HETATM    1  C   UNL     1     -10.186   4.932  65.766  1.00  0.00    -0.207 C  
HETATM    2  C   UNL     1      -8.868   5.623  65.946  1.00  0.00    -0.152 C  
HETATM    3  O   UNL     1      -7.904   5.460  65.212  1.00  0.00    -0.089 OA 
ENDROOT
BRANCH   2   4
HETATM    4  O   UNL     1      -8.887   6.411  67.055  1.00  0.00    -0.113 OA 
BRANCH   4   5
HETATM    5  C   UNL     1      -8.461   7.772  66.851  1.00  0.00    -0.125 C  
HETATM    6  C   UNL     1      -7.754   8.327  68.116  1.00  0.00    -0.106 C  
HETATM    7  N   UNL     1      -8.530   9.423  68.757  1.00  0.00    -0.120 NA 
HETATM    8  C   UNL     1      -8.641  10.547  67.802  1.00  0.00    -0.118 C  
HETATM    9  C   UNL     1      -9.256  10.100  66.464  1.00  0.00    -0.182 C  
HETATM   10  C   UNL     1      -9.711   8.636  66.577  1.00  0.00    -0.325 C  
HETATM   11  C   UNL     1     -10.658   8.542  67.786  1.00  0.00    -0.242 C  
HETATM   12  C   UNL     1      -9.889   8.919  69.062  1.00  0.00    -0.180 C  
ENDBRANCH   4   5
ENDBRANCH   2   4
TORSDOF 2
ENDMDL
MODEL      165
REMARK 921   NORMALIZED FREE ENERGY PREDICTED BY IDOCK:   -1.82 KCAL/MOL
REMARK 922        TOTAL FREE ENERGY PREDICTED BY IDOCK:   -2.21 KCAL/MOL
REMARK 923 INTER-LIGAND FREE ENERGY PREDICTED BY IDOCK:   -2.01 KCAL/MOL
REMARK 924 INTRA-LIGAND FREE ENERGY PREDICTED BY IDOCK:   -0.20 KCAL/MOL
REMARK 927      BINDING AFFINITY PREDICTED BY RF-SCORE:    0.00 PKD
ROOT
HETATM    1  C   UNL     1      -7.786   2.946  65.570  1.00  0.00    -0.081 C  
HETATM    2  C   UNL     1      -8.924   3.804  65.108  1.00  0.00    -0.132 C  
HETATM    3  O   UNL     1      -9.851   3.400  64.420  1.00  0.00    -0.161 OA 
ENDROOT
BRANCH   2   4
HETATM    4  O   UNL     1      -8.755   5.089  65.521  1.00  0.00    -0.133 OA 
BRANCH   4   5
HETATM    5  C   UNL     1      -8.740   5.281  66.948  1.00  0.00    -0.111 C  
HETATM    6  C   UNL     1     -10.120   4.941  67.569  1.00  0.00    -0.132 C  
HETATM    7  N   UNL     1     -10.792   6.142  68.137  1.00  0.00    -0.295 NA 
HETATM    8  C   UNL     1      -9.953   6.681  69.229  1.00  0.00    -0.158 C  
HETATM    9  C   UNL     1      -8.521   6.981  68.755  1.00  0.00    -0.122 C  
HETATM   10  C   UNL     1      -8.433   6.767  67.236  1.00  0.00    -0.120 C  
HETATM   11  C   UNL     1      -9.524   7.637  66.586  1.00  0.00    -0.255 C  
HETATM   12  C   UNL     1     -10.904   7.164  67.071  1.00  0.00    -0.312 C  
ENDBRANCH   4   5
ENDBRANCH   2   4
TORSDOF 2
ENDMDL
MODEL      166
REMARK 921   NORMALIZED FREE ENERGY PREDICTED BY IDOCK:   -1.80 KCAL/MOL
REMARK 922        TOTAL FREE ENERGY PREDICTED BY IDOCK:   -2.18 KCAL/MOL
REMARK 923 INTER-LIGAND FREE ENERGY PREDICTED BY IDOCK:   -2.21 KCAL/MOL
REMARK 924 INTRA-LIGAND FREE ENERGY PREDICTED BY IDOCK:    0.03 KCAL/MOL
REMARK 927      BINDING AFFINITY PREDICTED BY RF-SCORE:    0.00 PKD
ROOT
HETATM    1  C   UNL     1      -9.392   6.218  71.755  1.00  0.00    -0.155 C  
HETATM    2  C   UNL     1     -10.012   6.076  70.398  1.00  0.00    -0.184 C  
HETATM    3  O   UNL     1     -11.194   5.825  70.209  1.00  0.00    -0.304 OA 
ENDROOT
BRANCH   2   4
HETATM    4  O   UNL     1      -9.075   6.219  69.423  1.00  0.00    -0.138 OA 
BRANCH   4   5
HETATM    5  C   UNL     1      -8.777   7.578  69.049  1.00  0.00    -0.136 C  
HETATM    6  C   UNL     1     -10.052   8.461  69.105  1.00  0.00    -0.203 C  
HETATM    7  N   UNL     1     -10.464   8.938  67.757  1.00  0.00    -0.246 NA 
HETATM    8  C   UNL     1      -9.384   9.783  67.203  1.00  0.00    -0.142 C  
HETATM    9  C   UNL     1      -8.037   9.040  67.173  1.00  0.00    -0.106 C  
HETATM   10  C   UNL     1      -8.253   7.578  67.596  1.00  0.00    -0.118 C  
HETATM   11  C   UNL     1      -9.335   6.989  66.675  1.00  0.00    -0.203 C  
HETATM   12  C   UNL     1     -10.649   7.759  66.879  1.00  0.00    -0.277 C  
ENDBRANCH   4   5
ENDBRANCH   2   4
TORSDOF 2
ENDMDL
MODEL      167
REMARK 921   NORMALIZED FREE ENERGY PREDICTED BY IDOCK:   -1.79 KCAL/MOL
REMARK 922        TOTAL FREE ENERGY PREDICTED BY IDOCK:   -2.17 KCAL/MOL
REMARK 923 INTER-LIGAND FREE ENERGY PREDICTED BY IDOCK:   -2.04 KCAL/MOL
REMARK 924 INTRA-LIGAND FREE ENERGY PREDICTED BY IDOCK:   -0.13 KCAL/MOL
REMARK 927      BINDING AFFINITY PREDICTED BY RF-SCORE:    0.00 PKD
ROOT
HETATM    1  C   UNL     1      -8.346   5.406  67.090  1.00  0.00    -0.107 C  
HETATM    2  C   UNL     1      -7.734   6.666  67.625  1.00  0.00    -0.107 C  
HETATM    3  O   UNL     1      -6.647   7.102  67.273  1.00  0.00    -0.054 OA 
ENDROOT
BRANCH   2   4
HETATM    4  O   UNL     1      -8.532   7.222  68.575  1.00  0.00    -0.124 OA 
BRANCH   4   5
HETATM    5  C   UNL     1      -9.241   6.286  69.410  1.00  0.00    -0.138 C  
HETATM    6  C   UNL     1     -10.771   6.542  69.355  1.00  0.00    -0.277 C  
HETATM    7  N   UNL     1     -11.309   7.013  70.660  1.00  0.00    -0.292 NA 
HETATM    8  C   UNL     1     -11.088   5.956  71.672  1.00  0.00    -0.258 C  
HETATM    9  C   UNL     1      -9.606   5.552  71.761  1.00  0.00    -0.183 C  
HETATM   10  C   UNL     1      -8.771   6.482  70.867  1.00  0.00    -0.136 C  
HETATM   11  C   UNL     1      -9.072   7.928  71.300  1.00  0.00    -0.161 C  
HETATM   12  C   UNL     1     -10.561   8.226  71.065  1.00  0.00    -0.204 C  
ENDBRANCH   4   5
ENDBRANCH   2   4
TORSDOF 2
ENDMDL
MODEL      168
REMARK 921   NORMALIZED FREE ENERGY PREDICTED BY IDOCK:   -1.77 KCAL/MOL
REMARK 922        TOTAL FREE ENERGY PREDICTED BY IDOCK:   -2.15 KCAL/MOL
REMARK 923 INTER-LIGAND FREE ENERGY PREDICTED BY IDOCK:   -2.50 KCAL/MOL
REMARK 924 INTRA-LIGAND FREE ENERGY PREDICTED BY IDOCK:    0.35 KCAL/MOL
REMARK 927      BINDING AFFINITY PREDICTED BY RF-SCORE:    0.00 PKD
ROOT
HETATM    1  C   UNL     1     -10.406  17.629  68.797  1.00  0.00    -0.348 C  
HETATM    2  C   UNL     1      -9.379  18.709  68.641  1.00  0.00    -0.341 C  
HETATM    3  O   UNL     1      -9.644  19.900  68.569  1.00  0.00    -0.337 OA 
ENDROOT
BRANCH   2   4
HETATM    4  O   UNL     1      -8.131  18.176  68.550  1.00  0.00    -0.294 OA 
BRANCH   4   5
HETATM    5  C   UNL     1      -8.000  16.826  69.035  1.00  0.00    -0.188 C  
HETATM    6  C   UNL     1      -6.567  16.565  69.570  1.00  0.00    -0.217 C  
HETATM    7  N   UNL     1      -5.829  15.574  68.739  1.00  0.00    -0.094 NA 
HETATM    8  C   UNL     1      -6.547  14.282  68.793  1.00  0.00    -0.092 C  
HETATM    9  C   UNL     1      -8.017  14.428  68.362  1.00  0.00    -0.141 C  
HETATM   10  C   UNL     1      -8.260  15.859  67.859  1.00  0.00    -0.151 C  
HETATM   11  C   UNL     1      -7.232  16.136  66.748  1.00  0.00    -0.190 C  
HETATM   12  C   UNL     1      -5.815  16.056  67.339  1.00  0.00    -0.107 C  
ENDBRANCH   4   5
ENDBRANCH   2   4
TORSDOF 2
ENDMDL
MODEL      169
REMARK 921   NORMALIZED FREE ENERGY PREDICTED BY IDOCK:   -1.77 KCAL/MOL
REMARK 922        TOTAL FREE ENERGY PREDICTED BY IDOCK:   -2.15 KCAL/MOL
REMARK 923 INTER-LIGAND FREE ENERGY PREDICTED BY IDOCK:   -2.06 KCAL/MOL
REMARK 924 INTRA-LIGAND FREE ENERGY PREDICTED BY IDOCK:   -0.08 KCAL/MOL
REMARK 927      BINDING AFFINITY PREDICTED BY RF-SCORE:    0.00 PKD
ROOT
HETATM    1  C   UNL     1      -6.731   7.923  65.195  1.00  0.00    -0.051 C  
HETATM    2  C   UNL     1      -7.205   9.309  65.514  1.00  0.00    -0.086 C  
HETATM    3  O   UNL     1      -6.471  10.285  65.578  1.00  0.00    -0.106 OA 
ENDROOT
BRANCH   2   4
HETATM    4  O   UNL     1      -8.542   9.314  65.761  1.00  0.00    -0.137 OA 
BRANCH   4   5
HETATM    5  C   UNL     1      -8.944  10.000  66.962  1.00  0.00    -0.138 C  
HETATM    6  C   UNL     1      -8.145   9.486  68.189  1.00  0.00    -0.102 C  
HETATM    7  N   UNL     1      -9.012   8.772  69.165  1.00  0.00    -0.137 NA 
HETATM    8  C   UNL     1     -10.025   9.719  69.681  1.00  0.00    -0.223 C  
HETATM    9  C   UNL     1     -10.834  10.365  68.543  1.00  0.00    -0.278 C  
HETATM   10  C   UNL     1     -10.442   9.715  67.207  1.00  0.00    -0.323 C  
HETATM   11  C   UNL     1     -10.642   8.196  67.360  1.00  0.00    -0.325 C  
HETATM   12  C   UNL     1      -9.704   7.670  68.457  1.00  0.00    -0.158 C  
ENDBRANCH   4   5
ENDBRANCH   2   4
TORSDOF 2
ENDMDL
MODEL      170
REMARK 921   NORMALIZED FREE ENERGY PREDICTED BY IDOCK:   -1.76 KCAL/MOL
REMARK 922        TOTAL FREE ENERGY PREDICTED BY IDOCK:   -2.13 KCAL/MOL
REMARK 923 INTER-LIGAND FREE ENERGY PREDICTED BY IDOCK:   -1.92 KCAL/MOL
REMARK 924 INTRA-LIGAND FREE ENERGY PREDICTED BY IDOCK:   -0.21 KCAL/MOL
REMARK 927      BINDING AFFINITY PREDICTED BY RF-SCORE:    0.00 PKD
ROOT
HETATM    1  C   UNL     1      -7.234   3.937  69.958  1.00  0.00    -0.042 C  
HETATM    2  C   UNL     1      -8.475   4.381  69.244  1.00  0.00    -0.077 C  
HETATM    3  O   UNL     1      -8.703   4.155  68.064  1.00  0.00    -0.094 OA 
ENDROOT
BRANCH   2   4
HETATM    4  O   UNL     1      -9.277   5.099  70.075  1.00  0.00    -0.125 OA 
BRANCH   4   5
HETATM    5  C   UNL     1      -8.937   6.492  70.209  1.00  0.00    -0.155 C  
HETATM    6  C   UNL     1      -9.241   7.003  71.642  1.00  0.00    -0.142 C  
HETATM    7  N   UNL     1     -10.337   8.009  71.659  1.00  0.00    -0.206 NA 
HETATM    8  C   UNL     1      -9.914   9.185  70.868  1.00  0.00    -0.288 C  
HETATM    9  C   UNL     1      -9.502   8.792  69.439  1.00  0.00    -0.161 C  
HETATM   10  C   UNL     1      -9.798   7.301  69.215  1.00  0.00    -0.166 C  
HETATM   11  C   UNL     1     -11.285   7.075  69.543  1.00  0.00    -0.185 C  
HETATM   12  C   UNL     1     -11.533   7.409  71.023  1.00  0.00    -0.282 C  
ENDBRANCH   4   5
ENDBRANCH   2   4
TORSDOF 2
ENDMDL
MODEL      171
REMARK 921   NORMALIZED FREE ENERGY PREDICTED BY IDOCK:   -1.75 KCAL/MOL
REMARK 922        TOTAL FREE ENERGY PREDICTED BY IDOCK:   -2.12 KCAL/MOL
REMARK 923 INTER-LIGAND FREE ENERGY PREDICTED BY IDOCK:   -1.96 KCAL/MOL
REMARK 924 INTRA-LIGAND FREE ENERGY PREDICTED BY IDOCK:   -0.17 KCAL/MOL
REMARK 927      BINDING AFFINITY PREDICTED BY RF-SCORE:    0.00 PKD
ROOT
HETATM    1  C   UNL     1      -7.649   2.951  70.114  1.00  0.00    -0.043 C  
HETATM    2  C   UNL     1      -9.034   3.462  69.855  1.00  0.00    -0.106 C  
HETATM    3  O   UNL     1      -9.644   3.288  68.810  1.00  0.00    -0.160 OA 
ENDROOT
BRANCH   2   4
HETATM    4  O   UNL     1      -9.490   4.176  70.920  1.00  0.00    -0.135 OA 
BRANCH   4   5
HETATM    5  C   UNL     1     -10.164   5.406  70.595  1.00  0.00    -0.253 C  
HETATM    6  C   UNL     1      -9.347   6.632  71.083  1.00  0.00    -0.163 C  
HETATM    7  N   UNL     1     -10.043   7.375  72.168  1.00  0.00    -0.186 NA 
HETATM    8  C   UNL     1     -11.322   7.896  71.640  1.00  0.00    -0.258 C  
HETATM    9  C   UNL     1     -12.194   6.777  71.046  1.00  0.00    -0.405 C  
HETATM   10  C   UNL     1     -11.529   5.417  71.316  1.00  0.00     0.354 C  
HETATM   11  C   UNL     1     -11.294   5.315  72.833  1.00  0.00    -0.368 C  
HETATM   12  C   UNL     1     -10.331   6.430  73.272  1.00  0.00    -0.233 C  
ENDBRANCH   4   5
ENDBRANCH   2   4
TORSDOF 2
ENDMDL
MODEL      172
REMARK 921   NORMALIZED FREE ENERGY PREDICTED BY IDOCK:   -1.74 KCAL/MOL
REMARK 922        TOTAL FREE ENERGY PREDICTED BY IDOCK:   -2.12 KCAL/MOL
REMARK 923 INTER-LIGAND FREE ENERGY PREDICTED BY IDOCK:   -1.98 KCAL/MOL
REMARK 924 INTRA-LIGAND FREE ENERGY PREDICTED BY IDOCK:   -0.13 KCAL/MOL
REMARK 927      BINDING AFFINITY PREDICTED BY RF-SCORE:    0.00 PKD
ROOT
HETATM    1  C   UNL     1      -6.689   7.424  71.949  1.00  0.00    -0.054 C  
HETATM    2  C   UNL     1      -7.833   6.492  71.682  1.00  0.00    -0.100 C  
HETATM    3  O   UNL     1      -8.058   5.482  72.332  1.00  0.00    -0.106 OA 
ENDROOT
BRANCH   2   4
HETATM    4  O   UNL     1      -8.546   6.905  70.600  1.00  0.00    -0.138 OA 
BRANCH   4   5
HETATM    5  C   UNL     1      -8.434   6.069  69.433  1.00  0.00    -0.115 C  
HETATM    6  C   UNL     1      -8.422   6.923  68.137  1.00  0.00    -0.124 C  
HETATM    7  N   UNL     1      -9.633   6.694  67.302  1.00  0.00    -0.128 NA 
HETATM    8  C   UNL     1      -9.655   5.277  66.879  1.00  0.00    -0.145 C  
HETATM    9  C   UNL     1      -9.585   4.321  68.083  1.00  0.00    -0.196 C  
HETATM   10  C   UNL     1      -9.663   5.135  69.384  1.00  0.00    -0.248 C  
HETATM   11  C   UNL     1     -10.939   5.992  69.314  1.00  0.00    -0.436 C  
HETATM   12  C   UNL     1     -10.831   6.966  68.130  1.00  0.00    -0.194 C  
ENDBRANCH   4   5
ENDBRANCH   2   4
TORSDOF 2
ENDMDL
MODEL      173
REMARK 921   NORMALIZED FREE ENERGY PREDICTED BY IDOCK:   -1.72 KCAL/MOL
REMARK 922        TOTAL FREE ENERGY PREDICTED BY IDOCK:   -2.09 KCAL/MOL
REMARK 923 INTER-LIGAND FREE ENERGY PREDICTED BY IDOCK:   -1.91 KCAL/MOL
REMARK 924 INTRA-LIGAND FREE ENERGY PREDICTED BY IDOCK:   -0.18 KCAL/MOL
REMARK 927      BINDING AFFINITY PREDICTED BY RF-SCORE:    0.00 PKD
ROOT
HETATM    1  C   UNL     1      -5.878   7.426  62.948  1.00  0.00    -0.050 C  
HETATM    2  C   UNL     1      -7.281   7.544  63.464  1.00  0.00    -0.080 C  
HETATM    3  O   UNL     1      -8.117   6.656  63.384  1.00  0.00    -0.097 OA 
ENDROOT
BRANCH   2   4
HETATM    4  O   UNL     1      -7.497   8.781  63.987  1.00  0.00    -0.108 OA 
BRANCH   4   5
HETATM    5  C   UNL     1      -8.814   9.001  64.526  1.00  0.00    -0.081 C  
HETATM    6  C   UNL     1      -9.286  10.455  64.260  1.00  0.00    -0.277 C  
HETATM    7  N   UNL     1      -9.423  11.240  65.518  1.00  0.00    -0.225 NA 
HETATM    8  C   UNL     1     -10.456  10.603  66.363  1.00  0.00    -0.213 C  
HETATM    9  C   UNL     1     -10.141   9.121  66.630  1.00  0.00    -0.343 C  
HETATM   10  C   UNL     1      -8.757   8.783  66.054  1.00  0.00    -0.193 C  
HETATM   11  C   UNL     1      -7.752   9.777  66.663  1.00  0.00    -0.102 C  
HETATM   12  C   UNL     1      -8.128  11.204  66.235  1.00  0.00    -0.142 C  
ENDBRANCH   4   5
ENDBRANCH   2   4
TORSDOF 2
ENDMDL
MODEL      174
REMARK 921   NORMALIZED FREE ENERGY PREDICTED BY IDOCK:   -1.71 KCAL/MOL
REMARK 922        TOTAL FREE ENERGY PREDICTED BY IDOCK:   -2.08 KCAL/MOL
REMARK 923 INTER-LIGAND FREE ENERGY PREDICTED BY IDOCK:   -2.41 KCAL/MOL
REMARK 924 INTRA-LIGAND FREE ENERGY PREDICTED BY IDOCK:    0.33 KCAL/MOL
REMARK 927      BINDING AFFINITY PREDICTED BY RF-SCORE:    0.00 PKD
ROOT
HETATM    1  C   UNL     1      -6.784  12.116  68.649  1.00  0.00    -0.081 C  
HETATM    2  C   UNL     1      -7.508  11.812  67.372  1.00  0.00    -0.143 C  
HETATM    3  O   UNL     1      -7.035  11.152  66.458  1.00  0.00    -0.138 OA 
ENDROOT
BRANCH   2   4
HETATM    4  O   UNL     1      -8.731  12.406  67.360  1.00  0.00    -0.166 OA 
BRANCH   4   5
HETATM    5  C   UNL     1      -9.496  12.268  68.573  1.00  0.00    -0.112 C  
HETATM    6  C   UNL     1      -9.429  10.814  69.109  1.00  0.00    -0.134 C  
HETATM    7  N   UNL     1     -10.750  10.131  69.049  1.00  0.00    -0.211 NA 
HETATM    8  C   UNL     1     -11.700  10.862  69.914  1.00  0.00    -0.339 C  
HETATM    9  C   UNL     1     -11.792  12.350  69.532  1.00  0.00    -0.368 C  
HETATM   10  C   UNL     1     -10.971  12.600  68.258  1.00  0.00    -0.275 C  
HETATM   11  C   UNL     1     -11.483  11.625  67.183  1.00  0.00    -0.344 C  
HETATM   12  C   UNL     1     -11.239  10.181  67.651  1.00  0.00    -0.095 C  
ENDBRANCH   4   5
ENDBRANCH   2   4
TORSDOF 2
ENDMDL
MODEL      175
REMARK 921   NORMALIZED FREE ENERGY PREDICTED BY IDOCK:   -1.69 KCAL/MOL
REMARK 922        TOTAL FREE ENERGY PREDICTED BY IDOCK:   -2.06 KCAL/MOL
REMARK 923 INTER-LIGAND FREE ENERGY PREDICTED BY IDOCK:   -1.86 KCAL/MOL
REMARK 924 INTRA-LIGAND FREE ENERGY PREDICTED BY IDOCK:   -0.20 KCAL/MOL
REMARK 927      BINDING AFFINITY PREDICTED BY RF-SCORE:    0.00 PKD
ROOT
HETATM    1  C   UNL     1      -6.362   8.939  66.777  1.00  0.00    -0.059 C  
HETATM    2  C   UNL     1      -6.469   7.929  67.880  1.00  0.00    -0.052 C  
HETATM    3  O   UNL     1      -5.508   7.438  68.454  1.00  0.00    -0.021 OA 
ENDROOT
BRANCH   2   4
HETATM    4  O   UNL     1      -7.771   7.611  68.115  1.00  0.00    -0.114 OA 
BRANCH   4   5
HETATM    5  C   UNL     1      -8.422   6.866  67.068  1.00  0.00    -0.121 C  
HETATM    6  C   UNL     1      -9.814   7.469  66.742  1.00  0.00    -0.225 C  
HETATM    7  N   UNL     1     -10.925   6.547  67.105  1.00  0.00    -0.397 NA 
HETATM    8  C   UNL     1     -10.796   5.312  66.302  1.00  0.00    -0.112 C  
HETATM    9  C   UNL     1      -9.413   4.659  66.477  1.00  0.00    -0.171 C  
HETATM   10  C   UNL     1      -8.626   5.416  67.558  1.00  0.00    -0.108 C  
HETATM   11  C   UNL     1      -9.495   5.436  68.829  1.00  0.00    -0.168 C  
HETATM   12  C   UNL     1     -10.796   6.202  68.540  1.00  0.00    -0.314 C  
ENDBRANCH   4   5
ENDBRANCH   2   4
TORSDOF 2
ENDMDL
MODEL      176
REMARK 921   NORMALIZED FREE ENERGY PREDICTED BY IDOCK:   -1.68 KCAL/MOL
REMARK 922        TOTAL FREE ENERGY PREDICTED BY IDOCK:   -2.05 KCAL/MOL
REMARK 923 INTER-LIGAND FREE ENERGY PREDICTED BY IDOCK:   -1.84 KCAL/MOL
REMARK 924 INTRA-LIGAND FREE ENERGY PREDICTED BY IDOCK:   -0.20 KCAL/MOL
REMARK 927      BINDING AFFINITY PREDICTED BY RF-SCORE:    0.00 PKD
ROOT
HETATM    1  C   UNL     1      -9.518  10.367  67.107  1.00  0.00    -0.183 C  
HETATM    2  C   UNL     1      -9.624   9.096  66.320  1.00  0.00    -0.255 C  
HETATM    3  O   UNL     1      -9.490   9.029  65.106  1.00  0.00    -0.142 OA 
ENDROOT
BRANCH   2   4
HETATM    4  O   UNL     1      -9.930   8.051  67.134  1.00  0.00    -0.187 OA 
BRANCH   4   5
HETATM    5  C   UNL     1      -9.341   6.789  66.766  1.00  0.00    -0.160 C  
HETATM    6  C   UNL     1     -10.428   5.691  66.621  1.00  0.00    -0.279 C  
HETATM    7  N   UNL     1     -10.299   4.632  67.659  1.00  0.00     0.013 NA 
HETATM    8  C   UNL     1      -8.990   3.963  67.493  1.00  0.00    -0.134 C  
HETATM    9  C   UNL     1      -7.826   4.968  67.535  1.00  0.00    -0.095 C  
HETATM   10  C   UNL     1      -8.369   6.361  67.887  1.00  0.00    -0.118 C  
HETATM   11  C   UNL     1      -9.154   6.228  69.205  1.00  0.00    -0.130 C  
HETATM   12  C   UNL     1     -10.341   5.276  68.992  1.00  0.00    -0.176 C  
ENDBRANCH   4   5
ENDBRANCH   2   4
TORSDOF 2
ENDMDL
MODEL      177
REMARK 921   NORMALIZED FREE ENERGY PREDICTED BY IDOCK:   -1.67 KCAL/MOL
REMARK 922        TOTAL FREE ENERGY PREDICTED BY IDOCK:   -2.04 KCAL/MOL
REMARK 923 INTER-LIGAND FREE ENERGY PREDICTED BY IDOCK:   -1.85 KCAL/MOL
REMARK 924 INTRA-LIGAND FREE ENERGY PREDICTED BY IDOCK:   -0.19 KCAL/MOL
REMARK 927      BINDING AFFINITY PREDICTED BY RF-SCORE:    0.00 PKD
ROOT
HETATM    1  C   UNL     1     -11.073   6.570  67.385  1.00  0.00    -0.411 C  
HETATM    2  C   UNL     1     -10.040   7.433  66.725  1.00  0.00    -0.235 C  
HETATM    3  O   UNL     1      -9.991   8.649  66.837  1.00  0.00    -0.209 OA 
ENDROOT
BRANCH   2   4
HETATM    4  O   UNL     1      -9.205   6.681  65.958  1.00  0.00    -0.130 OA 
BRANCH   4   5
HETATM    5  C   UNL     1      -9.221   5.268  66.232  1.00  0.00    -0.149 C  
HETATM    6  C   UNL     1      -7.893   4.815  66.894  1.00  0.00    -0.099 C  
HETATM    7  N   UNL     1      -7.108   3.907  66.016  1.00  0.00    -0.065 NA 
HETATM    8  C   UNL     1      -7.900   2.683  65.770  1.00  0.00    -0.081 C  
HETATM    9  C   UNL     1      -9.286   3.008  65.185  1.00  0.00    -0.149 C  
HETATM   10  C   UNL     1      -9.373   4.514  64.892  1.00  0.00    -0.150 C  
HETATM   11  C   UNL     1      -8.187   4.874  63.979  1.00  0.00    -0.122 C  
HETATM   12  C   UNL     1      -6.873   4.593  64.724  1.00  0.00    -0.045 C  
ENDBRANCH   4   5
ENDBRANCH   2   4
TORSDOF 2
ENDMDL
MODEL      178
REMARK 921   NORMALIZED FREE ENERGY PREDICTED BY IDOCK:   -1.66 KCAL/MOL
REMARK 922        TOTAL FREE ENERGY PREDICTED BY IDOCK:   -2.03 KCAL/MOL
REMARK 923 INTER-LIGAND FREE ENERGY PREDICTED BY IDOCK:   -1.92 KCAL/MOL
REMARK 924 INTRA-LIGAND FREE ENERGY PREDICTED BY IDOCK:   -0.10 KCAL/MOL
REMARK 927      BINDING AFFINITY PREDICTED BY RF-SCORE:    0.00 PKD
ROOT
HETATM    1  C   UNL     1      -6.680   8.363  64.023  1.00  0.00    -0.075 C  
HETATM    2  C   UNL     1      -6.349   9.480  64.967  1.00  0.00    -0.083 C  
HETATM    3  O   UNL     1      -5.343  10.170  64.885  1.00  0.00    -0.072 OA 
ENDROOT
BRANCH   2   4
HETATM    4  O   UNL     1      -7.293   9.581  65.941  1.00  0.00    -0.094 OA 
BRANCH   4   5
HETATM    5  C   UNL     1      -8.409   8.680  65.814  1.00  0.00    -0.144 C  
HETATM    6  C   UNL     1      -9.753   9.427  66.023  1.00  0.00    -0.275 C  
HETATM    7  N   UNL     1     -10.457   8.983  67.256  1.00  0.00    -0.276 NA 
HETATM    8  C   UNL     1     -10.784   7.546  67.124  1.00  0.00    -0.309 C  
HETATM    9  C   UNL     1      -9.532   6.702  66.828  1.00  0.00    -0.194 C  
HETATM   10  C   UNL     1      -8.285   7.595  66.907  1.00  0.00    -0.120 C  
HETATM   11  C   UNL     1      -8.293   8.275  68.288  1.00  0.00    -0.132 C  
HETATM   12  C   UNL     1      -9.543   9.161  68.408  1.00  0.00    -0.151 C  
ENDBRANCH   4   5
ENDBRANCH   2   4
TORSDOF 2
ENDMDL
MODEL      179
REMARK 921   NORMALIZED FREE ENERGY PREDICTED BY IDOCK:   -1.66 KCAL/MOL
REMARK 922        TOTAL FREE ENERGY PREDICTED BY IDOCK:   -2.02 KCAL/MOL
REMARK 923 INTER-LIGAND FREE ENERGY PREDICTED BY IDOCK:   -1.81 KCAL/MOL
REMARK 924 INTRA-LIGAND FREE ENERGY PREDICTED BY IDOCK:   -0.21 KCAL/MOL
REMARK 927      BINDING AFFINITY PREDICTED BY RF-SCORE:    0.00 PKD
ROOT
HETATM    1  C   UNL     1     -11.000   6.693  66.961  1.00  0.00    -0.463 C  
HETATM    2  C   UNL     1     -10.417   8.014  67.362  1.00  0.00    -0.287 C  
HETATM    3  O   UNL     1     -10.915   9.095  67.083  1.00  0.00    -0.127 OA 
ENDROOT
BRANCH   2   4
HETATM    4  O   UNL     1      -9.247   7.839  68.033  1.00  0.00    -0.138 OA 
BRANCH   4   5
HETATM    5  C   UNL     1      -9.279   6.854  69.082  1.00  0.00    -0.141 C  
HETATM    6  C   UNL     1      -9.306   7.531  70.478  1.00  0.00    -0.160 C  
HETATM    7  N   UNL     1      -8.062   7.270  71.253  1.00  0.00    -0.101 NA 
HETATM    8  C   UNL     1      -7.946   5.814  71.487  1.00  0.00    -0.113 C  
HETATM    9  C   UNL     1      -7.993   5.019  70.170  1.00  0.00    -0.077 C  
HETATM   10  C   UNL     1      -7.997   5.998  68.985  1.00  0.00    -0.104 C  
HETATM   11  C   UNL     1      -6.771   6.915  69.143  1.00  0.00    -0.053 C  
HETATM   12  C   UNL     1      -6.904   7.719  70.446  1.00  0.00    -0.046 C  
ENDBRANCH   4   5
ENDBRANCH   2   4
TORSDOF 2
ENDMDL
MODEL      180
REMARK 921   NORMALIZED FREE ENERGY PREDICTED BY IDOCK:   -1.63 KCAL/MOL
REMARK 922        TOTAL FREE ENERGY PREDICTED BY IDOCK:   -1.99 KCAL/MOL
REMARK 923 INTER-LIGAND FREE ENERGY PREDICTED BY IDOCK:   -1.83 KCAL/MOL
REMARK 924 INTRA-LIGAND FREE ENERGY PREDICTED BY IDOCK:   -0.17 KCAL/MOL
REMARK 927      BINDING AFFINITY PREDICTED BY RF-SCORE:    0.00 PKD
ROOT
HETATM    1  C   UNL     1     -10.375   4.161  64.799  1.00  0.00    -0.206 C  
HETATM    2  C   UNL     1      -9.314   3.465  65.597  1.00  0.00    -0.147 C  
HETATM    3  O   UNL     1      -8.358   2.884  65.105  1.00  0.00    -0.090 OA 
ENDROOT
BRANCH   2   4
HETATM    4  O   UNL     1      -9.590   3.535  66.927  1.00  0.00    -0.197 OA 
BRANCH   4   5
HETATM    5  C   UNL     1      -8.650   4.292  67.713  1.00  0.00    -0.099 C  
HETATM    6  C   UNL     1      -8.783   3.949  69.220  1.00  0.00    -0.084 C  
HETATM    7  N   UNL     1      -9.282   5.102  70.018  1.00  0.00    -0.129 NA 
HETATM    8  C   UNL     1      -8.304   6.207  69.916  1.00  0.00    -0.128 C  
HETATM    9  C   UNL     1      -8.022   6.586  68.452  1.00  0.00    -0.110 C  
HETATM   10  C   UNL     1      -8.962   5.794  67.531  1.00  0.00    -0.107 C  
HETATM   11  C   UNL     1     -10.402   6.065  68.001  1.00  0.00    -0.250 C  
HETATM   12  C   UNL     1     -10.571   5.549  69.439  1.00  0.00    -0.279 C  
ENDBRANCH   4   5
ENDBRANCH   2   4
TORSDOF 2
ENDMDL
MODEL      181
REMARK 921   NORMALIZED FREE ENERGY PREDICTED BY IDOCK:   -1.62 KCAL/MOL
REMARK 922        TOTAL FREE ENERGY PREDICTED BY IDOCK:   -1.98 KCAL/MOL
REMARK 923 INTER-LIGAND FREE ENERGY PREDICTED BY IDOCK:   -1.86 KCAL/MOL
REMARK 924 INTRA-LIGAND FREE ENERGY PREDICTED BY IDOCK:   -0.12 KCAL/MOL
REMARK 927      BINDING AFFINITY PREDICTED BY RF-SCORE:    0.00 PKD
ROOT
HETATM    1  C   UNL     1      -6.844   7.851  65.376  1.00  0.00    -0.058 C  
HETATM    2  C   UNL     1      -7.154   9.224  65.889  1.00  0.00    -0.090 C  
HETATM    3  O   UNL     1      -6.347  10.142  65.919  1.00  0.00    -0.083 OA 
ENDROOT
BRANCH   2   4
HETATM    4  O   UNL     1      -8.432   9.287  66.351  1.00  0.00    -0.120 OA 
BRANCH   4   5
HETATM    5  C   UNL     1      -8.608   8.917  67.732  1.00  0.00    -0.125 C  
HETATM    6  C   UNL     1     -10.093   8.583  68.032  1.00  0.00    -0.200 C  
HETATM    7  N   UNL     1     -10.712   9.565  68.963  1.00  0.00    -0.221 NA 
HETATM    8  C   UNL     1      -9.993   9.512  70.254  1.00  0.00    -0.259 C  
HETATM    9  C   UNL     1      -8.483   9.747  70.077  1.00  0.00    -0.229 C  
HETATM   10  C   UNL     1      -8.194  10.115  68.613  1.00  0.00    -0.111 C  
HETATM   11  C   UNL     1      -9.080  11.323  68.261  1.00  0.00    -0.173 C  
HETATM   12  C   UNL     1     -10.558  10.920  68.385  1.00  0.00    -0.194 C  
ENDBRANCH   4   5
ENDBRANCH   2   4
TORSDOF 2
ENDMDL
MODEL      182
REMARK 921   NORMALIZED FREE ENERGY PREDICTED BY IDOCK:   -1.61 KCAL/MOL
REMARK 922        TOTAL FREE ENERGY PREDICTED BY IDOCK:   -1.97 KCAL/MOL
REMARK 923 INTER-LIGAND FREE ENERGY PREDICTED BY IDOCK:   -1.71 KCAL/MOL
REMARK 924 INTRA-LIGAND FREE ENERGY PREDICTED BY IDOCK:   -0.26 KCAL/MOL
REMARK 927      BINDING AFFINITY PREDICTED BY RF-SCORE:    0.00 PKD
ROOT
HETATM    1  C   UNL     1      -6.851   5.317  70.315  1.00  0.00    -0.048 C  
HETATM    2  C   UNL     1      -7.368   6.459  71.137  1.00  0.00    -0.080 C  
HETATM    3  O   UNL     1      -6.790   6.918  72.111  1.00  0.00    -0.058 OA 
ENDROOT
BRANCH   2   4
HETATM    4  O   UNL     1      -8.578   6.875  70.674  1.00  0.00    -0.138 OA 
BRANCH   4   5
HETATM    5  C   UNL     1      -8.777   8.301  70.664  1.00  0.00    -0.138 C  
HETATM    6  C   UNL     1     -10.289   8.651  70.672  1.00  0.00    -0.202 C  
HETATM    7  N   UNL     1     -10.722   9.304  69.407  1.00  0.00    -0.224 NA 
HETATM    8  C   UNL     1      -9.989  10.580  69.258  1.00  0.00    -0.213 C  
HETATM    9  C   UNL     1      -8.466  10.374  69.318  1.00  0.00    -0.162 C  
HETATM   10  C   UNL     1      -8.157   8.870  69.368  1.00  0.00    -0.105 C  
HETATM   11  C   UNL     1      -8.848   8.219  68.157  1.00  0.00    -0.139 C  
HETATM   12  C   UNL     1     -10.368   8.414  68.276  1.00  0.00    -0.199 C  
ENDBRANCH   4   5
ENDBRANCH   2   4
TORSDOF 2
ENDMDL
MODEL      183
REMARK 921   NORMALIZED FREE ENERGY PREDICTED BY IDOCK:   -1.61 KCAL/MOL
REMARK 922        TOTAL FREE ENERGY PREDICTED BY IDOCK:   -1.96 KCAL/MOL
REMARK 923 INTER-LIGAND FREE ENERGY PREDICTED BY IDOCK:   -1.70 KCAL/MOL
REMARK 924 INTRA-LIGAND FREE ENERGY PREDICTED BY IDOCK:   -0.26 KCAL/MOL
REMARK 927      BINDING AFFINITY PREDICTED BY RF-SCORE:    0.00 PKD
ROOT
HETATM    1  C   UNL     1      -6.691   7.009  68.131  1.00  0.00    -0.064 C  
HETATM    2  C   UNL     1      -6.668   8.329  68.841  1.00  0.00    -0.053 C  
HETATM    3  O   UNL     1      -6.526   8.455  70.049  1.00  0.00    -0.038 OA 
ENDROOT
BRANCH   2   4
HETATM    4  O   UNL     1      -6.868   9.350  67.964  1.00  0.00    -0.072 OA 
BRANCH   4   5
HETATM    5  C   UNL     1      -8.054   9.243  67.154  1.00  0.00    -0.109 C  
HETATM    6  C   UNL     1      -7.884  10.010  65.816  1.00  0.00    -0.128 C  
HETATM    7  N   UNL     1      -8.793  11.185  65.722  1.00  0.00    -0.192 NA 
HETATM    8  C   UNL     1     -10.191  10.705  65.764  1.00  0.00    -0.252 C  
HETATM    9  C   UNL     1     -10.465   9.853  67.016  1.00  0.00    -0.296 C  
HETATM   10  C   UNL     1      -9.229   9.879  67.929  1.00  0.00    -0.138 C  
HETATM   11  C   UNL     1      -8.900  11.355  68.213  1.00  0.00    -0.167 C  
HETATM   12  C   UNL     1      -8.551  12.059  66.893  1.00  0.00    -0.189 C  
ENDBRANCH   4   5
ENDBRANCH   2   4
TORSDOF 2
ENDMDL
MODEL      184
REMARK 921   NORMALIZED FREE ENERGY PREDICTED BY IDOCK:   -1.57 KCAL/MOL
REMARK 922        TOTAL FREE ENERGY PREDICTED BY IDOCK:   -1.92 KCAL/MOL
REMARK 923 INTER-LIGAND FREE ENERGY PREDICTED BY IDOCK:   -1.68 KCAL/MOL
REMARK 924 INTRA-LIGAND FREE ENERGY PREDICTED BY IDOCK:   -0.25 KCAL/MOL
REMARK 927      BINDING AFFINITY PREDICTED BY RF-SCORE:    0.00 PKD
ROOT
HETATM    1  C   UNL     1      -6.286   5.961  70.302  1.00  0.00    -0.032 C  
HETATM    2  C   UNL     1      -6.952   6.907  71.255  1.00  0.00    -0.062 C  
HETATM    3  O   UNL     1      -6.880   8.125  71.172  1.00  0.00    -0.041 OA 
ENDROOT
BRANCH   2   4
HETATM    4  O   UNL     1      -7.601   6.224  72.236  1.00  0.00    -0.093 OA 
BRANCH   4   5
HETATM    5  C   UNL     1      -9.016   6.475  72.330  1.00  0.00    -0.138 C  
HETATM    6  C   UNL     1      -9.530   6.221  73.771  1.00  0.00    -0.154 C  
HETATM    7  N   UNL     1     -10.459   5.061  73.841  1.00  0.00    -0.247 NA 
HETATM    8  C   UNL     1     -11.646   5.355  73.010  1.00  0.00    -0.200 C  
HETATM    9  C   UNL     1     -11.258   5.707  71.563  1.00  0.00    -0.182 C  
HETATM   10  C   UNL     1      -9.746   5.502  71.378  1.00  0.00    -0.205 C  
HETATM   11  C   UNL     1      -9.424   4.057  71.799  1.00  0.00    -0.210 C  
HETATM   12  C   UNL     1      -9.768   3.874  73.286  1.00  0.00    -0.113 C  
ENDBRANCH   4   5
ENDBRANCH   2   4
TORSDOF 2
ENDMDL
MODEL      185
REMARK 921   NORMALIZED FREE ENERGY PREDICTED BY IDOCK:   -1.54 KCAL/MOL
REMARK 922        TOTAL FREE ENERGY PREDICTED BY IDOCK:   -1.89 KCAL/MOL
REMARK 923 INTER-LIGAND FREE ENERGY PREDICTED BY IDOCK:   -1.74 KCAL/MOL
REMARK 924 INTRA-LIGAND FREE ENERGY PREDICTED BY IDOCK:   -0.15 KCAL/MOL
REMARK 927      BINDING AFFINITY PREDICTED BY RF-SCORE:    0.00 PKD
ROOT
HETATM    1  C   UNL     1      -8.516   6.337  67.381  1.00  0.00    -0.108 C  
HETATM    2  C   UNL     1      -9.933   6.020  67.756  1.00  0.00    -0.131 C  
HETATM    3  O   UNL     1     -10.835   5.858  66.946  1.00  0.00    -0.306 OA 
ENDROOT
BRANCH   2   4
HETATM    4  O   UNL     1     -10.076   5.984  69.108  1.00  0.00    -0.158 OA 
BRANCH   4   5
HETATM    5  C   UNL     1      -8.853   5.829  69.853  1.00  0.00    -0.127 C  
HETATM    6  C   UNL     1      -8.896   4.548  70.728  1.00  0.00    -0.101 C  
HETATM    7  N   UNL     1      -8.900   4.862  72.183  1.00  0.00    -0.127 NA 
HETATM    8  C   UNL     1      -7.645   5.568  72.519  1.00  0.00    -0.098 C  
HETATM    9  C   UNL     1      -7.445   6.822  71.651  1.00  0.00    -0.087 C  
HETATM   10  C   UNL     1      -8.696   7.048  70.788  1.00  0.00    -0.148 C  
HETATM   11  C   UNL     1      -9.905   7.107  71.739  1.00  0.00    -0.171 C  
HETATM   12  C   UNL     1     -10.044   5.760  72.465  1.00  0.00    -0.180 C  
ENDBRANCH   4   5
ENDBRANCH   2   4
TORSDOF 2
ENDMDL
MODEL      186
REMARK 921   NORMALIZED FREE ENERGY PREDICTED BY IDOCK:   -1.54 KCAL/MOL
REMARK 922        TOTAL FREE ENERGY PREDICTED BY IDOCK:   -1.89 KCAL/MOL
REMARK 923 INTER-LIGAND FREE ENERGY PREDICTED BY IDOCK:   -1.69 KCAL/MOL
REMARK 924 INTRA-LIGAND FREE ENERGY PREDICTED BY IDOCK:   -0.19 KCAL/MOL
REMARK 927      BINDING AFFINITY PREDICTED BY RF-SCORE:    0.00 PKD
ROOT
HETATM    1  C   UNL     1     -11.013   6.743  67.056  1.00  0.00    -0.439 C  
HETATM    2  C   UNL     1     -10.307   8.064  67.109  1.00  0.00    -0.325 C  
HETATM    3  O   UNL     1     -10.801   9.087  67.560  1.00  0.00    -0.232 OA 
ENDROOT
BRANCH   2   4
HETATM    4  O   UNL     1      -9.071   7.970  66.550  1.00  0.00    -0.154 OA 
BRANCH   4   5
HETATM    5  C   UNL     1      -8.537   6.636  66.453  1.00  0.00    -0.130 C  
HETATM    6  C   UNL     1      -7.369   6.431  67.453  1.00  0.00    -0.087 C  
HETATM    7  N   UNL     1      -6.066   6.230  66.762  1.00  0.00    -0.025 NA 
HETATM    8  C   UNL     1      -6.149   5.000  65.945  1.00  0.00    -0.030 C  
HETATM    9  C   UNL     1      -7.332   5.047  64.962  1.00  0.00    -0.068 C  
HETATM   10  C   UNL     1      -7.990   6.434  65.023  1.00  0.00    -0.120 C  
HETATM   11  C   UNL     1      -6.889   7.476  64.758  1.00  0.00    -0.047 C  
HETATM   12  C   UNL     1      -5.828   7.385  65.866  1.00  0.00    -0.037 C  
ENDBRANCH   4   5
ENDBRANCH   2   4
TORSDOF 2
ENDMDL
MODEL      187
REMARK 921   NORMALIZED FREE ENERGY PREDICTED BY IDOCK:   -1.53 KCAL/MOL
REMARK 922        TOTAL FREE ENERGY PREDICTED BY IDOCK:   -1.88 KCAL/MOL
REMARK 923 INTER-LIGAND FREE ENERGY PREDICTED BY IDOCK:   -1.63 KCAL/MOL
REMARK 924 INTRA-LIGAND FREE ENERGY PREDICTED BY IDOCK:   -0.25 KCAL/MOL
REMARK 927      BINDING AFFINITY PREDICTED BY RF-SCORE:    0.00 PKD
ROOT
HETATM    1  C   UNL     1     -11.111   6.472  67.203  1.00  0.00    -0.434 C  
HETATM    2  C   UNL     1     -10.364   7.760  67.030  1.00  0.00    -0.334 C  
HETATM    3  O   UNL     1     -10.838   8.863  67.262  1.00  0.00    -0.216 OA 
ENDROOT
BRANCH   2   4
HETATM    4  O   UNL     1      -9.116   7.529  66.541  1.00  0.00    -0.153 OA 
BRANCH   4   5
HETATM    5  C   UNL     1      -8.051   8.229  67.214  1.00  0.00    -0.109 C  
HETATM    6  C   UNL     1      -6.918   8.602  66.221  1.00  0.00    -0.077 C  
HETATM    7  N   UNL     1      -5.654   7.872  66.512  1.00  0.00    -0.031 NA 
HETATM    8  C   UNL     1      -5.185   8.257  67.861  1.00  0.00    -0.034 C  
HETATM    9  C   UNL     1      -6.261   8.012  68.932  1.00  0.00    -0.040 C  
HETATM   10  C   UNL     1      -7.461   7.295  68.292  1.00  0.00    -0.102 C  
HETATM   11  C   UNL     1      -6.925   6.022  67.612  1.00  0.00    -0.069 C  
HETATM   12  C   UNL     1      -5.939   6.419  66.502  1.00  0.00    -0.028 C  
ENDBRANCH   4   5
ENDBRANCH   2   4
TORSDOF 2
ENDMDL
MODEL      188
REMARK 921   NORMALIZED FREE ENERGY PREDICTED BY IDOCK:   -1.51 KCAL/MOL
REMARK 922        TOTAL FREE ENERGY PREDICTED BY IDOCK:   -1.86 KCAL/MOL
REMARK 923 INTER-LIGAND FREE ENERGY PREDICTED BY IDOCK:   -1.71 KCAL/MOL
REMARK 924 INTRA-LIGAND FREE ENERGY PREDICTED BY IDOCK:   -0.15 KCAL/MOL
REMARK 927      BINDING AFFINITY PREDICTED BY RF-SCORE:    0.00 PKD
ROOT
HETATM    1  C   UNL     1     -10.884   9.840  67.306  1.00  0.00    -0.247 C  
HETATM    2  C   UNL     1      -9.974   9.489  68.444  1.00  0.00    -0.164 C  
HETATM    3  O   UNL     1      -9.917   8.381  68.958  1.00  0.00    -0.179 OA 
ENDROOT
BRANCH   2   4
HETATM    4  O   UNL     1      -9.263  10.577  68.844  1.00  0.00    -0.167 OA 
BRANCH   4   5
HETATM    5  C   UNL     1      -7.875  10.583  68.461  1.00  0.00    -0.111 C  
HETATM    6  C   UNL     1      -7.019  11.371  69.487  1.00  0.00    -0.063 C  
HETATM    7  N   UNL     1      -6.443  12.613  68.902  1.00  0.00    -0.085 NA 
HETATM    8  C   UNL     1      -5.542  12.239  67.791  1.00  0.00    -0.092 C  
HETATM    9  C   UNL     1      -6.260  11.376  66.739  1.00  0.00    -0.141 C  
HETATM   10  C   UNL     1      -7.753  11.283  67.090  1.00  0.00    -0.147 C  
HETATM   11  C   UNL     1      -8.285  12.722  67.215  1.00  0.00    -0.181 C  
HETATM   12  C   UNL     1      -7.552  13.434  68.363  1.00  0.00    -0.133 C  
ENDBRANCH   4   5
ENDBRANCH   2   4
TORSDOF 2
ENDMDL
MODEL      189
REMARK 921   NORMALIZED FREE ENERGY PREDICTED BY IDOCK:   -1.49 KCAL/MOL
REMARK 922        TOTAL FREE ENERGY PREDICTED BY IDOCK:   -1.83 KCAL/MOL
REMARK 923 INTER-LIGAND FREE ENERGY PREDICTED BY IDOCK:   -1.61 KCAL/MOL
REMARK 924 INTRA-LIGAND FREE ENERGY PREDICTED BY IDOCK:   -0.22 KCAL/MOL
REMARK 927      BINDING AFFINITY PREDICTED BY RF-SCORE:    0.00 PKD
ROOT
HETATM    1  C   UNL     1      -9.049   6.046  73.769  1.00  0.00    -0.127 C  
HETATM    2  C   UNL     1      -8.518   4.889  72.977  1.00  0.00    -0.107 C  
HETATM    3  O   UNL     1      -8.357   3.766  73.431  1.00  0.00    -0.086 OA 
ENDROOT
BRANCH   2   4
HETATM    4  O   UNL     1      -8.205   5.277  71.712  1.00  0.00    -0.114 OA 
BRANCH   4   5
HETATM    5  C   UNL     1      -8.163   4.220  70.735  1.00  0.00    -0.074 C  
HETATM    6  C   UNL     1      -7.214   4.584  69.563  1.00  0.00    -0.051 C  
HETATM    7  N   UNL     1      -7.947   4.765  68.281  1.00  0.00    -0.085 NA 
HETATM    8  C   UNL     1      -8.597   3.486  67.922  1.00  0.00    -0.099 C  
HETATM    9  C   UNL     1      -9.509   2.973  69.050  1.00  0.00    -0.172 C  
HETATM   10  C   UNL     1      -9.585   4.030  70.163  1.00  0.00    -0.270 C  
HETATM   11  C   UNL     1     -10.042   5.348  69.513  1.00  0.00    -0.310 C  
HETATM   12  C   UNL     1      -8.994   5.794  68.482  1.00  0.00    -0.112 C  
ENDBRANCH   4   5
ENDBRANCH   2   4
TORSDOF 2
ENDMDL
MODEL      190
REMARK 921   NORMALIZED FREE ENERGY PREDICTED BY IDOCK:   -1.46 KCAL/MOL
REMARK 922        TOTAL FREE ENERGY PREDICTED BY IDOCK:   -1.80 KCAL/MOL
REMARK 923 INTER-LIGAND FREE ENERGY PREDICTED BY IDOCK:   -1.63 KCAL/MOL
REMARK 924 INTRA-LIGAND FREE ENERGY PREDICTED BY IDOCK:   -0.16 KCAL/MOL
REMARK 927      BINDING AFFINITY PREDICTED BY RF-SCORE:    0.00 PKD
ROOT
HETATM    1  C   UNL     1      -7.490   7.263  71.331  1.00  0.00    -0.082 C  
HETATM    2  C   UNL     1      -8.156   6.288  70.408  1.00  0.00    -0.116 C  
HETATM    3  O   UNL     1      -8.363   5.115  70.685  1.00  0.00    -0.106 OA 
ENDROOT
BRANCH   2   4
HETATM    4  O   UNL     1      -8.452   6.877  69.219  1.00  0.00    -0.128 OA 
BRANCH   4   5
HETATM    5  C   UNL     1      -8.380   6.014  68.068  1.00  0.00    -0.116 C  
HETATM    6  C   UNL     1      -7.243   6.459  67.111  1.00  0.00    -0.075 C  
HETATM    7  N   UNL     1      -7.766   6.957  65.810  1.00  0.00    -0.095 NA 
HETATM    8  C   UNL     1      -8.484   5.855  65.135  1.00  0.00    -0.130 C  
HETATM    9  C   UNL     1      -9.594   5.268  66.025  1.00  0.00    -0.166 C  
HETATM   10  C   UNL     1      -9.719   6.110  67.304  1.00  0.00    -0.146 C  
HETATM   11  C   UNL     1      -9.944   7.570  66.871  1.00  0.00    -0.318 C  
HETATM   12  C   UNL     1      -8.720   8.057  66.079  1.00  0.00    -0.157 C  
ENDBRANCH   4   5
ENDBRANCH   2   4
TORSDOF 2
ENDMDL
MODEL      191
REMARK 921   NORMALIZED FREE ENERGY PREDICTED BY IDOCK:   -1.45 KCAL/MOL
REMARK 922        TOTAL FREE ENERGY PREDICTED BY IDOCK:   -1.79 KCAL/MOL
REMARK 923 INTER-LIGAND FREE ENERGY PREDICTED BY IDOCK:   -1.90 KCAL/MOL
REMARK 924 INTRA-LIGAND FREE ENERGY PREDICTED BY IDOCK:    0.11 KCAL/MOL
REMARK 927      BINDING AFFINITY PREDICTED BY RF-SCORE:    0.00 PKD
ROOT
HETATM    1  C   UNL     1      -9.045   6.044  73.769  1.00  0.00    -0.127 C  
HETATM    2  C   UNL     1      -8.495   4.887  72.992  1.00  0.00    -0.107 C  
HETATM    3  O   UNL     1      -8.336   3.766  73.454  1.00  0.00    -0.086 OA 
ENDROOT
BRANCH   2   4
HETATM    4  O   UNL     1      -8.162   5.270  71.730  1.00  0.00    -0.114 OA 
BRANCH   4   5
HETATM    5  C   UNL     1      -9.227   5.204  70.764  1.00  0.00    -0.145 C  
HETATM    6  C   UNL     1      -8.666   5.006  69.331  1.00  0.00    -0.091 C  
HETATM    7  N   UNL     1      -8.917   6.187  68.461  1.00  0.00    -0.116 NA 
HETATM    8  C   UNL     1     -10.378   6.372  68.325  1.00  0.00    -0.191 C  
HETATM    9  C   UNL     1     -11.067   6.498  69.695  1.00  0.00    -0.435 C  
HETATM   10  C   UNL     1     -10.000   6.541  70.799  1.00  0.00    -0.205 C  
HETATM   11  C   UNL     1      -9.031   7.686  70.457  1.00  0.00    -0.151 C  
HETATM   12  C   UNL     1      -8.341   7.383  69.117  1.00  0.00    -0.132 C  
ENDBRANCH   4   5
ENDBRANCH   2   4
TORSDOF 2
ENDMDL
MODEL      192
REMARK 921   NORMALIZED FREE ENERGY PREDICTED BY IDOCK:   -1.38 KCAL/MOL
REMARK 922        TOTAL FREE ENERGY PREDICTED BY IDOCK:   -1.71 KCAL/MOL
REMARK 923 INTER-LIGAND FREE ENERGY PREDICTED BY IDOCK:   -1.55 KCAL/MOL
REMARK 924 INTRA-LIGAND FREE ENERGY PREDICTED BY IDOCK:   -0.17 KCAL/MOL
REMARK 927      BINDING AFFINITY PREDICTED BY RF-SCORE:    0.00 PKD
ROOT
HETATM    1  C   UNL     1      -9.301   6.770  66.418  1.00  0.00    -0.175 C  
HETATM    2  C   UNL     1      -9.277   8.085  67.136  1.00  0.00    -0.142 C  
HETATM    3  O   UNL     1      -9.495   9.162  66.599  1.00  0.00    -0.159 OA 
ENDROOT
BRANCH   2   4
HETATM    4  O   UNL     1      -8.940   7.914  68.442  1.00  0.00    -0.134 OA 
BRANCH   4   5
HETATM    5  C   UNL     1      -7.728   8.572  68.858  1.00  0.00    -0.100 C  
HETATM    6  C   UNL     1      -6.780   7.582  69.584  1.00  0.00    -0.040 C  
HETATM    7  N   UNL     1      -6.607   7.922  71.023  1.00  0.00    -0.037 NA 
HETATM    8  C   UNL     1      -5.985   9.260  71.122  1.00  0.00    -0.068 C  
HETATM    9  C   UNL     1      -6.796  10.324  70.362  1.00  0.00    -0.109 C  
HETATM   10  C   UNL     1      -8.101   9.698  69.847  1.00  0.00    -0.180 C  
HETATM   11  C   UNL     1      -8.822   9.080  71.058  1.00  0.00    -0.291 C  
HETATM   12  C   UNL     1      -7.945   7.969  71.656  1.00  0.00    -0.112 C  
ENDBRANCH   4   5
ENDBRANCH   2   4
TORSDOF 2
ENDMDL
MODEL      193
REMARK 921   NORMALIZED FREE ENERGY PREDICTED BY IDOCK:   -1.37 KCAL/MOL
REMARK 922        TOTAL FREE ENERGY PREDICTED BY IDOCK:   -1.70 KCAL/MOL
REMARK 923 INTER-LIGAND FREE ENERGY PREDICTED BY IDOCK:   -1.52 KCAL/MOL
REMARK 924 INTRA-LIGAND FREE ENERGY PREDICTED BY IDOCK:   -0.17 KCAL/MOL
REMARK 927      BINDING AFFINITY PREDICTED BY RF-SCORE:    0.00 PKD
ROOT
HETATM    1  C   UNL     1      -6.667  10.997  67.945  1.00  0.00    -0.063 C  
HETATM    2  C   UNL     1      -8.129  10.671  67.865  1.00  0.00    -0.111 C  
HETATM    3  O   UNL     1      -8.786  10.724  66.836  1.00  0.00    -0.137 OA 
ENDROOT
BRANCH   2   4
HETATM    4  O   UNL     1      -8.618  10.357  69.094  1.00  0.00    -0.149 OA 
BRANCH   4   5
HETATM    5  C   UNL     1      -9.177   9.035  69.216  1.00  0.00    -0.145 C  
HETATM    6  C   UNL     1      -9.996   8.896  70.526  1.00  0.00    -0.201 C  
HETATM    7  N   UNL     1      -9.372   7.940  71.481  1.00  0.00    -0.140 NA 
HETATM    8  C   UNL     1      -9.337   6.601  70.855  1.00  0.00    -0.157 C  
HETATM    9  C   UNL     1      -8.617   6.624  69.496  1.00  0.00    -0.132 C  
HETATM   10  C   UNL     1      -8.015   8.018  69.263  1.00  0.00    -0.116 C  
HETATM   11  C   UNL     1      -7.119   8.340  70.473  1.00  0.00    -0.037 C  
HETATM   12  C   UNL     1      -7.982   8.382  71.744  1.00  0.00    -0.133 C  
ENDBRANCH   4   5
ENDBRANCH   2   4
TORSDOF 2
ENDMDL
MODEL      194
REMARK 921   NORMALIZED FREE ENERGY PREDICTED BY IDOCK:   -1.36 KCAL/MOL
REMARK 922        TOTAL FREE ENERGY PREDICTED BY IDOCK:   -1.69 KCAL/MOL
REMARK 923 INTER-LIGAND FREE ENERGY PREDICTED BY IDOCK:   -1.83 KCAL/MOL
REMARK 924 INTRA-LIGAND FREE ENERGY PREDICTED BY IDOCK:    0.13 KCAL/MOL
REMARK 927      BINDING AFFINITY PREDICTED BY RF-SCORE:    0.00 PKD
ROOT
HETATM    1  C   UNL     1      -8.343   9.916  68.993  1.00  0.00    -0.130 C  
HETATM    2  C   UNL     1      -9.276   9.303  69.994  1.00  0.00    -0.210 C  
HETATM    3  O   UNL     1     -10.422   8.960  69.741  1.00  0.00    -0.203 OA 
ENDROOT
BRANCH   2   4
HETATM    4  O   UNL     1      -8.685   9.226  71.216  1.00  0.00    -0.301 OA 
BRANCH   4   5
HETATM    5  C   UNL     1      -7.775   8.123  71.393  1.00  0.00    -0.092 C  
HETATM    6  C   UNL     1      -8.098   6.973  70.403  1.00  0.00    -0.119 C  
HETATM    7  N   UNL     1      -8.582   5.751  71.100  1.00  0.00    -0.127 NA 
HETATM    8  C   UNL     1      -7.510   5.258  71.992  1.00  0.00    -0.097 C  
HETATM    9  C   UNL     1      -7.041   6.345  72.974  1.00  0.00    -0.082 C  
HETATM   10  C   UNL     1      -7.939   7.583  72.830  1.00  0.00    -0.129 C  
HETATM   11  C   UNL     1      -9.393   7.120  73.027  1.00  0.00    -0.187 C  
HETATM   12  C   UNL     1      -9.759   6.116  71.923  1.00  0.00    -0.152 C  
ENDBRANCH   4   5
ENDBRANCH   2   4
TORSDOF 2
ENDMDL
MODEL      195
REMARK 921   NORMALIZED FREE ENERGY PREDICTED BY IDOCK:   -0.94 KCAL/MOL
REMARK 922        TOTAL FREE ENERGY PREDICTED BY IDOCK:   -1.23 KCAL/MOL
REMARK 923 INTER-LIGAND FREE ENERGY PREDICTED BY IDOCK:   -1.41 KCAL/MOL
REMARK 924 INTRA-LIGAND FREE ENERGY PREDICTED BY IDOCK:    0.18 KCAL/MOL
REMARK 927      BINDING AFFINITY PREDICTED BY RF-SCORE:    0.00 PKD
ROOT
HETATM    1  C   UNL     1      -9.066  17.059  66.034  1.00  0.00    -0.172 C  
HETATM    2  C   UNL     1      -8.125  17.296  67.176  1.00  0.00    -0.203 C  
HETATM    3  O   UNL     1      -8.370  18.027  68.124  1.00  0.00    -0.253 OA 
ENDROOT
BRANCH   2   4
HETATM    4  O   UNL     1      -6.957  16.626  66.983  1.00  0.00    -0.166 OA 
BRANCH   4   5
HETATM    5  C   UNL     1      -7.046  15.192  67.082  1.00  0.00    -0.008 C  
HETATM    6  C   UNL     1      -8.207  14.771  68.022  1.00  0.00    -0.142 C  
HETATM    7  N   UNL     1      -7.715  14.107  69.260  1.00  0.00     0.023 NA 
HETATM    8  C   UNL     1      -7.002  12.868  68.881  1.00  0.00    -0.084 C  
HETATM    9  C   UNL     1      -5.870  13.145  67.877  1.00  0.00    -0.132 C  
HETATM   10  C   UNL     1      -5.724  14.662  67.680  1.00  0.00    -0.002 C  
HETATM   11  C   UNL     1      -5.520  15.288  69.071  1.00  0.00    -0.098 C  
HETATM   12  C   UNL     1      -6.763  15.020  69.934  1.00  0.00    -0.170 C  
ENDBRANCH   4   5
ENDBRANCH   2   4
TORSDOF 2
ENDMDL
